MODEL 1
REMARK VINA RESULT:     -11.2      0.000      0.000
REMARK  Name = 
REMARK  9 active torsions:
REMARK  status: ('A' for Active; 'I' for Inactive)
REMARK    1  A    between atoms: O_2  and  C_3
REMARK    2  A    between atoms: C_3  and  C_4
REMARK    3  A    between atoms: C_4  and  O_5
REMARK    4  A    between atoms: O_5  and  C_6
REMARK    5  A    between atoms: C_7  and  C_12
REMARK    6  A    between atoms: C_15  and  C_17
REMARK    7  A    between atoms: N_21  and  C_22
REMARK    8  A    between atoms: C_22  and  C_23
REMARK    9  A    between atoms: C_26  and  S_29
REMARK                            x       y       z     vdW  Elec       q    Type
REMARK                         _______ _______ _______ _____ _____    ______ ____
ROOT
ATOM     12  C   UNL     1      -2.945   3.405  24.581  0.00  0.00    +0.208 A 
ATOM     13  N   UNL     1      -3.327   3.415  23.849  0.00  0.00    -0.056 NA
ATOM     14  O   UNL     1      -3.967   2.896  23.888  0.00  0.00    -0.336 OA
ATOM     15  C   UNL     1      -3.981   2.565  24.644  0.00  0.00    +0.251 A 
ATOM     16  N   UNL     1      -3.349   2.879  25.072  0.00  0.00    -0.189 NA
ENDROOT
BRANCH  12   7
ATOM      6  C   UNL     1      -1.524   3.529  24.661  0.00  0.00    +0.228 A 
ATOM      7  C   UNL     1      -2.277   3.843  24.786  0.00  0.00    +0.092 A 
ATOM      8  C   UNL     1      -2.362   4.594  25.115  0.00  0.00    +0.009 A 
ATOM      9  C   UNL     1      -1.693   5.033  25.319  0.00  0.00    +0.021 A 
ATOM     10  C   UNL     1      -0.940   4.720  25.195  0.00  0.00    +0.102 A 
ATOM     11  N   UNL     1      -0.856   3.968  24.865  0.00  0.00    -0.210 NA
BRANCH   6   5
ATOM      5  O   UNL     1      -1.439   2.778  24.332  0.00  0.00    -0.457 OA
BRANCH   5   4
ATOM      4  C   UNL     1      -0.695   2.423  24.298  0.00  0.00    +0.239 C 
BRANCH   4   3
ATOM      3  C   UNL     1      -0.587   1.732  23.863  0.00  0.00    +0.189 C 
BRANCH   3   2
ATOM      1  C   UNL     1      -0.039   0.417  23.747  0.00  0.00    +0.174 C 
ATOM      2  O   UNL     1      -0.186   1.092  24.196  0.00  0.00    -0.347 OA
ENDBRANCH   3   2
ENDBRANCH   4   3
ENDBRANCH   5   4
ENDBRANCH   6   5
ENDBRANCH  12   7
BRANCH  15  17
ATOM     17  C   UNL     1      -4.529   2.015  24.923  0.00  0.00    +0.138 C 
ATOM     18  C   UNL     1      -5.192   2.184  25.385  0.00  0.00    +0.027 C 
ATOM     19  C   UNL     1      -5.584   1.474  25.536  0.00  0.00    +0.019 C 
ATOM     20  C   UNL     1      -5.164   0.867  25.169  0.00  0.00    +0.073 C 
ATOM     21  N   UNL     1      -4.512   1.202  24.789  0.00  0.00    -0.263 NA
BRANCH  21  22
ATOM     22  C   UNL     1      -3.943   0.794  24.353  0.00  0.00    +0.099 C 
BRANCH  22  23
ATOM     23  C   UNL     1      -3.849  -0.019  24.456  0.00  0.00    -0.006 A 
ATOM     24  C   UNL     1      -4.231  -0.546  23.949  0.00  0.00    -0.002 A 
ATOM     25  C   UNL     1      -4.137  -1.359  24.051  0.00  0.00    +0.018 A 
ATOM     26  C   UNL     1      -3.660  -1.645  24.661  0.00  0.00    +0.106 A 
ATOM     27  C   UNL     1      -3.278  -1.119  25.168  0.00  0.00    +0.018 A 
ATOM     28  C   UNL     1      -3.373  -0.305  25.065  0.00  0.00    -0.002 A 
BRANCH  26  29
ATOM     29  S   UNL     1      -3.566  -2.459  24.764  0.00  0.00    +0.010 S 
ATOM     30  C   UNL     1      -3.472  -3.272  24.866  0.00  0.00    +0.182 C 
ATOM     31  O   UNL     1      -3.543  -2.353  25.582  0.00  0.00    -0.169 OA
ATOM     32  O   UNL     1      -3.589  -2.565  23.946  0.00  0.00    -0.169 OA
ENDBRANCH  26  29
ENDBRANCH  22  23
ENDBRANCH  21  22
ENDBRANCH  15  17
TORSDOF 9
ENDMDL
MODEL 2
REMARK VINA RESULT:     -10.4      1.373      3.031
REMARK  Name = 
REMARK  9 active torsions:
REMARK  status: ('A' for Active; 'I' for Inactive)
REMARK    1  A    between atoms: O_2  and  C_3
REMARK    2  A    between atoms: C_3  and  C_4
REMARK    3  A    between atoms: C_4  and  O_5
REMARK    4  A    between atoms: O_5  and  C_6
REMARK    5  A    between atoms: C_7  and  C_12
REMARK    6  A    between atoms: C_15  and  C_17
REMARK    7  A    between atoms: N_21  and  C_22
REMARK    8  A    between atoms: C_22  and  C_23
REMARK    9  A    between atoms: C_26  and  S_29
REMARK                            x       y       z     vdW  Elec       q    Type
REMARK                         _______ _______ _______ _____ _____    ______ ____
ROOT
ATOM     12  C   UNL     1      -1.075   2.976  25.359  0.00  0.00    +0.208 A 
ATOM     13  N   UNL     1      -0.917   2.596  26.075  0.00  0.00    -0.056 NA
ATOM     14  O   UNL     1      -0.721   1.812  25.909  0.00  0.00    -0.336 OA
ATOM     15  C   UNL     1      -0.757   1.707  25.092  0.00  0.00    +0.251 A 
ATOM     16  N   UNL     1      -0.976   2.427  24.752  0.00  0.00    -0.189 NA
ENDROOT
BRANCH  12   7
ATOM      6  C   UNL     1      -2.086   3.985  25.332  0.00  0.00    +0.228 A 
ATOM      7  C   UNL     1      -1.293   3.766  25.268  0.00  0.00    +0.092 A 
ATOM      8  C   UNL     1      -0.719   4.337  25.112  0.00  0.00    +0.009 A 
ATOM      9  C   UNL     1      -0.937   5.127  25.021  0.00  0.00    +0.021 A 
ATOM     10  C   UNL     1      -1.730   5.347  25.085  0.00  0.00    +0.102 A 
ATOM     11  N   UNL     1      -2.304   4.775  25.241  0.00  0.00    -0.210 NA
BRANCH   6   5
ATOM      5  O   UNL     1      -2.660   3.414  25.487  0.00  0.00    -0.457 OA
BRANCH   5   4
ATOM      4  C   UNL     1      -3.451   3.636  25.572  0.00  0.00    +0.239 C 
BRANCH   4   3
ATOM      3  C   UNL     1      -4.043   3.062  25.563  0.00  0.00    +0.189 C 
BRANCH   3   2
ATOM      1  C   UNL     1      -5.419   2.717  25.737  0.00  0.00    +0.174 C 
ATOM      2  O   UNL     1      -4.792   3.238  25.862  0.00  0.00    -0.347 OA
ENDBRANCH   3   2
ENDBRANCH   4   3
ENDBRANCH   5   4
ENDBRANCH   6   5
ENDBRANCH  12   7
BRANCH  15  17
ATOM     17  C   UNL     1      -0.602   1.007  24.685  0.00  0.00    +0.138 C 
ATOM     18  C   UNL     1       0.053   0.860  24.204  0.00  0.00    +0.027 C 
ATOM     19  C   UNL     1      -0.015   0.092  23.909  0.00  0.00    +0.019 C 
ATOM     20  C   UNL     1      -0.711  -0.235  24.208  0.00  0.00    +0.073 C 
ATOM     21  N   UNL     1      -1.074   0.330  24.687  0.00  0.00    -0.263 NA
BRANCH  21  22
ATOM     22  C   UNL     1      -1.783   0.235  25.096  0.00  0.00    +0.099 C 
BRANCH  22  23
ATOM     23  C   UNL     1      -2.314  -0.355  24.870  0.00  0.00    -0.006 A 
ATOM     24  C   UNL     1      -2.922  -0.181  24.339  0.00  0.00    -0.002 A 
ATOM     25  C   UNL     1      -3.452  -0.770  24.113  0.00  0.00    +0.018 A 
ATOM     26  C   UNL     1      -3.377  -1.533  24.418  0.00  0.00    +0.106 A 
ATOM     27  C   UNL     1      -2.769  -1.707  24.949  0.00  0.00    +0.018 A 
ATOM     28  C   UNL     1      -2.238  -1.117  25.175  0.00  0.00    -0.002 A 
BRANCH  26  29
ATOM     29  S   UNL     1      -3.908  -2.123  24.192  0.00  0.00    +0.010 S 
ATOM     30  C   UNL     1      -4.438  -2.712  23.966  0.00  0.00    +0.182 C 
ATOM     31  O   UNL     1      -4.411  -1.549  23.876  0.00  0.00    -0.169 OA
ATOM     32  O   UNL     1      -3.406  -2.696  24.506  0.00  0.00    -0.169 OA
ENDBRANCH  26  29
ENDBRANCH  22  23
ENDBRANCH  21  22
ENDBRANCH  15  17
TORSDOF 9
ENDMDL
MODEL 3
REMARK VINA RESULT:     -10.4      2.108      5.665
REMARK  Name = 
REMARK  9 active torsions:
REMARK  status: ('A' for Active; 'I' for Inactive)
REMARK    1  A    between atoms: O_2  and  C_3
REMARK    2  A    between atoms: C_3  and  C_4
REMARK    3  A    between atoms: C_4  and  O_5
REMARK    4  A    between atoms: O_5  and  C_6
REMARK    5  A    between atoms: C_7  and  C_12
REMARK    6  A    between atoms: C_15  and  C_17
REMARK    7  A    between atoms: N_21  and  C_22
REMARK    8  A    between atoms: C_22  and  C_23
REMARK    9  A    between atoms: C_26  and  S_29
REMARK                            x       y       z     vdW  Elec       q    Type
REMARK                         _______ _______ _______ _____ _____    ______ ____
ROOT
ATOM     12  C   UNL     1      -2.257  -1.162  24.822  0.00  0.00    +0.208 A 
ATOM     13  N   UNL     1      -1.923  -1.154  25.577  0.00  0.00    -0.056 NA
ATOM     14  O   UNL     1      -1.272  -0.648  25.562  0.00  0.00    -0.336 OA
ATOM     15  C   UNL     1      -1.204  -0.343  24.799  0.00  0.00    +0.251 A 
ATOM     16  N   UNL     1      -1.813  -0.661  24.341  0.00  0.00    -0.189 NA
ENDROOT
BRANCH  12   7
ATOM      6  C   UNL     1      -3.661  -1.235  24.566  0.00  0.00    +0.228 A 
ATOM      7  C   UNL     1      -2.920  -1.596  24.589  0.00  0.00    +0.092 A 
ATOM      8  C   UNL     1      -2.840  -2.390  24.381  0.00  0.00    +0.009 A 
ATOM      9  C   UNL     1      -3.502  -2.823  24.148  0.00  0.00    +0.021 A 
ATOM     10  C   UNL     1      -4.244  -2.463  24.124  0.00  0.00    +0.102 A 
ATOM     11  N   UNL     1      -4.323  -1.668  24.333  0.00  0.00    -0.210 NA
BRANCH   6   5
ATOM      5  O   UNL     1      -3.741  -0.441  24.774  0.00  0.00    -0.457 OA
BRANCH   5   4
ATOM      4  C   UNL     1      -4.464  -0.057  24.672  0.00  0.00    +0.239 C 
BRANCH   4   3
ATOM      3  C   UNL     1      -4.628   0.633  25.092  0.00  0.00    +0.189 C 
BRANCH   3   2
ATOM      1  C   UNL     1      -5.287   1.899  25.161  0.00  0.00    +0.174 C 
ATOM      2  O   UNL     1      -5.004   1.265  24.717  0.00  0.00    -0.347 OA
ENDBRANCH   3   2
ENDBRANCH   4   3
ENDBRANCH   5   4
ENDBRANCH   6   5
ENDBRANCH  12   7
BRANCH  15  17
ATOM     17  C   UNL     1      -0.628   0.187  24.538  0.00  0.00    +0.138 C 
ATOM     18  C   UNL     1      -0.021   0.020  24.004  0.00  0.00    +0.027 C 
ATOM     19  C   UNL     1       0.424   0.707  23.901  0.00  0.00    +0.019 C 
ATOM     20  C   UNL     1       0.093   1.299  24.370  0.00  0.00    +0.073 C 
ATOM     21  N   UNL     1      -0.558   0.978  24.764  0.00  0.00    -0.263 NA
BRANCH  21  22
ATOM     22  C   UNL     1      -1.051   1.377  25.291  0.00  0.00    +0.099 C 
BRANCH  22  23
ATOM     23  C   UNL     1      -1.122   2.197  25.249  0.00  0.00    -0.006 A 
ATOM     24  C   UNL     1      -1.660   2.538  24.723  0.00  0.00    -0.002 A 
ATOM     25  C   UNL     1      -1.731   3.359  24.681  0.00  0.00    +0.018 A 
ATOM     26  C   UNL     1      -1.265   3.839  25.163  0.00  0.00    +0.106 A 
ATOM     27  C   UNL     1      -0.728   3.499  25.689  0.00  0.00    +0.018 A 
ATOM     28  C   UNL     1      -0.657   2.677  25.731  0.00  0.00    -0.002 A 
BRANCH  26  29
ATOM     29  S   UNL     1      -1.337   4.660  25.121  0.00  0.00    +0.010 S 
ATOM     30  C   UNL     1      -1.408   5.480  25.079  0.00  0.00    +0.182 C 
ATOM     31  O   UNL     1      -2.045   4.620  25.543  0.00  0.00    -0.169 OA
ATOM     32  O   UNL     1      -0.629   4.700  24.699  0.00  0.00    -0.169 OA
ENDBRANCH  26  29
ENDBRANCH  22  23
ENDBRANCH  21  22
ENDBRANCH  15  17
TORSDOF 9
ENDMDL
MODEL 4
REMARK VINA RESULT:     -10.1      1.972      4.954
REMARK  Name = 
REMARK  9 active torsions:
REMARK  status: ('A' for Active; 'I' for Inactive)
REMARK    1  A    between atoms: O_2  and  C_3
REMARK    2  A    between atoms: C_3  and  C_4
REMARK    3  A    between atoms: C_4  and  O_5
REMARK    4  A    between atoms: O_5  and  C_6
REMARK    5  A    between atoms: C_7  and  C_12
REMARK    6  A    between atoms: C_15  and  C_17
REMARK    7  A    between atoms: N_21  and  C_22
REMARK    8  A    between atoms: C_22  and  C_23
REMARK    9  A    between atoms: C_26  and  S_29
REMARK                            x       y       z     vdW  Elec       q    Type
REMARK                         _______ _______ _______ _____ _____    ______ ____
ROOT
ATOM     12  C   UNL     1      -3.885  -0.828  24.913  0.00  0.00    +0.208 A 
ATOM     13  N   UNL     1      -3.954  -0.672  25.721  0.00  0.00    -0.056 NA
ATOM     14  O   UNL     1      -4.165   0.121  25.810  0.00  0.00    -0.336 OA
ATOM     15  C   UNL     1      -4.225   0.454  25.058  0.00  0.00    +0.251 A 
ATOM     16  N   UNL     1      -4.053  -0.133  24.504  0.00  0.00    -0.189 NA
ENDROOT
BRANCH  12   7
ATOM      6  C   UNL     1      -2.891  -1.777  24.522  0.00  0.00    +0.228 A 
ATOM      7  C   UNL     1      -3.684  -1.554  24.575  0.00  0.00    +0.092 A 
ATOM      8  C   UNL     1      -4.274  -2.054  24.291  0.00  0.00    +0.009 A 
ATOM      9  C   UNL     1      -4.073  -2.779  23.954  0.00  0.00    +0.021 A 
ATOM     10  C   UNL     1      -3.281  -3.004  23.900  0.00  0.00    +0.102 A 
ATOM     11  N   UNL     1      -2.690  -2.503  24.184  0.00  0.00    -0.210 NA
BRANCH   6   5
ATOM      5  O   UNL     1      -2.301  -1.277  24.806  0.00  0.00    -0.457 OA
BRANCH   5   4
ATOM      4  C   UNL     1      -1.507  -1.449  24.659  0.00  0.00    +0.239 C 
BRANCH   4   3
ATOM      3  C   UNL     1      -0.923  -0.903  24.858  0.00  0.00    +0.189 C 
BRANCH   3   2
ATOM      1  C   UNL     1       0.032  -0.094  24.168  0.00  0.00    +0.174 C 
ATOM      2  O   UNL     1      -0.244  -0.837  24.393  0.00  0.00    -0.347 OA
ENDBRANCH   3   2
ENDBRANCH   4   3
ENDBRANCH   5   4
ENDBRANCH   6   5
ENDBRANCH  12   7
BRANCH  15  17
ATOM     17  C   UNL     1      -4.424   1.237  24.889  0.00  0.00    +0.138 C 
ATOM     18  C   UNL     1      -5.178   1.516  24.701  0.00  0.00    +0.027 C 
ATOM     19  C   UNL     1      -5.123   2.330  24.574  0.00  0.00    +0.019 C 
ATOM     20  C   UNL     1      -4.337   2.553  24.683  0.00  0.00    +0.073 C 
ATOM     21  N   UNL     1      -3.904   1.878  24.877  0.00  0.00    -0.263 NA
BRANCH  21  22
ATOM     22  C   UNL     1      -3.095   1.849  25.033  0.00  0.00    +0.099 C 
BRANCH  22  23
ATOM     23  C   UNL     1      -2.649   2.542  25.026  0.00  0.00    -0.006 A 
ATOM     24  C   UNL     1      -2.276   2.786  24.331  0.00  0.00    -0.002 A 
ATOM     25  C   UNL     1      -1.830   3.479  24.324  0.00  0.00    +0.018 A 
ATOM     26  C   UNL     1      -1.754   3.928  25.011  0.00  0.00    +0.106 A 
ATOM     27  C   UNL     1      -2.126   3.685  25.706  0.00  0.00    +0.018 A 
ATOM     28  C   UNL     1      -2.573   2.991  25.713  0.00  0.00    -0.002 A 
BRANCH  26  29
ATOM     29  S   UNL     1      -1.307   4.622  25.004  0.00  0.00    +0.010 S 
ATOM     30  C   UNL     1      -0.861   5.315  24.997  0.00  0.00    +0.182 C 
ATOM     31  O   UNL     1      -0.617   4.177  24.923  0.00  0.00    -0.169 OA
ATOM     32  O   UNL     1      -1.997   5.067  25.085  0.00  0.00    -0.169 OA
ENDBRANCH  26  29
ENDBRANCH  22  23
ENDBRANCH  21  22
ENDBRANCH  15  17
TORSDOF 9
ENDMDL
MODEL 5
REMARK VINA RESULT:      -9.0      2.055      4.592
REMARK  Name = 
REMARK  9 active torsions:
REMARK  status: ('A' for Active; 'I' for Inactive)
REMARK    1  A    between atoms: O_2  and  C_3
REMARK    2  A    between atoms: C_3  and  C_4
REMARK    3  A    between atoms: C_4  and  O_5
REMARK    4  A    between atoms: O_5  and  C_6
REMARK    5  A    between atoms: C_7  and  C_12
REMARK    6  A    between atoms: C_15  and  C_17
REMARK    7  A    between atoms: N_21  and  C_22
REMARK    8  A    between atoms: C_22  and  C_23
REMARK    9  A    between atoms: C_26  and  S_29
REMARK                            x       y       z     vdW  Elec       q    Type
REMARK                         _______ _______ _______ _____ _____    ______ ____
ROOT
ATOM     12  C   UNL     1       0.134   1.828  24.617  0.00  0.00    +0.208 A 
ATOM     13  N   UNL     1       0.389   1.965  25.390  0.00  0.00    -0.056 NA
ATOM     14  O   UNL     1       0.077   2.689  25.636  0.00  0.00    -0.336 OA
ATOM     15  C   UNL     1      -0.370   2.999  25.015  0.00  0.00    +0.251 A 
ATOM     16  N   UNL     1      -0.334   2.466  24.386  0.00  0.00    -0.189 NA
ENDROOT
BRANCH  12   7
ATOM      6  C   UNL     1      -0.126   0.475  24.236  0.00  0.00    +0.228 A 
ATOM      7  C   UNL     1       0.316   1.168  24.157  0.00  0.00    +0.092 A 
ATOM      8  C   UNL     1       0.939   1.200  23.618  0.00  0.00    +0.009 A 
ATOM      9  C   UNL     1       1.121   0.540  23.157  0.00  0.00    +0.021 A 
ATOM     10  C   UNL     1       0.680  -0.152  23.236  0.00  0.00    +0.102 A 
ATOM     11  N   UNL     1       0.056  -0.185  23.776  0.00  0.00    -0.210 NA
BRANCH   6   5
ATOM      5  O   UNL     1      -0.749   0.443  24.775  0.00  0.00    -0.457 OA
BRANCH   5   4
ATOM      4  C   UNL     1      -1.251  -0.212  24.788  0.00  0.00    +0.239 C 
BRANCH   4   3
ATOM      3  C   UNL     1      -1.761  -0.329  25.425  0.00  0.00    +0.189 C 
BRANCH   3   2
ATOM      1  C   UNL     1      -2.993  -0.983  25.737  0.00  0.00    +0.174 C 
ATOM      2  O   UNL     1      -2.569  -0.432  25.293  0.00  0.00    -0.347 OA
ENDBRANCH   3   2
ENDBRANCH   4   3
ENDBRANCH   5   4
ENDBRANCH   6   5
ENDBRANCH  12   7
BRANCH  15  17
ATOM     17  C   UNL     1      -0.779   3.714  25.023  0.00  0.00    +0.138 C 
ATOM     18  C   UNL     1      -0.515   4.428  24.703  0.00  0.00    +0.027 C 
ATOM     19  C   UNL     1      -1.098   4.997  24.833  0.00  0.00    +0.019 C 
ATOM     20  C   UNL     1      -1.722   4.636  25.233  0.00  0.00    +0.073 C 
ATOM     21  N   UNL     1      -1.525   3.843  25.350  0.00  0.00    -0.263 NA
BRANCH  21  22
ATOM     22  C   UNL     1      -1.993   3.278  25.729  0.00  0.00    +0.099 C 
BRANCH  22  23
ATOM     23  C   UNL     1      -2.815   3.328  25.688  0.00  0.00    -0.006 A 
ATOM     24  C   UNL     1      -3.223   2.931  25.091  0.00  0.00    -0.002 A 
ATOM     25  C   UNL     1      -4.045   2.981  25.050  0.00  0.00    +0.018 A 
ATOM     26  C   UNL     1      -4.460   3.428  25.605  0.00  0.00    +0.106 A 
ATOM     27  C   UNL     1      -4.052   3.826  26.202  0.00  0.00    +0.018 A 
ATOM     28  C   UNL     1      -3.229   3.776  26.243  0.00  0.00    -0.002 A 
BRANCH  26  29
ATOM     29  S   UNL     1      -5.283   3.478  25.564  0.00  0.00    +0.010 S 
ATOM     30  C   UNL     1      -6.105   3.528  25.523  0.00  0.00    +0.182 C 
ATOM     31  O   UNL     1      -5.339   2.667  25.705  0.00  0.00    -0.169 OA
ATOM     32  O   UNL     1      -5.226   4.289  25.424  0.00  0.00    -0.169 OA
ENDBRANCH  26  29
ENDBRANCH  22  23
ENDBRANCH  21  22
ENDBRANCH  15  17
TORSDOF 9
ENDMDL
MODEL 6
REMARK VINA RESULT:      -8.6      1.999      4.013
REMARK  Name = 
REMARK  9 active torsions:
REMARK  status: ('A' for Active; 'I' for Inactive)
REMARK    1  A    between atoms: O_2  and  C_3
REMARK    2  A    between atoms: C_3  and  C_4
REMARK    3  A    between atoms: C_4  and  O_5
REMARK    4  A    between atoms: O_5  and  C_6
REMARK    5  A    between atoms: C_7  and  C_12
REMARK    6  A    between atoms: C_15  and  C_17
REMARK    7  A    between atoms: N_21  and  C_22
REMARK    8  A    between atoms: C_22  and  C_23
REMARK    9  A    between atoms: C_26  and  S_29
REMARK                            x       y       z     vdW  Elec       q    Type
REMARK                         _______ _______ _______ _____ _____    ______ ____
ROOT
ATOM     12  C   UNL     1      -0.624  -0.632  24.309  0.00  0.00    +0.208 A 
ATOM     13  N   UNL     1      -0.577  -0.997  25.048  0.00  0.00    -0.056 NA
ATOM     14  O   UNL     1      -1.323  -1.298  25.232  0.00  0.00    -0.336 OA
ATOM     15  C   UNL     1      -1.831  -1.118  24.607  0.00  0.00    +0.251 A 
ATOM     16  N   UNL     1      -1.399  -0.707  24.037  0.00  0.00    -0.189 NA
ENDROOT
BRANCH  12   7
ATOM      6  C   UNL     1       0.184   0.526  24.090  0.00  0.00    +0.228 A 
ATOM      7  C   UNL     1      -0.005  -0.258  23.913  0.00  0.00    +0.092 A 
ATOM      8  C   UNL     1       0.425  -0.667  23.341  0.00  0.00    +0.009 A 
ATOM      9  C   UNL     1       1.045  -0.292  22.945  0.00  0.00    +0.021 A 
ATOM     10  C   UNL     1       1.234   0.491  23.121  0.00  0.00    +0.102 A 
ATOM     11  N   UNL     1       0.803   0.900  23.694  0.00  0.00    -0.210 NA
BRANCH   6   5
ATOM      5  O   UNL     1      -0.246   0.935  24.662  0.00  0.00    -0.457 OA
BRANCH   5   4
ATOM      4  C   UNL     1      -0.120   1.743  24.775  0.00  0.00    +0.239 C 
BRANCH   4   3
ATOM      3  C   UNL     1      -0.475   2.131  25.410  0.00  0.00    +0.189 C 
BRANCH   3   2
ATOM      1  C   UNL     1      -1.234   3.228  25.922  0.00  0.00    +0.174 C 
ATOM      2  O   UNL     1      -0.875   2.842  25.288  0.00  0.00    -0.347 OA
ENDBRANCH   3   2
ENDBRANCH   4   3
ENDBRANCH   5   4
ENDBRANCH   6   5
ENDBRANCH  12   7
BRANCH  15  17
ATOM     17  C   UNL     1      -2.631  -1.315  24.560  0.00  0.00    +0.138 C 
ATOM     18  C   UNL     1      -2.940  -2.015  24.250  0.00  0.00    +0.027 C 
ATOM     19  C   UNL     1      -3.763  -1.979  24.313  0.00  0.00    +0.019 C 
ATOM     20  C   UNL     1      -3.961  -1.259  24.662  0.00  0.00    +0.073 C 
ATOM     21  N   UNL     1      -3.261  -0.848  24.815  0.00  0.00    -0.263 NA
BRANCH  21  22
ATOM     22  C   UNL     1      -3.203  -0.102  25.161  0.00  0.00    +0.099 C 
BRANCH  22  23
ATOM     23  C   UNL     1      -3.844   0.417  25.133  0.00  0.00    -0.006 A 
ATOM     24  C   UNL     1      -3.870   1.010  24.559  0.00  0.00    -0.002 A 
ATOM     25  C   UNL     1      -4.510   1.529  24.531  0.00  0.00    +0.018 A 
ATOM     26  C   UNL     1      -5.124   1.456  25.076  0.00  0.00    +0.106 A 
ATOM     27  C   UNL     1      -5.099   0.863  25.650  0.00  0.00    +0.018 A 
ATOM     28  C   UNL     1      -4.458   0.344  25.678  0.00  0.00    -0.002 A 
BRANCH  26  29
ATOM     29  S   UNL     1      -5.765   1.975  25.048  0.00  0.00    +0.010 S 
ATOM     30  C   UNL     1      -6.406   2.494  25.020  0.00  0.00    +0.182 C 
ATOM     31  O   UNL     1      -5.327   2.539  25.462  0.00  0.00    -0.169 OA
ATOM     32  O   UNL     1      -6.204   1.412  24.635  0.00  0.00    -0.169 OA
ENDBRANCH  26  29
ENDBRANCH  22  23
ENDBRANCH  21  22
ENDBRANCH  15  17
TORSDOF 9
ENDMDL
MODEL 7
REMARK VINA RESULT:      -8.6      1.400      4.045
REMARK  Name = 
REMARK  9 active torsions:
REMARK  status: ('A' for Active; 'I' for Inactive)
REMARK    1  A    between atoms: O_2  and  C_3
REMARK    2  A    between atoms: C_3  and  C_4
REMARK    3  A    between atoms: C_4  and  O_5
REMARK    4  A    between atoms: O_5  and  C_6
REMARK    5  A    between atoms: C_7  and  C_12
REMARK    6  A    between atoms: C_15  and  C_17
REMARK    7  A    between atoms: N_21  and  C_22
REMARK    8  A    between atoms: C_22  and  C_23
REMARK    9  A    between atoms: C_26  and  S_29
REMARK                            x       y       z     vdW  Elec       q    Type
REMARK                         _______ _______ _______ _____ _____    ______ ____
ROOT
ATOM     12  C   UNL     1      -4.191   2.960  24.927  0.00  0.00    +0.208 A 
ATOM     13  N   UNL     1      -4.083   3.203  24.146  0.00  0.00    -0.056 NA
ATOM     14  O   UNL     1      -3.289   3.405  24.049  0.00  0.00    -0.336 OA
ATOM     15  C   UNL     1      -2.906   3.286  24.770  0.00  0.00    +0.251 A 
ATOM     16  N   UNL     1      -3.463   3.011  25.313  0.00  0.00    -0.189 NA
ENDROOT
BRANCH  12   7
ATOM      6  C   UNL     1      -5.121   1.915  25.220  0.00  0.00    +0.228 A 
ATOM      7  C   UNL     1      -4.901   2.709  25.264  0.00  0.00    +0.092 A 
ATOM      8  C   UNL     1      -5.391   3.253  25.643  0.00  0.00    +0.009 A 
ATOM      9  C   UNL     1      -6.102   3.002  25.980  0.00  0.00    +0.021 A 
ATOM     10  C   UNL     1      -6.322   2.208  25.936  0.00  0.00    +0.102 A 
ATOM     11  N   UNL     1      -5.831   1.665  25.556  0.00  0.00    -0.210 NA
BRANCH   6   5
ATOM      5  O   UNL     1      -4.631   1.372  24.840  0.00  0.00    -0.457 OA
BRANCH   5   4
ATOM      4  C   UNL     1      -4.773   0.562  24.917  0.00  0.00    +0.239 C 
BRANCH   4   3
ATOM      3  C   UNL     1      -4.388   0.027  24.422  0.00  0.00    +0.189 C 
BRANCH   3   2
ATOM      1  C   UNL     1      -3.860  -1.283  24.203  0.00  0.00    +0.174 C 
ATOM      2  O   UNL     1      -4.134  -0.700  24.718  0.00  0.00    -0.347 OA
ENDBRANCH   3   2
ENDBRANCH   4   3
ENDBRANCH   5   4
ENDBRANCH   6   5
ENDBRANCH  12   7
BRANCH  15  17
ATOM     17  C   UNL     1      -2.106   3.419  24.922  0.00  0.00    +0.138 C 
ATOM     18  C   UNL     1      -1.753   4.153  25.051  0.00  0.00    +0.027 C 
ATOM     19  C   UNL     1      -0.947   4.029  25.181  0.00  0.00    +0.019 C 
ATOM     20  C   UNL     1      -0.803   3.218  25.131  0.00  0.00    +0.073 C 
ATOM     21  N   UNL     1      -1.519   2.841  24.971  0.00  0.00    -0.263 NA
BRANCH  21  22
ATOM     22  C   UNL     1      -1.629   2.029  24.877  0.00  0.00    +0.099 C 
BRANCH  22  23
ATOM     23  C   UNL     1      -1.048   1.574  24.509  0.00  0.00    -0.006 A 
ATOM     24  C   UNL     1      -1.052   1.484  23.689  0.00  0.00    -0.002 A 
ATOM     25  C   UNL     1      -0.471   1.030  23.320  0.00  0.00    +0.018 A 
ATOM     26  C   UNL     1       0.114   0.664  23.772  0.00  0.00    +0.106 A 
ATOM     27  C   UNL     1       0.119   0.753  24.592  0.00  0.00    +0.018 A 
ATOM     28  C   UNL     1      -0.462   1.209  24.960  0.00  0.00    -0.002 A 
BRANCH  26  29
ATOM     29  S   UNL     1       0.696   0.208  23.403  0.00  0.00    +0.010 S 
ATOM     30  C   UNL     1       1.277  -0.246  23.035  0.00  0.00    +0.182 C 
ATOM     31  O   UNL     1       0.219  -0.461  23.480  0.00  0.00    -0.169 OA
ATOM     32  O   UNL     1       1.171   0.878  23.327  0.00  0.00    -0.169 OA
ENDBRANCH  26  29
ENDBRANCH  22  23
ENDBRANCH  21  22
ENDBRANCH  15  17
TORSDOF 9
ENDMDL
MODEL 8
REMARK VINA RESULT:      -8.5      1.833      3.741
REMARK  Name = 
REMARK  9 active torsions:
REMARK  status: ('A' for Active; 'I' for Inactive)
REMARK    1  A    between atoms: O_2  and  C_3
REMARK    2  A    between atoms: C_3  and  C_4
REMARK    3  A    between atoms: C_4  and  O_5
REMARK    4  A    between atoms: O_5  and  C_6
REMARK    5  A    between atoms: C_7  and  C_12
REMARK    6  A    between atoms: C_15  and  C_17
REMARK    7  A    between atoms: N_21  and  C_22
REMARK    8  A    between atoms: C_22  and  C_23
REMARK    9  A    between atoms: C_26  and  S_29
REMARK                            x       y       z     vdW  Elec       q    Type
REMARK                         _______ _______ _______ _____ _____    ______ ____
ROOT
ATOM     12  C   UNL     1      -4.352   1.747  24.662  0.00  0.00    +0.208 A 
ATOM     13  N   UNL     1      -4.205   1.737  23.850  0.00  0.00    -0.056 NA
ATOM     14  O   UNL     1      -3.788   1.046  23.675  0.00  0.00    -0.336 OA
ATOM     15  C   UNL     1      -3.679   0.630  24.379  0.00  0.00    +0.251 A 
ATOM     16  N   UNL     1      -4.028   1.063  24.989  0.00  0.00    -0.189 NA
ENDROOT
BRANCH  12   7
ATOM      6  C   UNL     1      -4.366   3.039  25.274  0.00  0.00    +0.228 A 
ATOM      7  C   UNL     1      -4.754   2.338  25.074  0.00  0.00    +0.092 A 
ATOM      8  C   UNL     1      -5.543   2.229  25.287  0.00  0.00    +0.009 A 
ATOM      9  C   UNL     1      -5.945   2.820  25.699  0.00  0.00    +0.021 A 
ATOM     10  C   UNL     1      -5.558   3.520  25.899  0.00  0.00    +0.102 A 
ATOM     11  N   UNL     1      -4.768   3.630  25.686  0.00  0.00    -0.210 NA
BRANCH   6   5
ATOM      5  O   UNL     1      -3.577   3.148  25.061  0.00  0.00    -0.457 OA
BRANCH   5   4
ATOM      4  C   UNL     1      -3.168   3.816  25.321  0.00  0.00    +0.239 C 
BRANCH   4   3
ATOM      3  C   UNL     1      -2.411   3.974  25.036  0.00  0.00    +0.189 C 
BRANCH   3   2
ATOM      1  C   UNL     1      -1.212   4.748  25.102  0.00  0.00    +0.174 C 
ATOM      2  O   UNL     1      -1.911   4.484  25.449  0.00  0.00    -0.347 OA
ENDBRANCH   3   2
ENDBRANCH   4   3
ENDBRANCH   5   4
ENDBRANCH   6   5
ENDBRANCH  12   7
BRANCH  15  17
ATOM     17  C   UNL     1      -3.290  -0.093  24.459  0.00  0.00    +0.138 C 
ATOM     18  C   UNL     1      -3.640  -0.839  24.421  0.00  0.00    +0.027 C 
ATOM     19  C   UNL     1      -3.048  -1.404  24.530  0.00  0.00    +0.019 C 
ATOM     20  C   UNL     1      -2.333  -1.007  24.636  0.00  0.00    +0.073 C 
ATOM     21  N   UNL     1      -2.482  -0.197  24.593  0.00  0.00    -0.263 NA
BRANCH  21  22
ATOM     22  C   UNL     1      -1.922   0.404  24.669  0.00  0.00    +0.099 C 
BRANCH  22  23
ATOM     23  C   UNL     1      -1.187   0.332  24.302  0.00  0.00    -0.006 A 
ATOM     24  C   UNL     1      -1.004   0.802  23.649  0.00  0.00    -0.002 A 
ATOM     25  C   UNL     1      -0.269   0.730  23.283  0.00  0.00    +0.018 A 
ATOM     26  C   UNL     1       0.283   0.188  23.568  0.00  0.00    +0.106 A 
ATOM     27  C   UNL     1       0.101  -0.282  24.221  0.00  0.00    +0.018 A 
ATOM     28  C   UNL     1      -0.635  -0.210  24.588  0.00  0.00    -0.002 A 
BRANCH  26  29
ATOM     29  S   UNL     1       1.019   0.116  23.201  0.00  0.00    +0.010 S 
ATOM     30  C   UNL     1       1.754   0.043  22.834  0.00  0.00    +0.182 C 
ATOM     31  O   UNL     1       1.280   0.796  23.589  0.00  0.00    -0.169 OA
ATOM     32  O   UNL     1       0.759  -0.564  22.813  0.00  0.00    -0.169 OA
ENDBRANCH  26  29
ENDBRANCH  22  23
ENDBRANCH  21  22
ENDBRANCH  15  17
TORSDOF 9
ENDMDL
