MODEL 1
REMARK VINA RESULT:      -7.6      0.000      0.000
REMARK  Name = 
REMARK  11 active torsions:
REMARK  status: ('A' for Active; 'I' for Inactive)
REMARK    1  A    between atoms: O_2  and  C_3
REMARK    2  A    between atoms: C_3  and  C_4
REMARK    3  A    between atoms: C_4  and  N_5
REMARK    4  A    between atoms: C_6  and  C_8
REMARK    5  A    between atoms: C_8  and  C_9
REMARK    6  A    between atoms: C_11  and  C_12
REMARK    7  A    between atoms: C_15  and  C_16
REMARK    8  A    between atoms: C_16  and  N_17
REMARK    9  A    between atoms: N_17  and  S_18
REMARK   10  A    between atoms: S_18  and  C_21
REMARK   11  A    between atoms: C_24  and  O_25
REMARK                            x       y       z     vdW  Elec       q    Type
REMARK                         _______ _______ _______ _____ _____    ______ ____
ROOT
ATOM      9  C   UNL     1      -0.201   0.088  24.001  0.00  0.00    +0.027 C 
ATOM     10  C   UNL     1      -0.077   0.893  24.133  0.00  0.00    +0.005 C 
ATOM     11  C   UNL     1      -0.709   1.379  24.342  0.00  0.00    +0.006 C 
ATOM     15  C   UNL     1      -1.467   1.060  24.421  0.00  0.00    +0.041 C 
ATOM     29  C   UNL     1      -1.591   0.256  24.289  0.00  0.00    -0.033 C 
ATOM     30  C   UNL     1      -0.959  -0.231  24.079  0.00  0.00    -0.048 C 
ATOM     31  C   UNL     1      -1.083  -1.035  23.948  0.00  0.00    +0.026 C 
ENDROOT
BRANCH  11  12
ATOM     12  C   UNL     1      -0.585   2.184  24.474  0.00  0.00    +0.000 C 
ATOM     13  C   UNL     1      -0.667   2.722  23.854  0.00  0.00    +0.000 C 
ATOM     14  C   UNL     1      -0.379   2.452  25.227  0.00  0.00    +0.000 C 
ENDBRANCH  11  12
BRANCH   9   8
ATOM      8  C   UNL     1       0.431  -0.398  23.791  0.00  0.00    +0.091 C 
BRANCH   8   6
ATOM      5  N   UNL     1       1.728  -0.080  23.282  0.00  0.00    -0.203 NA
ATOM      6  C   UNL     1       0.920  -0.191  23.160  0.00  0.00    +0.242 C 
ATOM      7  O   UNL     1       0.600  -0.095  22.405  0.00  0.00    -0.273 OA
BRANCH   5   4
ATOM      4  C   UNL     1       2.217   0.127  22.651  0.00  0.00    +0.147 C 
BRANCH   4   3
ATOM      3  C   UNL     1       3.036   0.087  22.733  0.00  0.00    +0.166 C 
BRANCH   3   2
ATOM      1  C   UNL     1       4.303   0.747  22.722  0.00  0.00    +0.174 C 
ATOM      2  O   UNL     1       3.505   0.730  22.516  0.00  0.00    -0.349 OA
ENDBRANCH   3   2
ENDBRANCH   4   3
ENDBRANCH   5   4
ENDBRANCH   8   6
ENDBRANCH   9   8
BRANCH  15  16
ATOM     16  C   UNL     1      -2.099   1.547  24.630  0.00  0.00    +0.120 C 
BRANCH  16  17
ATOM     17  N   UNL     1      -2.873   1.270  24.567  0.00  0.00    -0.077 NA
BRANCH  17  18
ATOM     18  S   UNL     1      -3.504   1.750  24.796  0.00  0.00    +0.077 S 
ATOM     19  O   UNL     1      -3.377   1.539  25.583  0.00  0.00    -0.152 OA
ATOM     20  O   UNL     1      -3.630   1.960  24.008  0.00  0.00    -0.152 OA
BRANCH  18  21
ATOM     21  C   UNL     1      -4.135   2.229  25.025  0.00  0.00    +0.124 A 
ATOM     22  C   UNL     1      -4.013   3.031  25.167  0.00  0.00    +0.023 A 
ATOM     23  C   UNL     1      -4.643   3.511  25.396  0.00  0.00    +0.038 A 
ATOM     24  C   UNL     1      -5.397   3.187  25.484  0.00  0.00    +0.139 A 
ATOM     27  C   UNL     1      -5.520   2.383  25.341  0.00  0.00    +0.038 A 
ATOM     28  C   UNL     1      -4.888   1.905  25.112  0.00  0.00    +0.023 A 
BRANCH  24  25
ATOM     25  O   UNL     1      -6.029   3.667  25.713  0.00  0.00    -0.471 OA
ATOM     26  C   UNL     1      -5.985   4.484  25.609  0.00  0.00    +0.252 C 
ENDBRANCH  24  25
ENDBRANCH  18  21
ENDBRANCH  17  18
ENDBRANCH  16  17
ENDBRANCH  15  16
TORSDOF 11
ENDMDL
MODEL 2
REMARK VINA RESULT:      -7.2      3.092      5.186
REMARK  Name = 
REMARK  11 active torsions:
REMARK  status: ('A' for Active; 'I' for Inactive)
REMARK    1  A    between atoms: O_2  and  C_3
REMARK    2  A    between atoms: C_3  and  C_4
REMARK    3  A    between atoms: C_4  and  N_5
REMARK    4  A    between atoms: C_6  and  C_8
REMARK    5  A    between atoms: C_8  and  C_9
REMARK    6  A    between atoms: C_11  and  C_12
REMARK    7  A    between atoms: C_15  and  C_16
REMARK    8  A    between atoms: C_16  and  N_17
REMARK    9  A    between atoms: N_17  and  S_18
REMARK   10  A    between atoms: S_18  and  C_21
REMARK   11  A    between atoms: C_24  and  O_25
REMARK                            x       y       z     vdW  Elec       q    Type
REMARK                         _______ _______ _______ _____ _____    ______ ____
ROOT
ATOM      9  C   UNL     1      -3.878   3.238  24.961  0.00  0.00    +0.027 C 
ATOM     10  C   UNL     1      -3.299   2.954  24.447  0.00  0.00    +0.005 C 
ATOM     11  C   UNL     1      -3.311   2.165  24.208  0.00  0.00    +0.006 C 
ATOM     15  C   UNL     1      -3.903   1.659  24.483  0.00  0.00    +0.041 C 
ATOM     29  C   UNL     1      -4.482   1.943  24.997  0.00  0.00    -0.033 C 
ATOM     30  C   UNL     1      -4.470   2.733  25.237  0.00  0.00    -0.048 C 
ATOM     31  C   UNL     1      -5.049   3.017  25.750  0.00  0.00    +0.026 C 
ENDROOT
BRANCH  11  12
ATOM     12  C   UNL     1      -2.732   1.880  23.694  0.00  0.00    +0.000 C 
ATOM     13  C   UNL     1      -2.866   1.879  22.880  0.00  0.00    +0.000 C 
ATOM     14  C   UNL     1      -2.018   1.596  23.994  0.00  0.00    +0.000 C 
ENDBRANCH  11  12
BRANCH   9   8
ATOM      8  C   UNL     1      -3.866   4.027  25.201  0.00  0.00    +0.091 C 
BRANCH   8   6
ATOM      5  N   UNL     1      -2.655   4.780  25.100  0.00  0.00    -0.203 NA
ATOM      6  C   UNL     1      -3.189   4.343  25.551  0.00  0.00    +0.242 C 
ATOM      7  O   UNL     1      -3.046   4.220  26.356  0.00  0.00    -0.273 OA
BRANCH   5   4
ATOM      4  C   UNL     1      -1.978   5.095  25.450  0.00  0.00    +0.147 C 
BRANCH   4   3
ATOM      3  C   UNL     1      -1.387   5.427  24.982  0.00  0.00    +0.166 C 
BRANCH   3   2
ATOM      1  C   UNL     1      -0.222   4.965  24.296  0.00  0.00    +0.174 C 
ATOM      2  O   UNL     1      -0.622   5.119  25.000  0.00  0.00    -0.349 OA
ENDBRANCH   3   2
ENDBRANCH   4   3
ENDBRANCH   5   4
ENDBRANCH   8   6
ENDBRANCH   9   8
BRANCH  15  16
ATOM     16  C   UNL     1      -3.915   0.869  24.243  0.00  0.00    +0.120 C 
BRANCH  16  17
ATOM     17  N   UNL     1      -4.344   0.313  24.675  0.00  0.00    -0.077 NA
BRANCH  17  18
ATOM     18  S   UNL     1      -4.176  -0.491  24.594  0.00  0.00    +0.077 S 
ATOM     19  O   UNL     1      -3.814  -0.488  25.335  0.00  0.00    -0.152 OA
ATOM     20  O   UNL     1      -4.539  -0.492  23.853  0.00  0.00    -0.152 OA
BRANCH  18  21
ATOM     21  C   UNL     1      -4.009  -1.294  24.515  0.00  0.00    +0.124 A 
ATOM     22  C   UNL     1      -4.344  -1.726  23.898  0.00  0.00    +0.023 A 
ATOM     23  C   UNL     1      -4.177  -2.530  23.818  0.00  0.00    +0.038 A 
ATOM     24  C   UNL     1      -3.673  -2.902  24.355  0.00  0.00    +0.139 A 
ATOM     27  C   UNL     1      -3.337  -2.469  24.973  0.00  0.00    +0.038 A 
ATOM     28  C   UNL     1      -3.505  -1.666  25.052  0.00  0.00    +0.023 A 
BRANCH  24  25
ATOM     25  O   UNL     1      -3.505  -3.706  24.276  0.00  0.00    -0.471 OA
ATOM     26  C   UNL     1      -2.826  -3.947  23.873  0.00  0.00    +0.252 C 
ENDBRANCH  24  25
ENDBRANCH  18  21
ENDBRANCH  17  18
ENDBRANCH  16  17
ENDBRANCH  15  16
TORSDOF 11
ENDMDL
MODEL 3
REMARK VINA RESULT:      -7.1      1.478      6.218
REMARK  Name = 
REMARK  11 active torsions:
REMARK  status: ('A' for Active; 'I' for Inactive)
REMARK    1  A    between atoms: O_2  and  C_3
REMARK    2  A    between atoms: C_3  and  C_4
REMARK    3  A    between atoms: C_4  and  N_5
REMARK    4  A    between atoms: C_6  and  C_8
REMARK    5  A    between atoms: C_8  and  C_9
REMARK    6  A    between atoms: C_11  and  C_12
REMARK    7  A    between atoms: C_15  and  C_16
REMARK    8  A    between atoms: C_16  and  N_17
REMARK    9  A    between atoms: N_17  and  S_18
REMARK   10  A    between atoms: S_18  and  C_21
REMARK   11  A    between atoms: C_24  and  O_25
REMARK                            x       y       z     vdW  Elec       q    Type
REMARK                         _______ _______ _______ _____ _____    ______ ____
ROOT
ATOM      9  C   UNL     1      -3.363   0.307  24.844  0.00  0.00    +0.027 C 
ATOM     10  C   UNL     1      -3.217   0.946  24.343  0.00  0.00    +0.005 C 
ATOM     11  C   UNL     1      -2.466   1.056  24.021  0.00  0.00    +0.006 C 
ATOM     15  C   UNL     1      -1.859   0.525  24.200  0.00  0.00    +0.041 C 
ATOM     29  C   UNL     1      -2.004  -0.114  24.700  0.00  0.00    -0.033 C 
ATOM     30  C   UNL     1      -2.755  -0.224  25.023  0.00  0.00    -0.048 C 
ATOM     31  C   UNL     1      -2.900  -0.863  25.523  0.00  0.00    +0.026 C 
ENDROOT
BRANCH  11  12
ATOM     12  C   UNL     1      -2.321   1.696  23.520  0.00  0.00    +0.000 C 
ATOM     13  C   UNL     1      -2.045   2.408  23.830  0.00  0.00    +0.000 C 
ATOM     14  C   UNL     1      -2.452   1.622  22.709  0.00  0.00    +0.000 C 
ENDBRANCH  11  12
BRANCH   9   8
ATOM      8  C   UNL     1      -4.114   0.197  25.166  0.00  0.00    +0.091 C 
BRANCH   8   6
ATOM      5  N   UNL     1      -4.916   1.331  25.501  0.00  0.00    -0.203 NA
ATOM      6  C   UNL     1      -4.724   0.721  24.981  0.00  0.00    +0.242 C 
ATOM      7  O   UNL     1      -5.142   0.634  24.274  0.00  0.00    -0.273 OA
BRANCH   5   4
ATOM      4  C   UNL     1      -5.526   1.855  25.315  0.00  0.00    +0.147 C 
BRANCH   4   3
ATOM      3  C   UNL     1      -5.615   2.554  25.744  0.00  0.00    +0.166 C 
BRANCH   3   2
ATOM      1  C   UNL     1      -5.493   3.975  25.660  0.00  0.00    +0.174 C 
ATOM      2  O   UNL     1      -5.770   3.263  25.351  0.00  0.00    -0.349 OA
ENDBRANCH   3   2
ENDBRANCH   4   3
ENDBRANCH   5   4
ENDBRANCH   8   6
ENDBRANCH   9   8
BRANCH  15  16
ATOM     16  C   UNL     1      -1.108   0.636  23.877  0.00  0.00    +0.120 C 
BRANCH  16  17
ATOM     17  N   UNL     1      -0.499   0.109  24.057  0.00  0.00    -0.077 NA
BRANCH  17  18
ATOM     18  S   UNL     1       0.240   0.194  23.701  0.00  0.00    +0.077 S 
ATOM     19  O   UNL     1       0.043  -0.393  23.156  0.00  0.00    -0.152 OA
ATOM     20  O   UNL     1       0.436   0.781  24.246  0.00  0.00    -0.152 OA
BRANCH  18  21
ATOM     21  C   UNL     1       0.978   0.278  23.344  0.00  0.00    +0.124 A 
ATOM     22  C   UNL     1       1.221  -0.258  22.766  0.00  0.00    +0.023 A 
ATOM     23  C   UNL     1       1.960  -0.174  22.409  0.00  0.00    +0.038 A 
ATOM     24  C   UNL     1       2.456   0.447  22.630  0.00  0.00    +0.139 A 
ATOM     27  C   UNL     1       2.214   0.983  23.209  0.00  0.00    +0.038 A 
ATOM     28  C   UNL     1       1.475   0.898  23.565  0.00  0.00    +0.023 A 
BRANCH  24  25
ATOM     25  O   UNL     1       3.196   0.531  22.273  0.00  0.00    -0.471 OA
ATOM     26  C   UNL     1       3.866   0.653  22.738  0.00  0.00    +0.252 C 
ENDBRANCH  24  25
ENDBRANCH  18  21
ENDBRANCH  17  18
ENDBRANCH  16  17
ENDBRANCH  15  16
TORSDOF 11
ENDMDL
MODEL 4
REMARK VINA RESULT:      -6.6      1.617      6.417
REMARK  Name = 
REMARK  11 active torsions:
REMARK  status: ('A' for Active; 'I' for Inactive)
REMARK    1  A    between atoms: O_2  and  C_3
REMARK    2  A    between atoms: C_3  and  C_4
REMARK    3  A    between atoms: C_4  and  N_5
REMARK    4  A    between atoms: C_6  and  C_8
REMARK    5  A    between atoms: C_8  and  C_9
REMARK    6  A    between atoms: C_11  and  C_12
REMARK    7  A    between atoms: C_15  and  C_16
REMARK    8  A    between atoms: C_16  and  N_17
REMARK    9  A    between atoms: N_17  and  S_18
REMARK   10  A    between atoms: S_18  and  C_21
REMARK   11  A    between atoms: C_24  and  O_25
REMARK                            x       y       z     vdW  Elec       q    Type
REMARK                         _______ _______ _______ _____ _____    ______ ____
ROOT
ATOM      9  C   UNL     1      -2.851   3.279  24.928  0.00  0.00    +0.027 C 
ATOM     10  C   UNL     1      -3.055   2.818  24.274  0.00  0.00    +0.005 C 
ATOM     11  C   UNL     1      -2.509   2.287  23.957  0.00  0.00    +0.006 C 
ATOM     15  C   UNL     1      -1.758   2.217  24.294  0.00  0.00    +0.041 C 
ATOM     29  C   UNL     1      -1.554   2.677  24.947  0.00  0.00    -0.033 C 
ATOM     30  C   UNL     1      -2.100   3.208  25.265  0.00  0.00    -0.048 C 
ATOM     31  C   UNL     1      -1.896   3.668  25.918  0.00  0.00    +0.026 C 
ENDROOT
BRANCH  11  12
ATOM     12  C   UNL     1      -2.713   1.827  23.304  0.00  0.00    +0.000 C 
ATOM     13  C   UNL     1      -2.580   2.110  22.541  0.00  0.00    +0.000 C 
ATOM     14  C   UNL     1      -3.049   1.081  23.414  0.00  0.00    +0.000 C 
ENDBRANCH  11  12
BRANCH   9   8
ATOM      8  C   UNL     1      -3.396   3.809  25.245  0.00  0.00    +0.091 C 
BRANCH   8   6
ATOM      5  N   UNL     1      -4.621   3.244  25.718  0.00  0.00    -0.203 NA
ATOM      6  C   UNL     1      -4.205   3.676  25.152  0.00  0.00    +0.242 C 
ATOM      7  O   UNL     1      -4.599   3.975  24.490  0.00  0.00    -0.273 OA
BRANCH   5   4
ATOM      4  C   UNL     1      -5.430   3.110  25.625  0.00  0.00    +0.147 C 
BRANCH   4   3
ATOM      3  C   UNL     1      -5.845   2.677  26.190  0.00  0.00    +0.166 C 
BRANCH   3   2
ATOM      1  C   UNL     1      -6.568   1.501  26.559  0.00  0.00    +0.174 C 
ATOM      2  O   UNL     1      -6.205   1.964  25.982  0.00  0.00    -0.349 OA
ENDBRANCH   3   2
ENDBRANCH   4   3
ENDBRANCH   5   4
ENDBRANCH   8   6
ENDBRANCH   9   8
BRANCH  15  16
ATOM     16  C   UNL     1      -1.212   1.686  23.976  0.00  0.00    +0.120 C 
BRANCH  16  17
ATOM     17  N   UNL     1      -0.523   1.504  24.390  0.00  0.00    -0.077 NA
BRANCH  17  18
ATOM     18  S   UNL     1       0.121   1.171  23.996  0.00  0.00    +0.077 S 
ATOM     19  O   UNL     1      -0.206   0.421  24.098  0.00  0.00    -0.152 OA
ATOM     20  O   UNL     1       0.447   1.923  23.894  0.00  0.00    -0.152 OA
BRANCH  18  21
ATOM     21  C   UNL     1       0.764   0.838  23.602  0.00  0.00    +0.124 A 
ATOM     22  C   UNL     1       0.676   0.124  23.200  0.00  0.00    +0.023 A 
ATOM     23  C   UNL     1       1.319  -0.210  22.805  0.00  0.00    +0.038 A 
ATOM     24  C   UNL     1       2.051   0.172  22.813  0.00  0.00    +0.139 A 
ATOM     27  C   UNL     1       2.139   0.887  23.216  0.00  0.00    +0.038 A 
ATOM     28  C   UNL     1       1.495   1.220  23.610  0.00  0.00    +0.023 A 
BRANCH  24  25
ATOM     25  O   UNL     1       2.695  -0.161  22.419  0.00  0.00    -0.471 OA
ATOM     26  C   UNL     1       3.434   0.204  22.454  0.00  0.00    +0.252 C 
ENDBRANCH  24  25
ENDBRANCH  18  21
ENDBRANCH  17  18
ENDBRANCH  16  17
ENDBRANCH  15  16
TORSDOF 11
ENDMDL
MODEL 5
REMARK VINA RESULT:      -6.4      2.625      4.089
REMARK  Name = 
REMARK  11 active torsions:
REMARK  status: ('A' for Active; 'I' for Inactive)
REMARK    1  A    between atoms: O_2  and  C_3
REMARK    2  A    between atoms: C_3  and  C_4
REMARK    3  A    between atoms: C_4  and  N_5
REMARK    4  A    between atoms: C_6  and  C_8
REMARK    5  A    between atoms: C_8  and  C_9
REMARK    6  A    between atoms: C_11  and  C_12
REMARK    7  A    between atoms: C_15  and  C_16
REMARK    8  A    between atoms: C_16  and  N_17
REMARK    9  A    between atoms: N_17  and  S_18
REMARK   10  A    between atoms: S_18  and  C_21
REMARK   11  A    between atoms: C_24  and  O_25
REMARK                            x       y       z     vdW  Elec       q    Type
REMARK                         _______ _______ _______ _____ _____    ______ ____
ROOT
ATOM      9  C   UNL     1      -1.025  -1.198  25.158  0.00  0.00    +0.027 C 
ATOM     10  C   UNL     1      -0.748  -0.848  24.464  0.00  0.00    +0.005 C 
ATOM     11  C   UNL     1      -0.645  -0.031  24.426  0.00  0.00    +0.006 C 
ATOM     15  C   UNL     1      -0.821   0.438  25.083  0.00  0.00    +0.041 C 
ATOM     29  C   UNL     1      -1.098   0.089  25.776  0.00  0.00    -0.033 C 
ATOM     30  C   UNL     1      -1.200  -0.729  25.815  0.00  0.00    -0.048 C 
ATOM     31  C   UNL     1      -1.478  -1.078  26.508  0.00  0.00    +0.026 C 
ENDROOT
BRANCH  11  12
ATOM     12  C   UNL     1      -0.368   0.319  23.732  0.00  0.00    +0.000 C 
ATOM     13  C   UNL     1      -0.901   0.600  23.170  0.00  0.00    +0.000 C 
ATOM     14  C   UNL     1       0.444   0.388  23.601  0.00  0.00    +0.000 C 
ENDBRANCH  11  12
BRANCH   9   8
ATOM      8  C   UNL     1      -1.127  -2.015  25.196  0.00  0.00    +0.091 C 
BRANCH   8   6
ATOM      5  N   UNL     1      -2.423  -2.441  24.771  0.00  0.00    -0.203 NA
ATOM      6  C   UNL     1      -1.610  -2.397  24.647  0.00  0.00    +0.242 C 
ATOM      7  O   UNL     1      -1.276  -2.737  23.971  0.00  0.00    -0.273 OA
BRANCH   5   4
ATOM      4  C   UNL     1      -2.906  -2.823  24.221  0.00  0.00    +0.147 C 
BRANCH   4   3
ATOM      3  C   UNL     1      -3.725  -2.802  24.305  0.00  0.00    +0.166 C 
BRANCH   3   2
ATOM      1  C   UNL     1      -4.648  -1.841  23.787  0.00  0.00    +0.174 C 
ATOM      2  O   UNL     1      -4.197  -2.524  23.688  0.00  0.00    -0.349 OA
ENDBRANCH   3   2
ENDBRANCH   4   3
ENDBRANCH   5   4
ENDBRANCH   8   6
ENDBRANCH   9   8
BRANCH  15  16
ATOM     16  C   UNL     1      -0.718   1.256  25.044  0.00  0.00    +0.120 C 
BRANCH  16  17
ATOM     17  N   UNL     1      -0.898   1.726  25.697  0.00  0.00    -0.077 NA
BRANCH  17  18
ATOM     18  S   UNL     1      -1.053   2.531  25.597  0.00  0.00    +0.077 S 
ATOM     19  O   UNL     1      -1.843   2.357  25.433  0.00  0.00    -0.152 OA
ATOM     20  O   UNL     1      -0.263   2.703  25.761  0.00  0.00    -0.152 OA
BRANCH  18  21
ATOM     21  C   UNL     1      -1.208   3.334  25.497  0.00  0.00    +0.124 A 
ATOM     22  C   UNL     1      -0.657   3.816  25.118  0.00  0.00    +0.023 A 
ATOM     23  C   UNL     1      -0.812   4.621  25.018  0.00  0.00    +0.038 A 
ATOM     24  C   UNL     1      -1.519   4.942  25.297  0.00  0.00    +0.139 A 
ATOM     27  C   UNL     1      -2.070   4.459  25.677  0.00  0.00    +0.038 A 
ATOM     28  C   UNL     1      -1.915   3.656  25.777  0.00  0.00    +0.023 A 
BRANCH  24  25
ATOM     25  O   UNL     1      -1.674   5.747  25.197  0.00  0.00    -0.471 OA
ATOM     26  C   UNL     1      -1.304   6.166  24.591  0.00  0.00    +0.252 C 
ENDBRANCH  24  25
ENDBRANCH  18  21
ENDBRANCH  17  18
ENDBRANCH  16  17
ENDBRANCH  15  16
TORSDOF 11
ENDMDL
MODEL 6
REMARK VINA RESULT:      -5.6     17.133     18.307
REMARK  Name = 
REMARK  11 active torsions:
REMARK  status: ('A' for Active; 'I' for Inactive)
REMARK    1  A    between atoms: O_2  and  C_3
REMARK    2  A    between atoms: C_3  and  C_4
REMARK    3  A    between atoms: C_4  and  N_5
REMARK    4  A    between atoms: C_6  and  C_8
REMARK    5  A    between atoms: C_8  and  C_9
REMARK    6  A    between atoms: C_11  and  C_12
REMARK    7  A    between atoms: C_15  and  C_16
REMARK    8  A    between atoms: C_16  and  N_17
REMARK    9  A    between atoms: N_17  and  S_18
REMARK   10  A    between atoms: S_18  and  C_21
REMARK   11  A    between atoms: C_24  and  O_25
REMARK                            x       y       z     vdW  Elec       q    Type
REMARK                         _______ _______ _______ _____ _____    ______ ____
ROOT
ATOM      9  C   UNL     1      -4.517  -9.811   9.781  0.00  0.00    +0.027 C 
ATOM     10  C   UNL     1      -4.946  -9.594  10.452  0.00  0.00    +0.005 C 
ATOM     11  C   UNL     1      -5.651  -9.174  10.373  0.00  0.00    +0.006 C 
ATOM     15  C   UNL     1      -5.929  -8.971   9.622  0.00  0.00    +0.041 C 
ATOM     29  C   UNL     1      -5.501  -9.187   8.952  0.00  0.00    -0.033 C 
ATOM     30  C   UNL     1      -4.795  -9.608   9.030  0.00  0.00    -0.048 C 
ATOM     31  C   UNL     1      -4.367  -9.825   8.360  0.00  0.00    +0.026 C 
ENDROOT
BRANCH  11  12
ATOM     12  C   UNL     1      -6.080  -8.957  11.043  0.00  0.00    +0.000 C 
ATOM     13  C   UNL     1      -6.669  -9.454  11.336  0.00  0.00    +0.000 C 
ATOM     14  C   UNL     1      -5.919  -8.242  11.421  0.00  0.00    +0.000 C 
ENDBRANCH  11  12
BRANCH   9   8
ATOM      8  C   UNL     1      -3.812 -10.231   9.860  0.00  0.00    +0.091 C 
BRANCH   8   6
ATOM      5  N   UNL     1      -3.077 -10.463  11.063  0.00  0.00    -0.203 NA
ATOM      6  C   UNL     1      -3.247  -9.990  10.410  0.00  0.00    +0.242 C 
ATOM      7  O   UNL     1      -2.850  -9.273  10.306  0.00  0.00    -0.273 OA
BRANCH   5   4
ATOM      4  C   UNL     1      -2.511 -10.222  11.613  0.00  0.00    +0.147 C 
BRANCH   4   3
ATOM      3  C   UNL     1      -2.400 -10.653  12.307  0.00  0.00    +0.166 C 
BRANCH   3   2
ATOM      1  C   UNL     1      -1.798 -10.780  13.597  0.00  0.00    +0.174 C 
ATOM      2  O   UNL     1      -1.979 -10.323  12.935  0.00  0.00    -0.349 OA
ENDBRANCH   3   2
ENDBRANCH   4   3
ENDBRANCH   5   4
ENDBRANCH   8   6
ENDBRANCH   9   8
BRANCH  15  16
ATOM     16  C   UNL     1      -6.635  -8.550   9.543  0.00  0.00    +0.120 C 
BRANCH  16  17
ATOM     17  N   UNL     1      -6.943  -8.397   8.794  0.00  0.00    -0.077 NA
BRANCH  17  18
ATOM     18  S   UNL     1      -7.585  -7.886   8.709  0.00  0.00    +0.077 S 
ATOM     19  O   UNL     1      -7.069  -7.244   8.674  0.00  0.00    -0.152 OA
ATOM     20  O   UNL     1      -8.101  -8.529   8.743  0.00  0.00    -0.152 OA
BRANCH  18  21
ATOM     21  C   UNL     1      -8.227  -7.375   8.623  0.00  0.00    +0.124 A 
ATOM     22  C   UNL     1      -8.961  -7.580   8.936  0.00  0.00    +0.023 A 
ATOM     23  C   UNL     1      -9.604  -7.069   8.851  0.00  0.00    +0.038 A 
ATOM     24  C   UNL     1      -9.511  -6.354   8.451  0.00  0.00    +0.139 A 
ATOM     27  C   UNL     1      -8.775  -6.149   8.137  0.00  0.00    +0.038 A 
ATOM     28  C   UNL     1      -8.134  -6.660   8.223  0.00  0.00    +0.023 A 
BRANCH  24  25
ATOM     25  O   UNL     1     -10.153  -5.842   8.365  0.00  0.00    -0.471 OA
ATOM     26  C   UNL     1     -10.086  -5.054   8.598  0.00  0.00    +0.252 C 
ENDBRANCH  24  25
ENDBRANCH  18  21
ENDBRANCH  17  18
ENDBRANCH  16  17
ENDBRANCH  15  16
TORSDOF 11
ENDMDL
MODEL 7
REMARK VINA RESULT:      -4.6     16.564     18.532
REMARK  Name = 
REMARK  11 active torsions:
REMARK  status: ('A' for Active; 'I' for Inactive)
REMARK    1  A    between atoms: O_2  and  C_3
REMARK    2  A    between atoms: C_3  and  C_4
REMARK    3  A    between atoms: C_4  and  N_5
REMARK    4  A    between atoms: C_6  and  C_8
REMARK    5  A    between atoms: C_8  and  C_9
REMARK    6  A    between atoms: C_11  and  C_12
REMARK    7  A    between atoms: C_15  and  C_16
REMARK    8  A    between atoms: C_16  and  N_17
REMARK    9  A    between atoms: N_17  and  S_18
REMARK   10  A    between atoms: S_18  and  C_21
REMARK   11  A    between atoms: C_24  and  O_25
REMARK                            x       y       z     vdW  Elec       q    Type
REMARK                         _______ _______ _______ _____ _____    ______ ____
ROOT
ATOM      9  C   UNL     1      -6.916  -9.502   9.626  0.00  0.00    +0.027 C 
ATOM     10  C   UNL     1      -6.285  -8.976   9.552  0.00  0.00    +0.005 C 
ATOM     11  C   UNL     1      -5.598  -9.089   9.994  0.00  0.00    +0.006 C 
ATOM     15  C   UNL     1      -5.541  -9.730  10.512  0.00  0.00    +0.041 C 
ATOM     29  C   UNL     1      -6.171 -10.257  10.586  0.00  0.00    -0.033 C 
ATOM     30  C   UNL     1      -6.859 -10.144  10.144  0.00  0.00    -0.048 C 
ATOM     31  C   UNL     1      -7.489 -10.670  10.218  0.00  0.00    +0.026 C 
ENDROOT
BRANCH  11  12
ATOM     12  C   UNL     1      -4.967  -8.562   9.920  0.00  0.00    +0.000 C 
ATOM     13  C   UNL     1      -4.936  -7.886  10.391  0.00  0.00    +0.000 C 
ATOM     14  C   UNL     1      -4.367  -8.712   9.374  0.00  0.00    +0.000 C 
ENDBRANCH  11  12
BRANCH   9   8
ATOM      8  C   UNL     1      -7.602  -9.389   9.185  0.00  0.00    +0.091 C 
BRANCH   8   6
ATOM      5  N   UNL     1      -8.276  -8.155   8.928  0.00  0.00    -0.203 NA
ATOM      6  C   UNL     1      -8.148  -8.812   9.409  0.00  0.00    +0.242 C 
ATOM      7  O   UNL     1      -8.566  -8.893  10.117  0.00  0.00    -0.273 OA
BRANCH   5   4
ATOM      4  C   UNL     1      -8.822  -7.578   9.152  0.00  0.00    +0.147 C 
BRANCH   4   3
ATOM      3  C   UNL     1      -9.184  -7.108   8.581  0.00  0.00    +0.166 C 
BRANCH   3   2
ATOM      1  C   UNL     1      -9.617  -5.824   8.127  0.00  0.00    +0.174 C 
ATOM      2  O   UNL     1      -9.238  -6.292   8.690  0.00  0.00    -0.349 OA
ENDBRANCH   3   2
ENDBRANCH   4   3
ENDBRANCH   5   4
ENDBRANCH   8   6
ENDBRANCH   9   8
BRANCH  15  16
ATOM     16  C   UNL     1      -4.854  -9.844  10.954  0.00  0.00    +0.120 C 
BRANCH  16  17
ATOM     17  N   UNL     1      -4.823 -10.438  11.524  0.00  0.00    -0.077 NA
BRANCH  17  18
ATOM     18  S   UNL     1      -4.185 -10.477  12.046  0.00  0.00    +0.077 S 
ATOM     19  O   UNL     1      -3.712 -10.781  11.443  0.00  0.00    -0.152 OA
ATOM     20  O   UNL     1      -4.659 -10.172  12.649  0.00  0.00    -0.152 OA
BRANCH  18  21
ATOM     21  C   UNL     1      -3.547 -10.516  12.567  0.00  0.00    +0.124 A 
ATOM     22  C   UNL     1      -2.776 -10.487  12.278  0.00  0.00    +0.023 A 
ATOM     23  C   UNL     1      -2.137 -10.526  12.799  0.00  0.00    +0.038 A 
ATOM     24  C   UNL     1      -2.271 -10.594  13.610  0.00  0.00    +0.139 A 
ATOM     27  C   UNL     1      -3.044 -10.624  13.900  0.00  0.00    +0.038 A 
ATOM     28  C   UNL     1      -3.681 -10.584  13.378  0.00  0.00    +0.023 A 
BRANCH  24  25
ATOM     25  O   UNL     1      -1.633 -10.634  14.132  0.00  0.00    -0.471 OA
ATOM     26  C   UNL     1      -1.747 -10.483  14.935  0.00  0.00    +0.252 C 
ENDBRANCH  24  25
ENDBRANCH  18  21
ENDBRANCH  17  18
ENDBRANCH  16  17
ENDBRANCH  15  16
TORSDOF 11
ENDMDL
MODEL 8
REMARK VINA RESULT:      -4.3     16.239     17.644
REMARK  Name = 
REMARK  11 active torsions:
REMARK  status: ('A' for Active; 'I' for Inactive)
REMARK    1  A    between atoms: O_2  and  C_3
REMARK    2  A    between atoms: C_3  and  C_4
REMARK    3  A    between atoms: C_4  and  N_5
REMARK    4  A    between atoms: C_6  and  C_8
REMARK    5  A    between atoms: C_8  and  C_9
REMARK    6  A    between atoms: C_11  and  C_12
REMARK    7  A    between atoms: C_15  and  C_16
REMARK    8  A    between atoms: C_16  and  N_17
REMARK    9  A    between atoms: N_17  and  S_18
REMARK   10  A    between atoms: S_18  and  C_21
REMARK   11  A    between atoms: C_24  and  O_25
REMARK                            x       y       z     vdW  Elec       q    Type
REMARK                         _______ _______ _______ _____ _____    ______ ____
ROOT
ATOM      9  C   UNL     1      -3.743 -10.202  11.718  0.00  0.00    +0.027 C 
ATOM     10  C   UNL     1      -4.447 -10.196  12.148  0.00  0.00    +0.005 C 
ATOM     11  C   UNL     1      -5.132  -9.881  11.815  0.00  0.00    +0.006 C 
ATOM     15  C   UNL     1      -5.114  -9.571  11.050  0.00  0.00    +0.041 C 
ATOM     29  C   UNL     1      -4.411  -9.578  10.619  0.00  0.00    -0.033 C 
ATOM     30  C   UNL     1      -3.725  -9.893  10.952  0.00  0.00    -0.048 C 
ATOM     31  C   UNL     1      -3.022  -9.899  10.522  0.00  0.00    +0.026 C 
ENDROOT
BRANCH  11  12
ATOM     12  C   UNL     1      -5.836  -9.874  12.246  0.00  0.00    +0.000 C 
ATOM     13  C   UNL     1      -6.328 -10.536  12.243  0.00  0.00    +0.000 C 
ATOM     14  C   UNL     1      -6.048  -9.205  12.679  0.00  0.00    +0.000 C 
ENDBRANCH  11  12
BRANCH   9   8
ATOM      8  C   UNL     1      -3.058 -10.517  12.051  0.00  0.00    +0.091 C 
BRANCH   8   6
ATOM      5  N   UNL     1      -2.253 -10.313  13.214  0.00  0.00    -0.203 NA
ATOM      6  C   UNL     1      -2.969 -10.537  12.871  0.00  0.00    +0.242 C 
ATOM      7  O   UNL     1      -3.597 -10.781  13.349  0.00  0.00    -0.273 OA
BRANCH   5   4
ATOM      4  C   UNL     1      -2.164 -10.332  14.034  0.00  0.00    +0.147 C 
BRANCH   4   3
ATOM      3  C   UNL     1      -1.425 -10.192  14.372  0.00  0.00    +0.166 C 
BRANCH   3   2
ATOM      1  C   UNL     1      -0.855 -10.265  15.681  0.00  0.00    +0.174 C 
ATOM      2  O   UNL     1      -1.371  -9.909  15.145  0.00  0.00    -0.349 OA
ENDBRANCH   3   2
ENDBRANCH   4   3
ENDBRANCH   5   4
ENDBRANCH   8   6
ENDBRANCH   9   8
BRANCH  15  16
ATOM     16  C   UNL     1      -5.800  -9.256  10.716  0.00  0.00    +0.120 C 
BRANCH  16  17
ATOM     17  N   UNL     1      -5.897  -9.252   9.898  0.00  0.00    -0.077 NA
BRANCH  17  18
ATOM     18  S   UNL     1      -6.543  -8.864   9.560  0.00  0.00    +0.077 S 
ATOM     19  O   UNL     1      -6.379  -8.197  10.018  0.00  0.00    -0.152 OA
ATOM     20  O   UNL     1      -6.705  -9.531   9.103  0.00  0.00    -0.152 OA
BRANCH  18  21
ATOM     21  C   UNL     1      -7.187  -8.476   9.223  0.00  0.00    +0.124 A 
ATOM     22  C   UNL     1      -7.929  -8.521   9.580  0.00  0.00    +0.023 A 
ATOM     23  C   UNL     1      -8.574  -8.133   9.243  0.00  0.00    +0.038 A 
ATOM     24  C   UNL     1      -8.477  -7.699   8.548  0.00  0.00    +0.139 A 
ATOM     27  C   UNL     1      -7.734  -7.653   8.190  0.00  0.00    +0.038 A 
ATOM     28  C   UNL     1      -7.090  -8.042   8.528  0.00  0.00    +0.023 A 
BRANCH  24  25
ATOM     25  O   UNL     1      -9.122  -7.310   8.210  0.00  0.00    -0.471 OA
ATOM     26  C   UNL     1      -9.109  -6.490   8.124  0.00  0.00    +0.252 C 
ENDBRANCH  24  25
ENDBRANCH  18  21
ENDBRANCH  17  18
ENDBRANCH  16  17
ENDBRANCH  15  16
TORSDOF 11
ENDMDL
MODEL 9
REMARK VINA RESULT:      -3.7     16.782     18.614
REMARK  Name = 
REMARK  11 active torsions:
REMARK  status: ('A' for Active; 'I' for Inactive)
REMARK    1  A    between atoms: O_2  and  C_3
REMARK    2  A    between atoms: C_3  and  C_4
REMARK    3  A    between atoms: C_4  and  N_5
REMARK    4  A    between atoms: C_6  and  C_8
REMARK    5  A    between atoms: C_8  and  C_9
REMARK    6  A    between atoms: C_11  and  C_12
REMARK    7  A    between atoms: C_15  and  C_16
REMARK    8  A    between atoms: C_16  and  N_17
REMARK    9  A    between atoms: N_17  and  S_18
REMARK   10  A    between atoms: S_18  and  C_21
REMARK   11  A    between atoms: C_24  and  O_25
REMARK                            x       y       z     vdW  Elec       q    Type
REMARK                         _______ _______ _______ _____ _____    ______ ____
ROOT
ATOM      9  C   UNL     1      -8.105  -8.524   9.303  0.00  0.00    +0.027 C 
ATOM     10  C   UNL     1      -8.524  -8.929   9.887  0.00  0.00    +0.005 C 
ATOM     11  C   UNL     1      -8.127  -9.243  10.538  0.00  0.00    +0.006 C 
ATOM     15  C   UNL     1      -7.309  -9.153  10.605  0.00  0.00    +0.041 C 
ATOM     29  C   UNL     1      -6.890  -8.748  10.022  0.00  0.00    -0.033 C 
ATOM     30  C   UNL     1      -7.286  -8.433   9.371  0.00  0.00    -0.048 C 
ATOM     31  C   UNL     1      -6.867  -8.028   8.788  0.00  0.00    +0.026 C 
ENDROOT
BRANCH  11  12
ATOM     12  C   UNL     1      -8.547  -9.649  11.121  0.00  0.00    +0.000 C 
ATOM     13  C   UNL     1      -8.843  -9.242  11.774  0.00  0.00    +0.000 C 
ATOM     14  C   UNL     1      -8.670 -10.461  11.051  0.00  0.00    +0.000 C 
ENDBRANCH  11  12
BRANCH   9   8
ATOM      8  C   UNL     1      -8.501  -8.209   8.653  0.00  0.00    +0.091 C 
BRANCH   8   6
ATOM      5  N   UNL     1      -9.347  -7.086   8.908  0.00  0.00    -0.203 NA
ATOM      6  C   UNL     1      -9.256  -7.889   8.744  0.00  0.00    +0.242 C 
ATOM      7  O   UNL     1      -9.921  -8.373   8.672  0.00  0.00    -0.273 OA
BRANCH   5   4
ATOM      4  C   UNL     1     -10.102  -6.765   8.999  0.00  0.00    +0.147 C 
BRANCH   4   3
ATOM      3  C   UNL     1     -10.256  -5.994   8.754  0.00  0.00    +0.166 C 
BRANCH   3   2
ATOM      1  C   UNL     1     -10.629  -4.678   9.167  0.00  0.00    +0.174 C 
ATOM      2  O   UNL     1     -10.719  -5.495   9.221  0.00  0.00    -0.349 OA
ENDBRANCH   3   2
ENDBRANCH   4   3
ENDBRANCH   5   4
ENDBRANCH   8   6
ENDBRANCH   9   8
BRANCH  15  16
ATOM     16  C   UNL     1      -6.912  -9.468  11.257  0.00  0.00    +0.120 C 
BRANCH  16  17
ATOM     17  N   UNL     1      -6.088  -9.463  11.280  0.00  0.00    -0.077 NA
BRANCH  17  18
ATOM     18  S   UNL     1      -5.692  -9.727  11.954  0.00  0.00    +0.077 S 
ATOM     19  O   UNL     1      -5.636  -8.950  12.224  0.00  0.00    -0.152 OA
ATOM     20  O   UNL     1      -5.749 -10.505  11.684  0.00  0.00    -0.152 OA
BRANCH  18  21
ATOM     21  C   UNL     1      -5.297  -9.990  12.628  0.00  0.00    +0.124 A 
ATOM     22  C   UNL     1      -5.695 -10.038  13.348  0.00  0.00    +0.023 A 
ATOM     23  C   UNL     1      -5.300 -10.301  14.023  0.00  0.00    +0.038 A 
ATOM     24  C   UNL     1      -4.505 -10.517  13.976  0.00  0.00    +0.139 A 
ATOM     27  C   UNL     1      -4.106 -10.470  13.255  0.00  0.00    +0.038 A 
ATOM     28  C   UNL     1      -4.502 -10.206  12.582  0.00  0.00    +0.023 A 
BRANCH  24  25
ATOM     25  O   UNL     1      -4.109 -10.781  14.651  0.00  0.00    -0.471 OA
ATOM     26  C   UNL     1      -4.193 -10.374  15.364  0.00  0.00    +0.252 C 
ENDBRANCH  24  25
ENDBRANCH  18  21
ENDBRANCH  17  18
ENDBRANCH  16  17
ENDBRANCH  15  16
TORSDOF 11
ENDMDL
