MODEL 1
REMARK VINA RESULT:     -13.0      0.000      0.000
REMARK  Name = 
REMARK  5 active torsions:
REMARK  status: ('A' for Active; 'I' for Inactive)
REMARK    1  A    between atoms: C_2  and  C_4
REMARK    2  A    between atoms: C_7  and  C_8
REMARK    3  A    between atoms: C_8  and  N_9
REMARK    4  A    between atoms: N_16  and  C_17
REMARK    5  A    between atoms: C_17  and  C_18
REMARK                            x       y       z     vdW  Elec       q    Type
REMARK                         _______ _______ _______ _____ _____    ______ ____
ROOT
ATOM      9  N   UNL     1      -3.479   1.518  24.157  0.00  0.00    -0.265 NA
ATOM     10  C   UNL     1      -4.234   1.851  24.156  0.00  0.00    +0.104 C 
ATOM     11  C   UNL     1      -4.232   2.487  24.681  0.00  0.00    +0.151 C 
ATOM     12  O   UNL     1      -4.821   3.020  24.905  0.00  0.00    -0.344 OA
ATOM     13  C   UNL     1      -4.654   3.612  25.454  0.00  0.00    +0.227 C 
ATOM     14  C   UNL     1      -3.899   3.672  25.780  0.00  0.00    +0.256 C 
ATOM     15  O   UNL     1      -3.732   4.264  26.330  0.00  0.00    -0.272 OA
ATOM     16  N   UNL     1      -3.310   3.139  25.557  0.00  0.00    -0.271 N 
ATOM     25  C   UNL     1      -3.477   2.546  25.007  0.00  0.00    +0.120 C 
ATOM     26  C   UNL     1      -3.012   1.947  24.683  0.00  0.00    +0.095 C 
ENDROOT
BRANCH   9   8
ATOM      8  C   UNL     1      -3.236   0.868  23.711  0.00  0.00    +0.099 C 
BRANCH   8   7
ATOM      4  C   UNL     1      -3.472  -1.421  24.625  0.00  0.00    +0.080 A 
ATOM      5  C   UNL     1      -2.773  -0.999  24.744  0.00  0.00    +0.006 A 
ATOM      6  C   UNL     1      -2.694  -0.236  24.439  0.00  0.00    -0.003 A 
ATOM      7  C   UNL     1      -3.315   0.105  24.016  0.00  0.00    -0.006 A 
ATOM     27  C   UNL     1      -4.014  -0.317  23.896  0.00  0.00    -0.003 A 
ATOM     28  C   UNL     1      -4.092  -1.079  24.201  0.00  0.00    +0.006 A 
BRANCH   4   2
ATOM      1  O   UNL     1      -3.648  -2.823  24.418  0.00  0.00    -0.241 OA
ATOM      2  C   UNL     1      -3.550  -2.183  24.929  0.00  0.00    +0.388 C 
ATOM      3  O   UNL     1      -3.531  -2.306  25.744  0.00  0.00    -0.241 OA
ENDBRANCH   4   2
ENDBRANCH   8   7
ENDBRANCH   9   8
BRANCH  16  17
ATOM     17  C   UNL     1      -2.554   3.199  25.883  0.00  0.00    +0.120 C 
BRANCH  17  18
ATOM     18  C   UNL     1      -2.003   3.717  25.554  0.00  0.00    -0.002 A 
ATOM     19  C   UNL     1      -1.297   3.425  25.243  0.00  0.00    -0.000 A 
ATOM     20  C   UNL     1      -0.745   3.942  24.914  0.00  0.00    +0.029 A 
ATOM     21  C   UNL     1      -0.900   4.753  24.895  0.00  0.00    +0.140 A 
ATOM     22  F   UNL     1      -0.349   5.270  24.566  0.00  0.00    -0.204 F 
ATOM     23  C   UNL     1      -1.606   5.045  25.206  0.00  0.00    +0.029 A 
ATOM     24  C   UNL     1      -2.158   4.527  25.535  0.00  0.00    -0.000 A 
ENDBRANCH  17  18
ENDBRANCH  16  17
TORSDOF 5
ENDMDL
MODEL 2
REMARK VINA RESULT:     -12.7      2.508      5.077
REMARK  Name = 
REMARK  5 active torsions:
REMARK  status: ('A' for Active; 'I' for Inactive)
REMARK    1  A    between atoms: C_2  and  C_4
REMARK    2  A    between atoms: C_7  and  C_8
REMARK    3  A    between atoms: C_8  and  N_9
REMARK    4  A    between atoms: N_16  and  C_17
REMARK    5  A    between atoms: C_17  and  C_18
REMARK                            x       y       z     vdW  Elec       q    Type
REMARK                         _______ _______ _______ _____ _____    ______ ____
ROOT
ATOM      9  N   UNL     1      -2.669   1.424  23.863  0.00  0.00    -0.265 NA
ATOM     10  C   UNL     1      -1.866   1.471  23.679  0.00  0.00    +0.104 C 
ATOM     11  C   UNL     1      -1.477   0.866  24.082  0.00  0.00    +0.151 C 
ATOM     12  O   UNL     1      -0.683   0.643  24.112  0.00  0.00    -0.344 OA
ATOM     13  C   UNL     1      -0.452   0.000  24.573  0.00  0.00    +0.227 C 
ATOM     14  C   UNL     1      -1.014  -0.420  25.006  0.00  0.00    +0.256 C 
ATOM     15  O   UNL     1      -0.783  -1.064  25.469  0.00  0.00    -0.272 OA
ATOM     16  N   UNL     1      -1.808  -0.198  24.977  0.00  0.00    -0.271 N 
ATOM     25  C   UNL     1      -2.039   0.445  24.515  0.00  0.00    +0.120 C 
ATOM     26  C   UNL     1      -2.776   0.790  24.379  0.00  0.00    +0.095 C 
ENDROOT
BRANCH   9   8
ATOM      8  C   UNL     1      -3.261   1.924  23.579  0.00  0.00    +0.099 C 
BRANCH   8   7
ATOM      4  C   UNL     1      -4.841   2.993  25.158  0.00  0.00    +0.080 A 
ATOM      5  C   UNL     1      -5.073   2.327  24.729  0.00  0.00    +0.006 A 
ATOM      6  C   UNL     1      -4.546   1.970  24.202  0.00  0.00    -0.003 A 
ATOM      7  C   UNL     1      -3.788   2.280  24.106  0.00  0.00    -0.006 A 
ATOM     27  C   UNL     1      -3.556   2.946  24.534  0.00  0.00    -0.003 A 
ATOM     28  C   UNL     1      -4.082   3.302  25.060  0.00  0.00    +0.006 A 
BRANCH   4   2
ATOM      1  O   UNL     1      -5.677   4.094  25.515  0.00  0.00    -0.241 OA
ATOM      2  C   UNL     1      -5.367   3.348  25.683  0.00  0.00    +0.388 C 
ATOM      3  O   UNL     1      -5.584   2.959  26.377  0.00  0.00    -0.241 OA
ENDBRANCH   4   2
ENDBRANCH   8   7
ENDBRANCH   9   8
BRANCH  16  17
ATOM     17  C   UNL     1      -2.370  -0.619  25.410  0.00  0.00    +0.120 C 
BRANCH  17  18
ATOM     18  C   UNL     1      -2.741  -1.276  25.076  0.00  0.00    -0.002 A 
ATOM     19  C   UNL     1      -3.560  -1.284  24.983  0.00  0.00    -0.000 A 
ATOM     20  C   UNL     1      -3.932  -1.941  24.649  0.00  0.00    +0.029 A 
ATOM     21  C   UNL     1      -3.482  -2.590  24.407  0.00  0.00    +0.140 A 
ATOM     22  F   UNL     1      -3.854  -3.246  24.073  0.00  0.00    -0.204 F 
ATOM     23  C   UNL     1      -2.663  -2.582  24.500  0.00  0.00    +0.029 A 
ATOM     24  C   UNL     1      -2.292  -1.925  24.835  0.00  0.00    -0.000 A 
ENDBRANCH  17  18
ENDBRANCH  16  17
TORSDOF 5
ENDMDL
MODEL 3
REMARK VINA RESULT:     -12.5      2.103      4.262
REMARK  Name = 
REMARK  5 active torsions:
REMARK  status: ('A' for Active; 'I' for Inactive)
REMARK    1  A    between atoms: C_2  and  C_4
REMARK    2  A    between atoms: C_7  and  C_8
REMARK    3  A    between atoms: C_8  and  N_9
REMARK    4  A    between atoms: N_16  and  C_17
REMARK    5  A    between atoms: C_17  and  C_18
REMARK                            x       y       z     vdW  Elec       q    Type
REMARK                         _______ _______ _______ _____ _____    ______ ____
ROOT
ATOM      9  N   UNL     1      -3.315   3.697  25.199  0.00  0.00    -0.265 NA
ATOM     10  C   UNL     1      -3.900   3.914  25.739  0.00  0.00    +0.104 C 
ATOM     11  C   UNL     1      -4.531   3.389  25.657  0.00  0.00    +0.151 C 
ATOM     12  O   UNL     1      -5.258   3.334  26.043  0.00  0.00    -0.344 OA
ATOM     13  C   UNL     1      -5.789   2.737  25.839  0.00  0.00    +0.227 C 
ATOM     14  C   UNL     1      -5.594   2.196  25.248  0.00  0.00    +0.256 C 
ATOM     15  O   UNL     1      -6.126   1.599  25.043  0.00  0.00    -0.272 OA
ATOM     16  N   UNL     1      -4.868   2.250  24.861  0.00  0.00    -0.271 N 
ATOM     25  C   UNL     1      -4.336   2.848  25.066  0.00  0.00    +0.120 C 
ATOM     26  C   UNL     1      -3.585   3.038  24.783  0.00  0.00    +0.095 C 
ENDROOT
BRANCH   9   8
ATOM      8  C   UNL     1      -2.589   4.073  25.093  0.00  0.00    +0.099 C 
BRANCH   8   7
ATOM      4  C   UNL     1      -0.483   2.843  25.522  0.00  0.00    +0.080 A 
ATOM      5  C   UNL     1      -0.694   3.045  24.750  0.00  0.00    +0.006 A 
ATOM      6  C   UNL     1      -1.396   3.455  24.607  0.00  0.00    -0.003 A 
ATOM      7  C   UNL     1      -1.887   3.663  25.237  0.00  0.00    -0.006 A 
ATOM     27  C   UNL     1      -1.676   3.462  26.008  0.00  0.00    -0.003 A 
ATOM     28  C   UNL     1      -0.975   3.052  26.151  0.00  0.00    +0.006 A 
BRANCH   4   2
ATOM      1  O   UNL     1       0.584   2.487  26.402  0.00  0.00    -0.241 OA
ATOM      2  C   UNL     1       0.218   2.434  25.665  0.00  0.00    +0.388 C 
ATOM      3  O   UNL     1       0.553   1.970  25.071  0.00  0.00    -0.241 OA
ENDBRANCH   4   2
ENDBRANCH   8   7
ENDBRANCH   9   8
BRANCH  16  17
ATOM     17  C   UNL     1      -4.673   1.709  24.270  0.00  0.00    +0.120 C 
BRANCH  17  18
ATOM     18  C   UNL     1      -4.282   1.009  24.465  0.00  0.00    -0.002 A 
ATOM     19  C   UNL     1      -3.637   0.758  24.016  0.00  0.00    -0.000 A 
ATOM     20  C   UNL     1      -3.245   0.059  24.210  0.00  0.00    +0.029 A 
ATOM     21  C   UNL     1      -3.498  -0.390  24.855  0.00  0.00    +0.140 A 
ATOM     22  F   UNL     1      -3.106  -1.090  25.049  0.00  0.00    -0.204 F 
ATOM     23  C   UNL     1      -4.143  -0.140  25.304  0.00  0.00    +0.029 A 
ATOM     24  C   UNL     1      -4.535   0.560  25.109  0.00  0.00    -0.000 A 
ENDBRANCH  17  18
ENDBRANCH  16  17
TORSDOF 5
ENDMDL
MODEL 4
REMARK VINA RESULT:     -12.4      1.307      1.731
REMARK  Name = 
REMARK  5 active torsions:
REMARK  status: ('A' for Active; 'I' for Inactive)
REMARK    1  A    between atoms: C_2  and  C_4
REMARK    2  A    between atoms: C_7  and  C_8
REMARK    3  A    between atoms: C_8  and  N_9
REMARK    4  A    between atoms: N_16  and  C_17
REMARK    5  A    between atoms: C_17  and  C_18
REMARK                            x       y       z     vdW  Elec       q    Type
REMARK                         _______ _______ _______ _____ _____    ______ ____
ROOT
ATOM      9  N   UNL     1      -4.553   0.750  24.688  0.00  0.00    -0.265 NA
ATOM     10  C   UNL     1      -5.179   0.828  25.220  0.00  0.00    +0.104 C 
ATOM     11  C   UNL     1      -5.283   1.631  25.375  0.00  0.00    +0.151 C 
ATOM     12  O   UNL     1      -5.816   2.036  25.856  0.00  0.00    -0.344 OA
ATOM     13  C   UNL     1      -5.789   2.859  25.902  0.00  0.00    +0.227 C 
ATOM     14  C   UNL     1      -5.228   3.277  25.465  0.00  0.00    +0.256 C 
ATOM     15  O   UNL     1      -5.200   4.101  25.510  0.00  0.00    -0.272 OA
ATOM     16  N   UNL     1      -4.694   2.873  24.983  0.00  0.00    -0.271 N 
ATOM     25  C   UNL     1      -4.722   2.049  24.938  0.00  0.00    +0.120 C 
ATOM     26  C   UNL     1      -4.271   1.505  24.514  0.00  0.00    +0.095 C 
ENDROOT
BRANCH   9   8
ATOM      8  C   UNL     1      -4.261   0.041  24.383  0.00  0.00    +0.099 C 
BRANCH   8   7
ATOM      4  C   UNL     1      -2.120  -0.878  25.221  0.00  0.00    +0.080 A 
ATOM      5  C   UNL     1      -2.133  -0.429  24.529  0.00  0.00    +0.006 A 
ATOM      6  C   UNL     1      -2.847  -0.122  24.250  0.00  0.00    -0.003 A 
ATOM      7  C   UNL     1      -3.547  -0.265  24.663  0.00  0.00    -0.006 A 
ATOM     27  C   UNL     1      -3.533  -0.714  25.355  0.00  0.00    -0.003 A 
ATOM     28  C   UNL     1      -2.820  -1.020  25.634  0.00  0.00    +0.006 A 
BRANCH   4   2
ATOM      1  O   UNL     1      -1.016  -0.814  26.126  0.00  0.00    -0.241 OA
ATOM      2  C   UNL     1      -1.407  -1.183  25.500  0.00  0.00    +0.388 C 
ATOM      3  O   UNL     1      -1.084  -1.858  25.154  0.00  0.00    -0.241 OA
ENDBRANCH   4   2
ENDBRANCH   8   7
ENDBRANCH   9   8
BRANCH  16  17
ATOM     17  C   UNL     1      -4.133   3.292  24.547  0.00  0.00    +0.120 C 
BRANCH  17  18
ATOM     18  C   UNL     1      -3.401   3.473  24.882  0.00  0.00    -0.002 A 
ATOM     19  C   UNL     1      -2.706   3.302  24.472  0.00  0.00    -0.000 A 
ATOM     20  C   UNL     1      -1.974   3.483  24.807  0.00  0.00    +0.029 A 
ATOM     21  C   UNL     1      -1.938   3.836  25.552  0.00  0.00    +0.140 A 
ATOM     22  F   UNL     1      -1.206   4.017  25.887  0.00  0.00    -0.204 F 
ATOM     23  C   UNL     1      -2.633   4.007  25.963  0.00  0.00    +0.029 A 
ATOM     24  C   UNL     1      -3.365   3.825  25.627  0.00  0.00    -0.000 A 
ENDBRANCH  17  18
ENDBRANCH  16  17
TORSDOF 5
ENDMDL
MODEL 5
REMARK VINA RESULT:     -12.3      1.826      4.758
REMARK  Name = 
REMARK  5 active torsions:
REMARK  status: ('A' for Active; 'I' for Inactive)
REMARK    1  A    between atoms: C_2  and  C_4
REMARK    2  A    between atoms: C_7  and  C_8
REMARK    3  A    between atoms: C_8  and  N_9
REMARK    4  A    between atoms: N_16  and  C_17
REMARK    5  A    between atoms: C_17  and  C_18
REMARK                            x       y       z     vdW  Elec       q    Type
REMARK                         _______ _______ _______ _____ _____    ______ ____
ROOT
ATOM      9  N   UNL     1      -1.182   0.853  25.035  0.00  0.00    -0.265 NA
ATOM     10  C   UNL     1      -1.173   0.207  25.549  0.00  0.00    +0.104 C 
ATOM     11  C   UNL     1      -1.893  -0.187  25.475  0.00  0.00    +0.151 C 
ATOM     12  O   UNL     1      -2.195  -0.860  25.845  0.00  0.00    -0.344 OA
ATOM     13  C   UNL     1      -2.950  -1.131  25.656  0.00  0.00    +0.227 C 
ATOM     14  C   UNL     1      -3.405  -0.729  25.097  0.00  0.00    +0.256 C 
ATOM     15  O   UNL     1      -4.161  -1.001  24.908  0.00  0.00    -0.272 OA
ATOM     16  N   UNL     1      -3.104  -0.056  24.726  0.00  0.00    -0.271 N 
ATOM     25  C   UNL     1      -2.347   0.215  24.916  0.00  0.00    +0.120 C 
ATOM     26  C   UNL     1      -1.908   0.857  24.644  0.00  0.00    +0.095 C 
ENDROOT
BRANCH   9   8
ATOM      8  C   UNL     1      -0.571   1.398  24.930  0.00  0.00    +0.099 C 
BRANCH   8   7
ATOM      4  C   UNL     1      -1.033   3.824  25.109  0.00  0.00    +0.080 A 
ATOM      5  C   UNL     1      -0.892   3.484  24.370  0.00  0.00    +0.006 A 
ATOM      6  C   UNL     1      -0.738   2.675  24.310  0.00  0.00    -0.003 A 
ATOM      7  C   UNL     1      -0.725   2.207  24.990  0.00  0.00    -0.006 A 
ATOM     27  C   UNL     1      -0.866   2.547  25.728  0.00  0.00    -0.003 A 
ATOM     28  C   UNL     1      -1.020   3.355  25.787  0.00  0.00    +0.006 A 
BRANCH   4   2
ATOM      1  O   UNL     1      -0.623   5.178  24.915  0.00  0.00    -0.241 OA
ATOM      2  C   UNL     1      -1.187   4.632  25.168  0.00  0.00    +0.388 C 
ATOM      3  O   UNL     1      -1.904   4.893  25.480  0.00  0.00    -0.241 OA
ENDBRANCH   4   2
ENDBRANCH   8   7
ENDBRANCH   9   8
BRANCH  16  17
ATOM     17  C   UNL     1      -3.558   0.345  24.167  0.00  0.00    +0.120 C 
BRANCH  17  18
ATOM     18  C   UNL     1      -4.064   0.952  24.406  0.00  0.00    -0.002 A 
ATOM     19  C   UNL     1      -4.016   1.693  24.047  0.00  0.00    -0.000 A 
ATOM     20  C   UNL     1      -4.520   2.301  24.284  0.00  0.00    +0.029 A 
ATOM     21  C   UNL     1      -5.074   2.167  24.882  0.00  0.00    +0.140 A 
ATOM     22  F   UNL     1      -5.578   2.775  25.120  0.00  0.00    -0.204 F 
ATOM     23  C   UNL     1      -5.122   1.426  25.242  0.00  0.00    +0.029 A 
ATOM     24  C   UNL     1      -4.616   0.819  25.003  0.00  0.00    -0.000 A 
ENDBRANCH  17  18
ENDBRANCH  16  17
TORSDOF 5
ENDMDL
MODEL 6
REMARK VINA RESULT:     -12.2      2.099      2.979
REMARK  Name = 
REMARK  5 active torsions:
REMARK  status: ('A' for Active; 'I' for Inactive)
REMARK    1  A    between atoms: C_2  and  C_4
REMARK    2  A    between atoms: C_7  and  C_8
REMARK    3  A    between atoms: C_8  and  N_9
REMARK    4  A    between atoms: N_16  and  C_17
REMARK    5  A    between atoms: C_17  and  C_18
REMARK                            x       y       z     vdW  Elec       q    Type
REMARK                         _______ _______ _______ _____ _____    ______ ____
ROOT
ATOM      9  N   UNL     1      -1.244   0.042  25.455  0.00  0.00    -0.265 NA
ATOM     10  C   UNL     1      -0.558   0.106  25.000  0.00  0.00    +0.104 C 
ATOM     11  C   UNL     1      -0.481   0.893  24.766  0.00  0.00    +0.151 C 
ATOM     12  O   UNL     1       0.088   1.281  24.310  0.00  0.00    -0.344 OA
ATOM     13  C   UNL     1       0.019   2.089  24.165  0.00  0.00    +0.227 C 
ATOM     14  C   UNL     1      -0.617   2.512  24.476  0.00  0.00    +0.256 C 
ATOM     15  O   UNL     1      -0.686   3.321  24.330  0.00  0.00    -0.272 OA
ATOM     16  N   UNL     1      -1.186   2.125  24.931  0.00  0.00    -0.271 N 
ATOM     25  C   UNL     1      -1.118   1.315  25.077  0.00  0.00    +0.120 C 
ATOM     26  C   UNL     1      -1.589   0.790  25.503  0.00  0.00    +0.095 C 
ENDROOT
BRANCH   9   8
ATOM      8  C   UNL     1      -1.532  -0.648  25.802  0.00  0.00    +0.099 C 
BRANCH   8   7
ATOM      4  C   UNL     1      -3.259  -1.989  24.641  0.00  0.00    +0.080 A 
ATOM      5  C   UNL     1      -2.461  -2.097  24.459  0.00  0.00    +0.006 A 
ATOM      6  C   UNL     1      -1.885  -1.650  24.847  0.00  0.00    -0.003 A 
ATOM      7  C   UNL     1      -2.108  -1.095  25.415  0.00  0.00    -0.006 A 
ATOM     27  C   UNL     1      -2.906  -0.987  25.597  0.00  0.00    -0.003 A 
ATOM     28  C   UNL     1      -3.480  -1.434  25.210  0.00  0.00    +0.006 A 
BRANCH   4   2
ATOM      1  O   UNL     1      -4.413  -2.060  23.803  0.00  0.00    -0.241 OA
ATOM      2  C   UNL     1      -3.834  -2.436  24.254  0.00  0.00    +0.388 C 
ATOM      3  O   UNL     1      -3.829  -3.258  24.318  0.00  0.00    -0.241 OA
ENDBRANCH   4   2
ENDBRANCH   8   7
ENDBRANCH   9   8
BRANCH  16  17
ATOM     17  C   UNL     1      -1.823   2.548  25.242  0.00  0.00    +0.120 C 
BRANCH  17  18
ATOM     18  C   UNL     1      -2.531   2.594  24.821  0.00  0.00    -0.002 A 
ATOM     19  C   UNL     1      -3.252   2.540  25.220  0.00  0.00    -0.000 A 
ATOM     20  C   UNL     1      -3.960   2.586  24.800  0.00  0.00    +0.029 A 
ATOM     21  C   UNL     1      -3.948   2.687  23.981  0.00  0.00    +0.140 A 
ATOM     22  F   UNL     1      -4.657   2.733  23.561  0.00  0.00    -0.204 F 
ATOM     23  C   UNL     1      -3.228   2.741  23.582  0.00  0.00    +0.029 A 
ATOM     24  C   UNL     1      -2.520   2.694  24.003  0.00  0.00    -0.000 A 
ENDBRANCH  17  18
ENDBRANCH  16  17
TORSDOF 5
ENDMDL
