REMARK  Name = 
REMARK  5 active torsions:
REMARK  status: ('A' for Active; 'I' for Inactive)
REMARK    1  A    between atoms: C_2  and  N_4
REMARK    2  A    between atoms: N_7  and  C_8
REMARK    3  A    between atoms: C_11  and  C_14
REMARK    4  A    between atoms: N_19  and  C_20
REMARK    5  A    between atoms: C_26  and  C_27
REMARK                            x       y       z     vdW  Elec       q    Type
REMARK                         _______ _______ _______ _____ _____    ______ ____
ROOT
ATOM     14  C   UNL     1      10.003  -5.775   0.000  0.00  0.00    +0.159 C 
ATOM     15  O   UNL     1      10.717  -5.362   0.000  0.00  0.00    -0.341 OA
ATOM     16  C   UNL     1      11.431  -5.775   0.000  0.00  0.00    +0.227 C 
ATOM     17  C   UNL     1      11.431  -6.600   0.000  0.00  0.00    +0.256 C 
ATOM     18  O   UNL     1      12.146  -7.013   0.000  0.00  0.00    -0.272 OA
ATOM     19  N   UNL     1      10.717  -7.013   0.000  0.00  0.00    -0.275 N 
ATOM     26  C   UNL     1      10.003  -6.600   0.000  0.00  0.00    +0.139 C 
ENDROOT
BRANCH  14  11
ATOM      8  C   UNL     1       7.859  -4.537   0.000  0.00  0.00    +0.075 A 
ATOM      9  C   UNL     1       8.574  -4.125   0.000  0.00  0.00    +0.016 A 
ATOM     10  C   UNL     1       9.288  -4.537   0.000  0.00  0.00    -0.001 A 
ATOM     11  C   UNL     1       9.288  -5.362   0.000  0.00  0.00    +0.006 A 
ATOM     12  C   UNL     1       8.574  -5.775   0.000  0.00  0.00    -0.001 A 
ATOM     13  C   UNL     1       7.859  -5.362   0.000  0.00  0.00    +0.016 A 
BRANCH   8   7
ATOM      4  N   UNL     1       5.716  -4.125   0.000  0.00  0.00    -0.189 NA
ATOM      5  C   UNL     1       6.430  -4.537   0.000  0.00  0.00    +0.343 C 
ATOM      6  O   UNL     1       6.430  -5.362   0.000  0.00  0.00    -0.249 OA
ATOM      7  N   UNL     1       7.145  -4.125   0.000  0.00  0.00    -0.161 NA
BRANCH   4   2
ATOM      1  C   UNL     1       4.287  -4.125   0.000  0.00  0.00    +0.023 C 
ATOM      2  C   UNL     1       5.001  -4.537   0.000  0.00  0.00    +0.097 C 
ATOM      3  C   UNL     1       5.001  -5.362   0.000  0.00  0.00    +0.023 C 
ENDBRANCH   4   2
ENDBRANCH   8   7
ENDBRANCH  14  11
BRANCH  19  20
ATOM     20  C   UNL     1      10.717  -7.838   0.000  0.00  0.00    +0.081 C 
ATOM     21  C   UNL     1      11.431  -8.250   0.000  0.00  0.00    +0.052 C 
ATOM     22  C   UNL     1      11.431  -9.075   0.000  0.00  0.00    +0.144 C 
ATOM     23  O   UNL     1      10.717  -9.488   0.000  0.00  0.00    -0.354 OA
ATOM     24  C   UNL     1      10.003  -9.075   0.000  0.00  0.00    +0.144 C 
ATOM     25  C   UNL     1      10.003  -8.250   0.000  0.00  0.00    +0.052 C 
ENDBRANCH  19  20
BRANCH  26  27
ATOM     27  C   UNL     1       9.288  -7.013   0.000  0.00  0.00    +0.205 C 
ATOM     28  O   UNL     1       8.574  -6.600   0.000  0.00  0.00    -0.218 OA
ENDBRANCH  26  27
TORSDOF 5
