MODEL 1
REMARK VINA RESULT:     -12.8      0.000      0.000
REMARK  Name = 
REMARK  6 active torsions:
REMARK  status: ('A' for Active; 'I' for Inactive)
REMARK    1  A    between atoms: C_2  and  C_4
REMARK    2  A    between atoms: C_7  and  N_10
REMARK    3  A    between atoms: C_14  and  C_15
REMARK    4  A    between atoms: C_17  and  N_18
REMARK    5  A    between atoms: N_18  and  C_19
REMARK    6  A    between atoms: C_19  and  C_20
REMARK                            x       y       z     vdW  Elec       q    Type
REMARK                         _______ _______ _______ _____ _____    ______ ____
ROOT
ATOM     10  N   UNL     1      -4.398   0.268  24.900  0.00  0.00    -0.234 N 
ATOM     11  N   UNL     1      -5.077   0.500  25.306  0.00  0.00    -0.170 NA
ATOM     12  C   UNL     1      -5.119   1.324  25.284  0.00  0.00    +0.077 A 
ATOM     13  C   UNL     1      -5.711   1.788  25.623  0.00  0.00    +0.054 C 
ATOM     14  C   UNL     1      -4.466   1.601  24.865  0.00  0.00    +0.010 A 
ATOM     28  C   UNL     1      -4.020   0.949  24.627  0.00  0.00    +0.058 A 
ATOM     29  C   UNL     1      -3.319   0.973  24.192  0.00  0.00    +0.052 C 
ENDROOT
BRANCH  10   7
ATOM      4  C   UNL     1      -3.627  -2.059  24.559  0.00  0.00    -0.022 A 
ATOM      5  C   UNL     1      -4.088  -1.688  23.983  0.00  0.00    -0.003 A 
ATOM      6  C   UNL     1      -4.344  -0.912  24.096  0.00  0.00    +0.019 A 
ATOM      7  C   UNL     1      -4.141  -0.508  24.786  0.00  0.00    +0.082 A 
ATOM      8  C   UNL     1      -3.681  -0.878  25.363  0.00  0.00    +0.019 A 
ATOM      9  C   UNL     1      -3.424  -1.654  25.249  0.00  0.00    -0.003 A 
BRANCH   4   2
ATOM      1  C   UNL     1      -2.575  -3.025  24.553  0.00  0.00    +0.005 C 
ATOM      2  C   UNL     1      -3.371  -2.835  24.445  0.00  0.00    +0.022 C 
ATOM      3  C   UNL     1      -3.910  -3.419  24.224  0.00  0.00    +0.005 C 
ENDBRANCH   4   2
ENDBRANCH  10   7
BRANCH  14  15
ATOM     15  C   UNL     1      -4.290   2.392  24.710  0.00  0.00    +0.048 C 
ATOM     16  C   UNL     1      -3.676   2.827  25.049  0.00  0.00    +0.031 C 
ATOM     17  C   UNL     1      -3.703   3.590  24.737  0.00  0.00    +0.095 C 
ATOM     26  C   UNL     1      -4.332   3.627  24.205  0.00  0.00    -0.013 C 
ATOM     27  C   UNL     1      -4.695   2.886  24.188  0.00  0.00    -0.025 C 
BRANCH  17  18
ATOM     18  N   UNL     1      -3.190   4.208  24.924  0.00  0.00    -0.209 NA
BRANCH  18  19
ATOM     19  C   UNL     1      -2.498   4.057  25.348  0.00  0.00    +0.134 C 
BRANCH  19  20
ATOM     20  C   UNL     1      -1.807   4.471  25.171  0.00  0.00    +0.077 A 
ATOM     21  N   UNL     1      -1.816   5.295  25.141  0.00  0.00    -0.247 NA
ATOM     22  C   UNL     1      -1.126   5.709  24.965  0.00  0.00    +0.098 A 
ATOM     23  C   UNL     1      -0.425   5.300  24.819  0.00  0.00    +0.021 A 
ATOM     24  C   UNL     1      -0.415   4.475  24.849  0.00  0.00    +0.003 A 
ATOM     25  C   UNL     1      -1.105   4.061  25.025  0.00  0.00    +0.016 A 
ENDBRANCH  19  20
ENDBRANCH  18  19
ENDBRANCH  17  18
ENDBRANCH  14  15
TORSDOF 6
ENDMDL
MODEL 2
REMARK VINA RESULT:     -10.9      0.958      5.661
REMARK  Name = 
REMARK  6 active torsions:
REMARK  status: ('A' for Active; 'I' for Inactive)
REMARK    1  A    between atoms: C_2  and  C_4
REMARK    2  A    between atoms: C_7  and  N_10
REMARK    3  A    between atoms: C_14  and  C_15
REMARK    4  A    between atoms: C_17  and  N_18
REMARK    5  A    between atoms: N_18  and  C_19
REMARK    6  A    between atoms: C_19  and  C_20
REMARK                            x       y       z     vdW  Elec       q    Type
REMARK                         _______ _______ _______ _____ _____    ______ ____
ROOT
ATOM     10  N   UNL     1      -3.619   3.184  25.251  0.00  0.00    -0.234 N 
ATOM     11  N   UNL     1      -4.339   3.328  25.628  0.00  0.00    -0.170 NA
ATOM     12  C   UNL     1      -4.796   2.643  25.573  0.00  0.00    +0.077 A 
ATOM     13  C   UNL     1      -5.557   2.543  25.876  0.00  0.00    +0.054 C 
ATOM     14  C   UNL     1      -4.360   2.077  25.162  0.00  0.00    +0.010 A 
ATOM     28  C   UNL     1      -3.632   2.412  24.963  0.00  0.00    +0.058 A 
ATOM     29  C   UNL     1      -3.024   2.038  24.549  0.00  0.00    +0.052 C 
ENDROOT
BRANCH  10   7
ATOM      4  C   UNL     1      -1.750   4.790  25.024  0.00  0.00    -0.022 A 
ATOM      5  C   UNL     1      -1.793   4.298  25.685  0.00  0.00    -0.003 A 
ATOM      6  C   UNL     1      -2.416   3.762  25.761  0.00  0.00    +0.019 A 
ATOM      7  C   UNL     1      -2.996   3.720  25.175  0.00  0.00    +0.082 A 
ATOM      8  C   UNL     1      -2.953   4.212  24.514  0.00  0.00    +0.019 A 
ATOM      9  C   UNL     1      -2.330   4.747  24.438  0.00  0.00    -0.003 A 
BRANCH   4   2
ATOM      1  C   UNL     1      -0.357   5.049  24.838  0.00  0.00    +0.005 C 
ATOM      2  C   UNL     1      -1.127   5.326  24.948  0.00  0.00    +0.022 C 
ATOM      3  C   UNL     1      -1.274   6.137  24.983  0.00  0.00    +0.005 C 
ENDBRANCH   4   2
ENDBRANCH  10   7
BRANCH  14  15
ATOM     15  C   UNL     1      -4.607   1.312  24.982  0.00  0.00    +0.048 C 
ATOM     16  C   UNL     1      -4.171   0.621  25.100  0.00  0.00    +0.031 C 
ATOM     17  C   UNL     1      -4.629  -0.016  24.842  0.00  0.00    +0.095 C 
ATOM     26  C   UNL     1      -5.346   0.280  24.566  0.00  0.00    -0.013 C 
ATOM     27  C   UNL     1      -5.334   1.101  24.652  0.00  0.00    -0.025 C 
BRANCH  17  18
ATOM     18  N   UNL     1      -4.406  -0.810  24.859  0.00  0.00    -0.209 NA
BRANCH  18  19
ATOM     19  C   UNL     1      -4.016  -1.143  24.212  0.00  0.00    +0.134 C 
BRANCH  19  20
ATOM     20  C   UNL     1      -3.542  -1.811  24.315  0.00  0.00    +0.077 A 
ATOM     21  N   UNL     1      -2.725  -1.729  24.394  0.00  0.00    -0.247 NA
ATOM     22  C   UNL     1      -2.253  -2.396  24.497  0.00  0.00    +0.098 A 
ATOM     23  C   UNL     1      -2.595  -3.146  24.521  0.00  0.00    +0.021 A 
ATOM     24  C   UNL     1      -3.413  -3.228  24.441  0.00  0.00    +0.003 A 
ATOM     25  C   UNL     1      -3.886  -2.561  24.338  0.00  0.00    +0.016 A 
ENDBRANCH  19  20
ENDBRANCH  18  19
ENDBRANCH  17  18
ENDBRANCH  14  15
TORSDOF 6
ENDMDL
MODEL 3
REMARK VINA RESULT:     -10.4      2.326      6.441
REMARK  Name = 
REMARK  6 active torsions:
REMARK  status: ('A' for Active; 'I' for Inactive)
REMARK    1  A    between atoms: C_2  and  C_4
REMARK    2  A    between atoms: C_7  and  N_10
REMARK    3  A    between atoms: C_14  and  C_15
REMARK    4  A    between atoms: C_17  and  N_18
REMARK    5  A    between atoms: N_18  and  C_19
REMARK    6  A    between atoms: C_19  and  C_20
REMARK                            x       y       z     vdW  Elec       q    Type
REMARK                         _______ _______ _______ _____ _____    ______ ____
ROOT
ATOM     10  N   UNL     1      -0.536   1.792  24.478  0.00  0.00    -0.234 N 
ATOM     11  N   UNL     1       0.059   1.526  23.972  0.00  0.00    -0.170 NA
ATOM     12  C   UNL     1       0.057   0.701  23.988  0.00  0.00    +0.077 A 
ATOM     13  C   UNL     1       0.563   0.207  23.562  0.00  0.00    +0.054 C 
ATOM     14  C   UNL     1      -0.537   0.457  24.503  0.00  0.00    +0.010 A 
ATOM     28  C   UNL     1      -0.904   1.132  24.807  0.00  0.00    +0.058 A 
ATOM     29  C   UNL     1      -1.530   1.143  25.344  0.00  0.00    +0.052 C 
ENDROOT
BRANCH  10   7
ATOM      4  C   UNL     1      -1.112   4.156  24.931  0.00  0.00    -0.022 A 
ATOM      5  C   UNL     1      -0.531   3.779  25.381  0.00  0.00    -0.003 A 
ATOM      6  C   UNL     1      -0.339   2.991  25.230  0.00  0.00    +0.019 A 
ATOM      7  C   UNL     1      -0.728   2.580  24.629  0.00  0.00    +0.082 A 
ATOM      8  C   UNL     1      -1.308   2.956  24.179  0.00  0.00    +0.019 A 
ATOM      9  C   UNL     1      -1.500   3.744  24.330  0.00  0.00    -0.003 A 
BRANCH   4   2
ATOM      1  C   UNL     1      -2.003   5.129  25.480  0.00  0.00    +0.005 C 
ATOM      2  C   UNL     1      -1.304   4.944  25.083  0.00  0.00    +0.022 C 
ATOM      3  C   UNL     1      -0.796   5.546  24.836  0.00  0.00    +0.005 C 
ENDBRANCH   4   2
ENDBRANCH  10   7
BRANCH  14  15
ATOM     15  C   UNL     1      -0.732  -0.323  24.685  0.00  0.00    +0.048 C 
ATOM     16  C   UNL     1      -1.384  -0.740  24.396  0.00  0.00    +0.031 C 
ATOM     17  C   UNL     1      -1.364  -1.499  24.720  0.00  0.00    +0.095 C 
ATOM     26  C   UNL     1      -0.702  -1.551  25.207  0.00  0.00    -0.013 C 
ATOM     27  C   UNL     1      -0.311  -0.825  25.186  0.00  0.00    -0.025 C 
BRANCH  17  18
ATOM     18  N   UNL     1      -1.911  -2.099  24.579  0.00  0.00    -0.209 NA
BRANCH  18  19
ATOM     19  C   UNL     1      -2.663  -2.061  24.919  0.00  0.00    +0.134 C 
BRANCH  19  20
ATOM     20  C   UNL     1      -3.321  -2.323  24.496  0.00  0.00    +0.077 A 
ATOM     21  N   UNL     1      -3.407  -3.124  24.320  0.00  0.00    -0.247 NA
ATOM     22  C   UNL     1      -4.065  -3.385  23.898  0.00  0.00    +0.098 A 
ATOM     23  C   UNL     1      -4.637  -2.845  23.650  0.00  0.00    +0.021 A 
ATOM     24  C   UNL     1      -4.551  -2.043  23.826  0.00  0.00    +0.003 A 
ATOM     25  C   UNL     1      -3.894  -1.782  24.249  0.00  0.00    +0.016 A 
ENDBRANCH  19  20
ENDBRANCH  18  19
ENDBRANCH  17  18
ENDBRANCH  14  15
TORSDOF 6
ENDMDL
MODEL 4
REMARK VINA RESULT:     -10.2      3.998      5.353
REMARK  Name = 
REMARK  6 active torsions:
REMARK  status: ('A' for Active; 'I' for Inactive)
REMARK    1  A    between atoms: C_2  and  C_4
REMARK    2  A    between atoms: C_7  and  N_10
REMARK    3  A    between atoms: C_14  and  C_15
REMARK    4  A    between atoms: C_17  and  N_18
REMARK    5  A    between atoms: N_18  and  C_19
REMARK    6  A    between atoms: C_19  and  C_20
REMARK                            x       y       z     vdW  Elec       q    Type
REMARK                         _______ _______ _______ _____ _____    ______ ____
ROOT
ATOM     10  N   UNL     1      -2.038   0.774  24.632  0.00  0.00    -0.234 N 
ATOM     11  N   UNL     1      -1.817   0.159  25.135  0.00  0.00    -0.170 NA
ATOM     12  C   UNL     1      -1.096  -0.142  24.869  0.00  0.00    +0.077 A 
ATOM     13  C   UNL     1      -0.674  -0.763  25.211  0.00  0.00    +0.054 C 
ATOM     14  C   UNL     1      -0.872   0.286  24.202  0.00  0.00    +0.010 A 
ATOM     28  C   UNL     1      -1.454   0.853  24.055  0.00  0.00    +0.058 A 
ATOM     29  C   UNL     1      -1.452   1.402  23.439  0.00  0.00    +0.052 C 
ENDROOT
BRANCH  10   7
ATOM      4  C   UNL     1      -4.092   2.141  24.820  0.00  0.00    -0.022 A 
ATOM      5  C   UNL     1      -4.132   1.376  24.512  0.00  0.00    -0.003 A 
ATOM      6  C   UNL     1      -3.447   0.920  24.449  0.00  0.00    +0.019 A 
ATOM      7  C   UNL     1      -2.723   1.230  24.695  0.00  0.00    +0.082 A 
ATOM      8  C   UNL     1      -2.682   1.994  25.003  0.00  0.00    +0.019 A 
ATOM      9  C   UNL     1      -3.367   2.450  25.065  0.00  0.00    -0.003 A 
BRANCH   4   2
ATOM      1  C   UNL     1      -5.510   2.229  24.971  0.00  0.00    +0.005 C 
ATOM      2  C   UNL     1      -4.777   2.597  24.883  0.00  0.00    +0.022 C 
ATOM      3  C   UNL     1      -4.727   3.421  24.857  0.00  0.00    +0.005 C 
ENDBRANCH   4   2
ENDBRANCH  10   7
BRANCH  14  15
ATOM     15  C   UNL     1      -0.186   0.170  23.759  0.00  0.00    +0.048 C 
ATOM     16  C   UNL     1       0.520   0.590  23.838  0.00  0.00    +0.031 C 
ATOM     17  C   UNL     1       1.056   0.292  23.287  0.00  0.00    +0.095 C 
ATOM     26  C   UNL     1       0.683  -0.311  22.867  0.00  0.00    -0.013 C 
ATOM     27  C   UNL     1      -0.085  -0.387  23.159  0.00  0.00    -0.025 C 
BRANCH  17  18
ATOM     18  N   UNL     1       1.831   0.553  23.175  0.00  0.00    -0.209 NA
BRANCH  18  19
ATOM     19  C   UNL     1       2.377   0.072  22.786  0.00  0.00    +0.134 C 
BRANCH  19  20
ATOM     20  C   UNL     1       3.185   0.212  22.870  0.00  0.00    +0.077 A 
ATOM     21  N   UNL     1       3.672  -0.363  23.204  0.00  0.00    -0.247 NA
ATOM     22  C   UNL     1       4.480  -0.223  23.288  0.00  0.00    +0.098 A 
ATOM     23  C   UNL     1       4.802   0.494  23.039  0.00  0.00    +0.021 A 
ATOM     24  C   UNL     1       4.315   1.071  22.704  0.00  0.00    +0.003 A 
ATOM     25  C   UNL     1       3.508   0.930  22.620  0.00  0.00    +0.016 A 
ENDBRANCH  19  20
ENDBRANCH  18  19
ENDBRANCH  17  18
ENDBRANCH  14  15
TORSDOF 6
ENDMDL
MODEL 5
REMARK VINA RESULT:     -10.1      3.100      4.799
REMARK  Name = 
REMARK  6 active torsions:
REMARK  status: ('A' for Active; 'I' for Inactive)
REMARK    1  A    between atoms: C_2  and  C_4
REMARK    2  A    between atoms: C_7  and  N_10
REMARK    3  A    between atoms: C_14  and  C_15
REMARK    4  A    between atoms: C_17  and  N_18
REMARK    5  A    between atoms: N_18  and  C_19
REMARK    6  A    between atoms: C_19  and  C_20
REMARK                            x       y       z     vdW  Elec       q    Type
REMARK                         _______ _______ _______ _____ _____    ______ ____
ROOT
ATOM     10  N   UNL     1      -3.531  -0.021  24.737  0.00  0.00    -0.234 N 
ATOM     11  N   UNL     1      -3.682  -0.808  24.543  0.00  0.00    -0.170 NA
ATOM     12  C   UNL     1      -2.958  -1.199  24.478  0.00  0.00    +0.077 A 
ATOM     13  C   UNL     1      -2.853  -1.995  24.291  0.00  0.00    +0.054 C 
ATOM     14  C   UNL     1      -2.360  -0.654  24.633  0.00  0.00    +0.010 A 
ATOM     28  C   UNL     1      -2.714   0.074  24.793  0.00  0.00    +0.058 A 
ATOM     29  C   UNL     1      -2.319   0.775  24.977  0.00  0.00    +0.052 C 
ENDROOT
BRANCH  10   7
ATOM      4  C   UNL     1      -5.230   1.743  25.092  0.00  0.00    -0.022 A 
ATOM      5  C   UNL     1      -4.676   1.819  24.484  0.00  0.00    -0.003 A 
ATOM      6  C   UNL     1      -4.110   1.231  24.366  0.00  0.00    +0.019 A 
ATOM      7  C   UNL     1      -4.097   0.567  24.856  0.00  0.00    +0.082 A 
ATOM      8  C   UNL     1      -4.650   0.490  25.463  0.00  0.00    +0.019 A 
ATOM      9  C   UNL     1      -5.217   1.078  25.581  0.00  0.00    -0.003 A 
BRANCH   4   2
ATOM      1  C   UNL     1      -6.597   2.160  25.105  0.00  0.00    +0.005 C 
ATOM      2  C   UNL     1      -5.796   2.332  25.210  0.00  0.00    +0.022 C 
ATOM      3  C   UNL     1      -5.562   3.090  25.434  0.00  0.00    +0.005 C 
ENDBRANCH   4   2
ENDBRANCH  10   7
BRANCH  14  15
ATOM     15  C   UNL     1      -1.550  -0.809  24.628  0.00  0.00    +0.048 C 
ATOM     16  C   UNL     1      -1.021  -0.607  24.028  0.00  0.00    +0.031 C 
ATOM     17  C   UNL     1      -0.271  -0.866  24.252  0.00  0.00    +0.095 C 
ATOM     26  C   UNL     1      -0.335  -1.228  24.990  0.00  0.00    -0.013 C 
ATOM     27  C   UNL     1      -1.126  -1.193  25.223  0.00  0.00    -0.025 C 
BRANCH  17  18
ATOM     18  N   UNL     1       0.423  -0.778  23.814  0.00  0.00    -0.209 NA
BRANCH  18  19
ATOM     19  C   UNL     1       0.559  -0.082  23.392  0.00  0.00    +0.134 C 
BRANCH  19  20
ATOM     20  C   UNL     1       1.292   0.048  23.036  0.00  0.00    +0.077 A 
ATOM     21  N   UNL     1       1.484  -0.337  22.333  0.00  0.00    -0.247 NA
ATOM     22  C   UNL     1       2.216  -0.207  21.978  0.00  0.00    +0.098 A 
ATOM     23  C   UNL     1       2.758   0.308  22.326  0.00  0.00    +0.021 A 
ATOM     24  C   UNL     1       2.567   0.694  23.030  0.00  0.00    +0.003 A 
ATOM     25  C   UNL     1       1.834   0.564  23.385  0.00  0.00    +0.016 A 
ENDBRANCH  19  20
ENDBRANCH  18  19
ENDBRANCH  17  18
ENDBRANCH  14  15
TORSDOF 6
ENDMDL
MODEL 6
REMARK VINA RESULT:     -10.1      2.892      4.691
REMARK  Name = 
REMARK  6 active torsions:
REMARK  status: ('A' for Active; 'I' for Inactive)
REMARK    1  A    between atoms: C_2  and  C_4
REMARK    2  A    between atoms: C_7  and  N_10
REMARK    3  A    between atoms: C_14  and  C_15
REMARK    4  A    between atoms: C_17  and  N_18
REMARK    5  A    between atoms: N_18  and  C_19
REMARK    6  A    between atoms: C_19  and  C_20
REMARK                            x       y       z     vdW  Elec       q    Type
REMARK                         _______ _______ _______ _____ _____    ______ ____
ROOT
ATOM     10  N   UNL     1      -2.959   2.999  25.110  0.00  0.00    -0.234 N 
ATOM     11  N   UNL     1      -2.683   3.772  25.029  0.00  0.00    -0.170 NA
ATOM     12  C   UNL     1      -1.859   3.746  24.988  0.00  0.00    +0.077 A 
ATOM     13  C   UNL     1      -1.357   4.395  24.905  0.00  0.00    +0.054 C 
ATOM     14  C   UNL     1      -1.626   2.957  25.043  0.00  0.00    +0.010 A 
ATOM     28  C   UNL     1      -2.306   2.495  25.119  0.00  0.00    +0.058 A 
ATOM     29  C   UNL     1      -2.329   1.674  25.191  0.00  0.00    +0.052 C 
ENDROOT
BRANCH  10   7
ATOM      4  C   UNL     1      -5.330   2.313  25.294  0.00  0.00    -0.022 A 
ATOM      5  C   UNL     1      -4.855   1.999  24.696  0.00  0.00    -0.003 A 
ATOM      6  C   UNL     1      -4.064   2.228  24.635  0.00  0.00    +0.019 A 
ATOM      7  C   UNL     1      -3.750   2.771  25.171  0.00  0.00    +0.082 A 
ATOM      8  C   UNL     1      -4.224   3.084  25.769  0.00  0.00    +0.019 A 
ATOM      9  C   UNL     1      -5.014   2.856  25.831  0.00  0.00    -0.003 A 
BRANCH   4   2
ATOM      1  C   UNL     1      -6.474   2.019  26.099  0.00  0.00    +0.005 C 
ATOM      2  C   UNL     1      -6.120   2.084  25.356  0.00  0.00    +0.022 C 
ATOM      3  C   UNL     1      -6.556   1.921  24.674  0.00  0.00    +0.005 C 
ENDBRANCH   4   2
ENDBRANCH  10   7
BRANCH  14  15
ATOM     15  C   UNL     1      -0.851   2.678  25.026  0.00  0.00    +0.048 C 
ATOM     16  C   UNL     1      -0.449   2.401  24.360  0.00  0.00    +0.031 C 
ATOM     17  C   UNL     1       0.309   2.179  24.595  0.00  0.00    +0.095 C 
ATOM     26  C   UNL     1       0.378   2.318  25.405  0.00  0.00    -0.013 C 
ATOM     27  C   UNL     1      -0.339   2.627  25.672  0.00  0.00    -0.025 C 
BRANCH  17  18
ATOM     18  N   UNL     1       0.897   1.871  24.105  0.00  0.00    -0.209 NA
BRANCH  18  19
ATOM     19  C   UNL     1       0.898   1.067  23.916  0.00  0.00    +0.134 C 
BRANCH  19  20
ATOM     20  C   UNL     1       1.473   0.763  23.408  0.00  0.00    +0.077 A 
ATOM     21  N   UNL     1       2.238   1.072  23.418  0.00  0.00    -0.247 NA
ATOM     22  C   UNL     1       2.812   0.768  22.911  0.00  0.00    +0.098 A 
ATOM     23  C   UNL     1       2.623   0.155  22.393  0.00  0.00    +0.021 A 
ATOM     24  C   UNL     1       1.857  -0.155  22.383  0.00  0.00    +0.003 A 
ATOM     25  C   UNL     1       1.283   0.149  22.890  0.00  0.00    +0.016 A 
ENDBRANCH  19  20
ENDBRANCH  18  19
ENDBRANCH  17  18
ENDBRANCH  14  15
TORSDOF 6
ENDMDL
MODEL 7
REMARK VINA RESULT:      -9.6      2.967      4.707
REMARK  Name = 
REMARK  6 active torsions:
REMARK  status: ('A' for Active; 'I' for Inactive)
REMARK    1  A    between atoms: C_2  and  C_4
REMARK    2  A    between atoms: C_7  and  N_10
REMARK    3  A    between atoms: C_14  and  C_15
REMARK    4  A    between atoms: C_17  and  N_18
REMARK    5  A    between atoms: N_18  and  C_19
REMARK    6  A    between atoms: C_19  and  C_20
REMARK                            x       y       z     vdW  Elec       q    Type
REMARK                         _______ _______ _______ _____ _____    ______ ____
ROOT
ATOM     10  N   UNL     1       0.122   1.806  24.642  0.00  0.00    -0.234 N 
ATOM     11  N   UNL     1       0.330   1.941  25.429  0.00  0.00    -0.170 NA
ATOM     12  C   UNL     1      -0.240   2.437  25.762  0.00  0.00    +0.077 A 
ATOM     13  C   UNL     1      -0.247   2.712  26.540  0.00  0.00    +0.054 C 
ATOM     14  C   UNL     1      -0.799   2.608  25.182  0.00  0.00    +0.010 A 
ATOM     28  C   UNL     1      -0.576   2.218  24.490  0.00  0.00    +0.058 A 
ATOM     29  C   UNL     1      -0.981   2.237  23.771  0.00  0.00    +0.052 C 
ENDROOT
BRANCH  10   7
ATOM      4  C   UNL     1       1.371   0.410  23.025  0.00  0.00    -0.022 A 
ATOM      5  C   UNL     1       0.656   0.140  23.339  0.00  0.00    -0.003 A 
ATOM      6  C   UNL     1       0.240   0.605  23.878  0.00  0.00    +0.019 A 
ATOM      7  C   UNL     1       0.538   1.341  24.103  0.00  0.00    +0.082 A 
ATOM      8  C   UNL     1       1.252   1.612  23.790  0.00  0.00    +0.019 A 
ATOM      9  C   UNL     1       1.668   1.146  23.251  0.00  0.00    -0.003 A 
BRANCH   4   2
ATOM      1  C   UNL     1       1.380  -0.479  21.906  0.00  0.00    +0.005 C 
ATOM      2  C   UNL     1       1.787  -0.055  22.486  0.00  0.00    +0.022 C 
ATOM      3  C   UNL     1       2.610  -0.097  22.527  0.00  0.00    +0.005 C 
ENDBRANCH   4   2
ENDBRANCH  10   7
BRANCH  14  15
ATOM     15  C   UNL     1      -1.465   3.085  25.277  0.00  0.00    +0.048 C 
ATOM     16  C   UNL     1      -2.232   2.822  25.430  0.00  0.00    +0.031 C 
ATOM     17  C   UNL     1      -2.722   3.483  25.482  0.00  0.00    +0.095 C 
ATOM     26  C   UNL     1      -2.260   4.155  25.362  0.00  0.00    -0.013 C 
ATOM     27  C   UNL     1      -1.482   3.909  25.235  0.00  0.00    -0.025 C 
BRANCH  17  18
ATOM     18  N   UNL     1      -3.534   3.474  25.630  0.00  0.00    -0.209 NA
BRANCH  18  19
ATOM     19  C   UNL     1      -4.063   3.316  25.016  0.00  0.00    +0.134 C 
BRANCH  19  20
ATOM     20  C   UNL     1      -4.775   2.929  25.175  0.00  0.00    +0.077 A 
ATOM     21  N   UNL     1      -5.239   3.165  25.814  0.00  0.00    -0.247 NA
ATOM     22  C   UNL     1      -5.950   2.778  25.972  0.00  0.00    +0.098 A 
ATOM     23  C   UNL     1      -6.197   2.156  25.492  0.00  0.00    +0.021 A 
ATOM     24  C   UNL     1      -5.732   1.919  24.851  0.00  0.00    +0.003 A 
ATOM     25  C   UNL     1      -5.022   2.306  24.693  0.00  0.00    +0.016 A 
ENDBRANCH  19  20
ENDBRANCH  18  19
ENDBRANCH  17  18
ENDBRANCH  14  15
TORSDOF 6
ENDMDL
MODEL 8
REMARK VINA RESULT:      -9.6      2.100      3.023
REMARK  Name = 
REMARK  6 active torsions:
REMARK  status: ('A' for Active; 'I' for Inactive)
REMARK    1  A    between atoms: C_2  and  C_4
REMARK    2  A    between atoms: C_7  and  N_10
REMARK    3  A    between atoms: C_14  and  C_15
REMARK    4  A    between atoms: C_17  and  N_18
REMARK    5  A    between atoms: N_18  and  C_19
REMARK    6  A    between atoms: C_19  and  C_20
REMARK                            x       y       z     vdW  Elec       q    Type
REMARK                         _______ _______ _______ _____ _____    ______ ____
ROOT
ATOM     10  N   UNL     1      -1.357  -0.568  24.302  0.00  0.00    -0.234 N 
ATOM     11  N   UNL     1      -0.670  -0.602  23.847  0.00  0.00    -0.170 NA
ATOM     12  C   UNL     1      -0.238   0.087  23.985  0.00  0.00    +0.077 A 
ATOM     13  C   UNL     1       0.487   0.282  23.642  0.00  0.00    +0.054 C 
ATOM     14  C   UNL     1      -0.657   0.547  24.525  0.00  0.00    +0.010 A 
ATOM     28  C   UNL     1      -1.349   0.142  24.722  0.00  0.00    +0.058 A 
ATOM     29  C   UNL     1      -1.931   0.402  25.246  0.00  0.00    +0.052 C 
ENDROOT
BRANCH  10   7
ATOM      4  C   UNL     1      -3.129  -2.293  24.394  0.00  0.00    -0.022 A 
ATOM      5  C   UNL     1      -2.352  -2.488  24.595  0.00  0.00    -0.003 A 
ATOM      6  C   UNL     1      -1.761  -1.913  24.564  0.00  0.00    +0.019 A 
ATOM      7  C   UNL     1      -1.947  -1.143  24.333  0.00  0.00    +0.082 A 
ATOM      8  C   UNL     1      -2.723  -0.948  24.132  0.00  0.00    +0.019 A 
ATOM      9  C   UNL     1      -3.314  -1.523  24.163  0.00  0.00    -0.003 A 
BRANCH   4   2
ATOM      1  C   UNL     1      -3.679  -3.472  24.987  0.00  0.00    +0.005 C 
ATOM      2  C   UNL     1      -3.720  -2.869  24.425  0.00  0.00    +0.022 C 
ATOM      3  C   UNL     1      -4.351  -2.840  23.894  0.00  0.00    +0.005 C 
ENDBRANCH   4   2
ENDBRANCH  10   7
BRANCH  14  15
ATOM     15  C   UNL     1      -0.426   1.282  24.819  0.00  0.00    +0.048 C 
ATOM     16  C   UNL     1      -0.711   2.015  24.568  0.00  0.00    +0.031 C 
ATOM     17  C   UNL     1      -0.330   2.600  25.009  0.00  0.00    +0.095 C 
ATOM     26  C   UNL     1       0.189   2.229  25.531  0.00  0.00    -0.013 C 
ATOM     27  C   UNL     1       0.130   1.414  25.414  0.00  0.00    -0.025 C 
BRANCH  17  18
ATOM     18  N   UNL     1      -0.449   3.413  24.939  0.00  0.00    -0.209 NA
BRANCH  18  19
ATOM     19  C   UNL     1      -0.882   3.818  25.513  0.00  0.00    +0.134 C 
BRANCH  19  20
ATOM     20  C   UNL     1      -1.253   4.530  25.324  0.00  0.00    +0.077 A 
ATOM     21  N   UNL     1      -2.047   4.645  25.516  0.00  0.00    -0.247 NA
ATOM     22  C   UNL     1      -2.418   5.357  25.327  0.00  0.00    +0.098 A 
ATOM     23  C   UNL     1      -1.996   5.954  24.946  0.00  0.00    +0.021 A 
ATOM     24  C   UNL     1      -1.201   5.840  24.755  0.00  0.00    +0.003 A 
ATOM     25  C   UNL     1      -0.830   5.128  24.944  0.00  0.00    +0.016 A 
ENDBRANCH  19  20
ENDBRANCH  18  19
ENDBRANCH  17  18
ENDBRANCH  14  15
TORSDOF 6
ENDMDL
MODEL 9
REMARK VINA RESULT:      -9.3      3.032      4.553
REMARK  Name = 
REMARK  6 active torsions:
REMARK  status: ('A' for Active; 'I' for Inactive)
REMARK    1  A    between atoms: C_2  and  C_4
REMARK    2  A    between atoms: C_7  and  N_10
REMARK    3  A    between atoms: C_14  and  C_15
REMARK    4  A    between atoms: C_17  and  N_18
REMARK    5  A    between atoms: N_18  and  C_19
REMARK    6  A    between atoms: C_19  and  C_20
REMARK                            x       y       z     vdW  Elec       q    Type
REMARK                         _______ _______ _______ _____ _____    ______ ____
ROOT
ATOM     10  N   UNL     1      -0.631  -0.186  24.299  0.00  0.00    -0.234 N 
ATOM     11  N   UNL     1      -0.714  -0.621  24.995  0.00  0.00    -0.170 NA
ATOM     12  C   UNL     1      -1.509  -0.601  25.216  0.00  0.00    +0.077 A 
ATOM     13  C   UNL     1      -1.837  -0.965  25.879  0.00  0.00    +0.054 C 
ATOM     14  C   UNL     1      -1.917  -0.154  24.657  0.00  0.00    +0.010 A 
ATOM     28  C   UNL     1      -1.375   0.103  24.090  0.00  0.00    +0.058 A 
ATOM     29  C   UNL     1      -1.547   0.568  23.430  0.00  0.00    +0.052 C 
ENDROOT
BRANCH  10   7
ATOM      4  C   UNL     1       1.477   0.189  23.058  0.00  0.00    -0.022 A 
ATOM      5  C   UNL     1       1.177   0.780  23.550  0.00  0.00    -0.003 A 
ATOM      6  C   UNL     1       0.474   0.655  23.964  0.00  0.00    +0.019 A 
ATOM      7  C   UNL     1       0.071  -0.061  23.885  0.00  0.00    +0.082 A 
ATOM      8  C   UNL     1       0.370  -0.652  23.393  0.00  0.00    +0.019 A 
ATOM      9  C   UNL     1       1.073  -0.527  22.980  0.00  0.00    -0.003 A 
BRANCH   4   2
ATOM      1  C   UNL     1       2.787   0.754  22.987  0.00  0.00    +0.005 C 
ATOM      2  C   UNL     1       2.179   0.314  22.644  0.00  0.00    +0.022 C 
ATOM      3  C   UNL     1       2.274  -0.002  21.887  0.00  0.00    +0.005 C 
ENDBRANCH   4   2
ENDBRANCH  10   7
BRANCH  14  15
ATOM     15  C   UNL     1      -2.726   0.009  24.663  0.00  0.00    +0.048 C 
ATOM     16  C   UNL     1      -3.084   0.677  24.989  0.00  0.00    +0.031 C 
ATOM     17  C   UNL     1      -3.898   0.612  24.871  0.00  0.00    +0.095 C 
ATOM     26  C   UNL     1      -4.043  -0.094  24.473  0.00  0.00    -0.013 C 
ATOM     27  C   UNL     1      -3.319  -0.468  24.344  0.00  0.00    -0.025 C 
BRANCH  17  18
ATOM     18  N   UNL     1      -4.467   1.160  25.110  0.00  0.00    -0.209 NA
BRANCH  18  19
ATOM     19  C   UNL     1      -4.622   1.824  24.645  0.00  0.00    +0.134 C 
BRANCH  19  20
ATOM     20  C   UNL     1      -4.956   2.498  24.985  0.00  0.00    +0.077 A 
ATOM     21  N   UNL     1      -5.676   2.445  25.383  0.00  0.00    -0.247 NA
ATOM     22  C   UNL     1      -6.010   3.117  25.723  0.00  0.00    +0.098 A 
ATOM     23  C   UNL     1      -5.624   3.844  25.666  0.00  0.00    +0.021 A 
ATOM     24  C   UNL     1      -4.902   3.897  25.267  0.00  0.00    +0.003 A 
ATOM     25  C   UNL     1      -4.569   3.225  24.928  0.00  0.00    +0.016 A 
ENDBRANCH  19  20
ENDBRANCH  18  19
ENDBRANCH  17  18
ENDBRANCH  14  15
TORSDOF 6
ENDMDL
