REMARK  Name = 
REMARK  8 active torsions:
REMARK  status: ('A' for Active; 'I' for Inactive)
REMARK    1  A    between atoms: N_2  and  C_4
REMARK    2  A    between atoms: C_8  and  O_9
REMARK    3  A    between atoms: O_9  and  C_10
REMARK    4  A    between atoms: N_14  and  C_15
REMARK    5  A    between atoms: C_19  and  N_23
REMARK    6  A    between atoms: C_24  and  C_26
REMARK    7  A    between atoms: C_26  and  C_27
REMARK    8  A    between atoms: C_27  and  C_28
REMARK                            x       y       z     vdW  Elec       q    Type
REMARK                         _______ _______ _______ _____ _____    ______ ____
ROOT
ATOM     15  C   UNL     1      -2.361   1.740   0.000  0.00  0.00    +0.170 C 
ATOM     16  C   UNL     1      -1.608   2.076   0.000  0.00  0.00    +0.169 C 
ATOM     17  O   UNL     1      -1.056   1.462   0.000  0.00  0.00    -0.350 OA
ATOM     18  C   UNL     1      -1.468   0.748   0.000  0.00  0.00    +0.167 C 
ATOM     19  C   UNL     1      -1.382  -0.072   0.000  0.00  0.00    +0.154 C 
ATOM     20  C   UNL     1      -2.136  -0.408   0.000  0.00  0.00    +0.166 C 
ATOM     21  O   UNL     1      -2.688   0.205   0.000  0.00  0.00    -0.350 OA
ATOM     22  C   UNL     1      -2.275   0.920   0.000  0.00  0.00    +0.169 C 
ENDROOT
BRANCH  15  14
ATOM     10  C   UNL     1      -3.829   1.817   0.000  0.00  0.00    +0.343 A 
ATOM     11  N   UNL     1      -4.381   2.430   0.000  0.00  0.00    -0.071 NA
ATOM     12  N   UNL     1      -3.969   3.145   0.000  0.00  0.00    -0.020 NA
ATOM     13  N   UNL     1      -3.162   2.973   0.000  0.00  0.00    -0.040 NA
ATOM     14  N   UNL     1      -3.076   2.153   0.000  0.00  0.00    -0.180 N 
BRANCH  10   9
ATOM      9  O   UNL     1      -4.001   1.010   0.000  0.00  0.00    -0.421 OA
BRANCH   9   8
ATOM      4  C   UNL     1      -5.742  -0.307   0.000  0.00  0.00    +0.051 A 
ATOM      5  C   UNL     1      -6.355   0.245   0.000  0.00  0.00    +0.015 A 
ATOM      6  C   UNL     1      -6.183   1.052   0.000  0.00  0.00    +0.004 A 
ATOM      7  C   UNL     1      -5.399   1.307   0.000  0.00  0.00    +0.038 A 
ATOM      8  C   UNL     1      -4.786   0.755   0.000  0.00  0.00    +0.150 A 
ATOM     31  C   UNL     1      -4.957  -0.052   0.000  0.00  0.00    +0.052 A 
BRANCH   4   2
ATOM      1  C   UNL     1      -6.698  -1.369   0.000  0.00  0.00    +0.112 C 
ATOM      2  N   UNL     1      -5.913  -1.114   0.000  0.00  0.00    -0.304 N 
ATOM      3  C   UNL     1      -5.300  -1.666   0.000  0.00  0.00    +0.112 C 
ENDBRANCH   4   2
ENDBRANCH   9   8
ENDBRANCH  10   9
ENDBRANCH  15  14
BRANCH  19  23
ATOM     23  N   UNL     1      -0.667  -0.485   0.000  0.00  0.00    -0.202 NA
ATOM     24  C   UNL     1       0.047  -0.072   0.000  0.00  0.00    +0.242 C 
ATOM     25  O   UNL     1       0.047   0.753   0.000  0.00  0.00    -0.273 OA
BRANCH  24  26
ATOM     26  C   UNL     1       0.761  -0.485   0.000  0.00  0.00    +0.099 C 
BRANCH  26  27
ATOM     27  C   UNL     1       1.476  -0.072   0.000  0.00  0.00    +0.124 C 
BRANCH  27  28
ATOM     28  C   UNL     1       2.190  -0.485   0.000  0.00  0.00    +0.365 C 
ATOM     29  O   UNL     1       2.905  -0.072   0.000  0.00  0.00    -0.246 OA
ATOM     30  O   UNL     1       2.190  -1.310   0.000  0.00  0.00    -0.246 OA
ENDBRANCH  27  28
ENDBRANCH  26  27
ENDBRANCH  24  26
ENDBRANCH  19  23
TORSDOF 8
