MODEL 1
REMARK VINA RESULT:     -12.0      0.000      0.000
REMARK  Name = 
REMARK  5 active torsions:
REMARK  status: ('A' for Active; 'I' for Inactive)
REMARK    1  A    between atoms: S_2  and  N_4
REMARK    2  A    between atoms: S_2  and  C_20
REMARK    3  A    between atoms: C_7  and  C_9
REMARK    4  A    between atoms: C_12  and  C_14
REMARK    5  A    between atoms: C_23  and  C_26
REMARK                            x       y       z     vdW  Elec       q    Type
REMARK                         _______ _______ _______ _____ _____    ______ ____
ROOT
ATOM      4  N   UNL     1      -4.189   1.018  24.858  0.00  0.00    -0.155 NA
ATOM      5  C   UNL     1      -4.898   1.432  24.779  0.00  0.00    +0.096 C 
ATOM      6  C   UNL     1      -4.748   2.229  24.932  0.00  0.00    +0.030 C 
ATOM      7  C   UNL     1      -3.946   2.308  25.105  0.00  0.00    +0.097 C 
ATOM      8  C   UNL     1      -3.600   1.560  25.060  0.00  0.00    +0.105 C 
ENDROOT
BRANCH   7   9
ATOM      9  C   UNL     1      -3.557   3.011  25.292  0.00  0.00    +0.227 A 
ATOM     10  N   UNL     1      -3.823   3.587  25.820  0.00  0.00    -0.111 NA
ATOM     11  N   UNL     1      -3.264   4.194  25.837  0.00  0.00    -0.107 NA
ATOM     12  C   UNL     1      -2.653   3.994  25.321  0.00  0.00    +0.250 A 
ATOM     13  O   UNL     1      -2.834   3.262  24.983  0.00  0.00    -0.419 OA
BRANCH  12  14
ATOM     14  C   UNL     1      -1.980   4.445  25.168  0.00  0.00    +0.055 A 
ATOM     15  C   UNL     1      -2.036   5.267  25.121  0.00  0.00    +0.005 A 
ATOM     16  C   UNL     1      -1.362   5.718  24.968  0.00  0.00    +0.000 A 
ATOM     17  C   UNL     1      -0.633   5.348  24.862  0.00  0.00    +0.000 A 
ATOM     18  C   UNL     1      -0.577   4.526  24.909  0.00  0.00    +0.000 A 
ATOM     19  C   UNL     1      -1.250   4.074  25.062  0.00  0.00    +0.005 A 
ENDBRANCH  12  14
ENDBRANCH   7   9
BRANCH   4   2
ATOM      1  O   UNL     1      -3.702   0.348  24.038  0.00  0.00    -0.153 OA
ATOM      2  S   UNL     1      -4.086   0.207  24.754  0.00  0.00    +0.063 S 
ATOM      3  O   UNL     1      -4.472   0.067  25.471  0.00  0.00    -0.153 OA
BRANCH   2  20
ATOM     20  C   UNL     1      -3.984  -0.605  24.650  0.00  0.00    +0.122 A 
ATOM     21  C   UNL     1      -3.562  -1.042  25.209  0.00  0.00    +0.021 A 
ATOM     22  C   UNL     1      -3.459  -1.854  25.105  0.00  0.00    +0.012 A 
ATOM     23  C   UNL     1      -3.778  -2.229  24.442  0.00  0.00    +0.069 A 
ATOM     24  C   UNL     1      -4.199  -1.791  23.884  0.00  0.00    +0.012 A 
ATOM     25  C   UNL     1      -4.302  -0.980  23.988  0.00  0.00    +0.021 A 
BRANCH  23  26
ATOM     26  C   UNL     1      -3.675  -3.040  24.338  0.00  0.00    +0.100 C 
ATOM     27  N   UNL     1      -3.572  -3.853  24.234  0.00  0.00    -0.191 NA
ENDBRANCH  23  26
ENDBRANCH   2  20
ENDBRANCH   4   2
TORSDOF 5
ENDMDL
MODEL 2
REMARK VINA RESULT:     -10.6      1.836      2.248
REMARK  Name = 
REMARK  5 active torsions:
REMARK  status: ('A' for Active; 'I' for Inactive)
REMARK    1  A    between atoms: S_2  and  N_4
REMARK    2  A    between atoms: S_2  and  C_20
REMARK    3  A    between atoms: C_7  and  C_9
REMARK    4  A    between atoms: C_12  and  C_14
REMARK    5  A    between atoms: C_23  and  C_26
REMARK                            x       y       z     vdW  Elec       q    Type
REMARK                         _______ _______ _______ _____ _____    ______ ____
ROOT
ATOM      4  N   UNL     1      -1.709  -0.089  25.244  0.00  0.00    -0.155 NA
ATOM      5  C   UNL     1      -1.025  -0.296  25.656  0.00  0.00    +0.096 C 
ATOM      6  C   UNL     1      -0.626   0.398  25.854  0.00  0.00    +0.030 C 
ATOM      7  C   UNL     1      -1.063   1.035  25.564  0.00  0.00    +0.097 C 
ATOM      8  C   UNL     1      -1.733   0.734  25.187  0.00  0.00    +0.105 C 
ENDROOT
BRANCH   7   9
ATOM      9  C   UNL     1      -0.867   1.832  25.638  0.00  0.00    +0.227 A 
ATOM     10  N   UNL     1      -0.187   2.133  25.997  0.00  0.00    -0.111 NA
ATOM     11  N   UNL     1      -0.215   2.956  25.947  0.00  0.00    -0.107 NA
ATOM     12  C   UNL     1      -0.911   3.164  25.558  0.00  0.00    +0.250 A 
ATOM     13  O   UNL     1      -1.315   2.470  25.367  0.00  0.00    -0.419 OA
BRANCH  12  14
ATOM     14  C   UNL     1      -1.161   3.932  25.389  0.00  0.00    +0.055 A 
ATOM     15  C   UNL     1      -1.904   4.189  25.641  0.00  0.00    +0.005 A 
ATOM     16  C   UNL     1      -2.153   4.958  25.472  0.00  0.00    +0.000 A 
ATOM     17  C   UNL     1      -1.661   5.468  25.051  0.00  0.00    +0.000 A 
ATOM     18  C   UNL     1      -0.918   5.211  24.799  0.00  0.00    +0.000 A 
ATOM     19  C   UNL     1      -0.669   4.443  24.968  0.00  0.00    +0.005 A 
ENDBRANCH  12  14
ENDBRANCH   7   9
BRANCH   4   2
ATOM      1  O   UNL     1      -1.912  -0.568  24.201  0.00  0.00    -0.153 OA
ATOM      2  S   UNL     1      -2.270  -0.612  24.943  0.00  0.00    +0.063 S 
ATOM      3  O   UNL     1      -2.628  -0.657  25.686  0.00  0.00    -0.153 OA
BRANCH   2  20
ATOM     20  C   UNL     1      -2.832  -1.136  24.640  0.00  0.00    +0.122 A 
ATOM     21  C   UNL     1      -3.500  -0.845  24.252  0.00  0.00    +0.021 A 
ATOM     22  C   UNL     1      -4.062  -1.369  23.950  0.00  0.00    +0.012 A 
ATOM     23  C   UNL     1      -3.956  -2.183  24.036  0.00  0.00    +0.069 A 
ATOM     24  C   UNL     1      -3.288  -2.473  24.424  0.00  0.00    +0.012 A 
ATOM     25  C   UNL     1      -2.726  -1.949  24.726  0.00  0.00    +0.021 A 
BRANCH  23  26
ATOM     26  C   UNL     1      -4.517  -2.706  23.735  0.00  0.00    +0.100 C 
ATOM     27  N   UNL     1      -5.079  -3.230  23.432  0.00  0.00    -0.191 NA
ENDBRANCH  23  26
ENDBRANCH   2  20
ENDBRANCH   4   2
TORSDOF 5
ENDMDL
MODEL 3
REMARK VINA RESULT:     -10.3      2.021      6.148
REMARK  Name = 
REMARK  5 active torsions:
REMARK  status: ('A' for Active; 'I' for Inactive)
REMARK    1  A    between atoms: S_2  and  N_4
REMARK    2  A    between atoms: S_2  and  C_20
REMARK    3  A    between atoms: C_7  and  C_9
REMARK    4  A    between atoms: C_12  and  C_14
REMARK    5  A    between atoms: C_23  and  C_26
REMARK                            x       y       z     vdW  Elec       q    Type
REMARK                         _______ _______ _______ _____ _____    ______ ____
ROOT
ATOM      4  N   UNL     1      -0.974   1.607  25.035  0.00  0.00    -0.155 NA
ATOM      5  C   UNL     1      -0.243   1.227  24.991  0.00  0.00    +0.096 C 
ATOM      6  C   UNL     1      -0.378   0.412  24.996  0.00  0.00    +0.030 C 
ATOM      7  C   UNL     1      -1.193   0.290  25.043  0.00  0.00    +0.097 C 
ATOM      8  C   UNL     1      -1.561   1.028  25.067  0.00  0.00    +0.105 C 
ENDROOT
BRANCH   7   9
ATOM      9  C   UNL     1      -1.572  -0.442  25.063  0.00  0.00    +0.227 A 
ATOM     10  N   UNL     1      -1.342  -1.097  25.510  0.00  0.00    -0.111 NA
ATOM     11  N   UNL     1      -1.876  -1.708  25.362  0.00  0.00    -0.107 NA
ATOM     12  C   UNL     1      -2.437  -1.431  24.824  0.00  0.00    +0.250 A 
ATOM     13  O   UNL     1      -2.250  -0.649  24.639  0.00  0.00    -0.419 OA
BRANCH  12  14
ATOM     14  C   UNL     1      -3.074  -1.861  24.525  0.00  0.00    +0.055 A 
ATOM     15  C   UNL     1      -3.717  -1.467  24.189  0.00  0.00    +0.005 A 
ATOM     16  C   UNL     1      -4.354  -1.898  23.889  0.00  0.00    +0.000 A 
ATOM     17  C   UNL     1      -4.348  -2.722  23.925  0.00  0.00    +0.000 A 
ATOM     18  C   UNL     1      -3.705  -3.116  24.260  0.00  0.00    +0.000 A 
ATOM     19  C   UNL     1      -3.069  -2.686  24.560  0.00  0.00    +0.005 A 
ENDBRANCH  12  14
ENDBRANCH   7   9
BRANCH   4   2
ATOM      1  O   UNL     1      -1.276   2.404  24.240  0.00  0.00    -0.153 OA
ATOM      2  S   UNL     1      -1.096   2.422  25.045  0.00  0.00    +0.063 S 
ATOM      3  O   UNL     1      -0.915   2.439  25.850  0.00  0.00    -0.153 OA
BRANCH   2  20
ATOM     20  C   UNL     1      -1.219   3.238  25.055  0.00  0.00    +0.122 A 
ATOM     21  C   UNL     1      -0.655   3.744  24.726  0.00  0.00    +0.021 A 
ATOM     22  C   UNL     1      -0.778   4.560  24.736  0.00  0.00    +0.012 A 
ATOM     23  C   UNL     1      -1.464   4.870  25.075  0.00  0.00    +0.069 A 
ATOM     24  C   UNL     1      -2.026   4.364  25.403  0.00  0.00    +0.012 A 
ATOM     25  C   UNL     1      -1.904   3.548  25.393  0.00  0.00    +0.021 A 
BRANCH  23  26
ATOM     26  C   UNL     1      -1.586   5.685  25.084  0.00  0.00    +0.100 C 
ATOM     27  N   UNL     1      -1.709   6.502  25.094  0.00  0.00    -0.191 NA
ENDBRANCH  23  26
ENDBRANCH   2  20
ENDBRANCH   4   2
TORSDOF 5
ENDMDL
MODEL 4
REMARK VINA RESULT:     -10.1      1.204      5.760
REMARK  Name = 
REMARK  5 active torsions:
REMARK  status: ('A' for Active; 'I' for Inactive)
REMARK    1  A    between atoms: S_2  and  N_4
REMARK    2  A    between atoms: S_2  and  C_20
REMARK    3  A    between atoms: C_7  and  C_9
REMARK    4  A    between atoms: C_12  and  C_14
REMARK    5  A    between atoms: C_23  and  C_26
REMARK                            x       y       z     vdW  Elec       q    Type
REMARK                         _______ _______ _______ _____ _____    ______ ____
ROOT
ATOM      4  N   UNL     1      -3.649   2.369  24.963  0.00  0.00    -0.155 NA
ATOM      5  C   UNL     1      -4.434   2.460  25.198  0.00  0.00    +0.096 C 
ATOM      6  C   UNL     1      -4.811   1.730  25.121  0.00  0.00    +0.030 C 
ATOM      7  C   UNL     1      -4.258   1.186  24.839  0.00  0.00    +0.097 C 
ATOM      8  C   UNL     1      -3.539   1.581  24.740  0.00  0.00    +0.105 C 
ENDROOT
BRANCH   7   9
ATOM      9  C   UNL     1      -4.397   0.389  24.682  0.00  0.00    +0.227 A 
ATOM     10  N   UNL     1      -5.095   0.070  24.377  0.00  0.00    -0.111 NA
ATOM     11  N   UNL     1      -4.993  -0.747  24.309  0.00  0.00    -0.107 NA
ATOM     12  C   UNL     1      -4.233  -0.931  24.571  0.00  0.00    +0.250 A 
ATOM     13  O   UNL     1      -3.865  -0.230  24.801  0.00  0.00    -0.419 OA
BRANCH  12  14
ATOM     14  C   UNL     1      -3.901  -1.685  24.598  0.00  0.00    +0.055 A 
ATOM     15  C   UNL     1      -3.498  -1.935  25.273  0.00  0.00    +0.005 A 
ATOM     16  C   UNL     1      -3.165  -2.690  25.300  0.00  0.00    +0.000 A 
ATOM     17  C   UNL     1      -3.234  -3.194  24.650  0.00  0.00    +0.000 A 
ATOM     18  C   UNL     1      -3.636  -2.944  23.975  0.00  0.00    +0.000 A 
ATOM     19  C   UNL     1      -3.969  -2.190  23.948  0.00  0.00    +0.005 A 
ENDBRANCH  12  14
ENDBRANCH   7   9
BRANCH   4   2
ATOM      1  O   UNL     1      -3.376   3.239  24.236  0.00  0.00    -0.153 OA
ATOM      2  S   UNL     1      -3.075   2.959  24.951  0.00  0.00    +0.063 S 
ATOM      3  O   UNL     1      -2.773   2.680  25.668  0.00  0.00    -0.153 OA
BRANCH   2  20
ATOM     20  C   UNL     1      -2.499   3.552  24.940  0.00  0.00    +0.122 A 
ATOM     21  C   UNL     1      -2.654   4.284  25.287  0.00  0.00    +0.021 A 
ATOM     22  C   UNL     1      -2.079   4.875  25.276  0.00  0.00    +0.012 A 
ATOM     23  C   UNL     1      -1.349   4.734  24.917  0.00  0.00    +0.069 A 
ATOM     24  C   UNL     1      -1.195   4.002  24.570  0.00  0.00    +0.012 A 
ATOM     25  C   UNL     1      -1.770   3.411  24.582  0.00  0.00    +0.021 A 
BRANCH  23  26
ATOM     26  C   UNL     1      -0.774   5.325  24.906  0.00  0.00    +0.100 C 
ATOM     27  N   UNL     1      -0.198   5.917  24.895  0.00  0.00    -0.191 NA
ENDBRANCH  23  26
ENDBRANCH   2  20
ENDBRANCH   4   2
TORSDOF 5
ENDMDL
MODEL 5
REMARK VINA RESULT:      -9.3      3.321      4.565
REMARK  Name = 
REMARK  5 active torsions:
REMARK  status: ('A' for Active; 'I' for Inactive)
REMARK    1  A    between atoms: S_2  and  N_4
REMARK    2  A    between atoms: S_2  and  C_20
REMARK    3  A    between atoms: C_7  and  C_9
REMARK    4  A    between atoms: C_12  and  C_14
REMARK    5  A    between atoms: C_23  and  C_26
REMARK                            x       y       z     vdW  Elec       q    Type
REMARK                         _______ _______ _______ _____ _____    ______ ____
ROOT
ATOM      4  N   UNL     1      -1.232   0.053  24.368  0.00  0.00    -0.155 NA
ATOM      5  C   UNL     1      -1.459  -0.514  24.923  0.00  0.00    +0.096 C 
ATOM      6  C   UNL     1      -2.251  -0.381  25.114  0.00  0.00    +0.030 C 
ATOM      7  C   UNL     1      -2.514   0.268  24.678  0.00  0.00    +0.097 C 
ATOM      8  C   UNL     1      -1.884   0.537  24.217  0.00  0.00    +0.105 C 
ENDROOT
BRANCH   7   9
ATOM      9  C   UNL     1      -3.272   0.592  24.699  0.00  0.00    +0.227 A 
ATOM     10  N   UNL     1      -3.960   0.233  24.419  0.00  0.00    -0.111 NA
ATOM     11  N   UNL     1      -4.589   0.751  24.550  0.00  0.00    -0.107 NA
ATOM     12  C   UNL     1      -4.290   1.429  24.912  0.00  0.00    +0.250 A 
ATOM     13  O   UNL     1      -3.475   1.331  25.004  0.00  0.00    -0.419 OA
BRANCH  12  14
ATOM     14  C   UNL     1      -4.727   2.089  25.141  0.00  0.00    +0.055 A 
ATOM     15  C   UNL     1      -4.444   2.848  24.983  0.00  0.00    +0.005 A 
ATOM     16  C   UNL     1      -4.882   3.509  25.213  0.00  0.00    +0.000 A 
ATOM     17  C   UNL     1      -5.604   3.411  25.600  0.00  0.00    +0.000 A 
ATOM     18  C   UNL     1      -5.887   2.652  25.758  0.00  0.00    +0.000 A 
ATOM     19  C   UNL     1      -5.450   1.992  25.529  0.00  0.00    +0.005 A 
ENDBRANCH  12  14
ENDBRANCH   7   9
BRANCH   4   2
ATOM      1  O   UNL     1      -0.766   0.732  23.543  0.00  0.00    -0.153 OA
ATOM      2  S   UNL     1      -0.487   0.125  24.025  0.00  0.00    +0.063 S 
ATOM      3  O   UNL     1      -0.206  -0.484  24.509  0.00  0.00    -0.153 OA
BRANCH   2  20
ATOM     20  C   UNL     1       0.261   0.196  23.682  0.00  0.00    +0.122 A 
ATOM     21  C   UNL     1       0.750   0.828  23.887  0.00  0.00    +0.021 A 
ATOM     22  C   UNL     1       1.497   0.899  23.544  0.00  0.00    +0.012 A 
ATOM     23  C   UNL     1       1.755   0.339  22.995  0.00  0.00    +0.069 A 
ATOM     24  C   UNL     1       1.265  -0.292  22.791  0.00  0.00    +0.012 A 
ATOM     25  C   UNL     1       0.518  -0.364  23.134  0.00  0.00    +0.021 A 
BRANCH  23  26
ATOM     26  C   UNL     1       2.501   0.410  22.652  0.00  0.00    +0.100 C 
ATOM     27  N   UNL     1       3.248   0.482  22.309  0.00  0.00    -0.191 NA
ENDBRANCH  23  26
ENDBRANCH   2  20
ENDBRANCH   4   2
TORSDOF 5
ENDMDL
MODEL 6
REMARK VINA RESULT:      -8.9      4.390      5.658
REMARK  Name = 
REMARK  5 active torsions:
REMARK  status: ('A' for Active; 'I' for Inactive)
REMARK    1  A    between atoms: S_2  and  N_4
REMARK    2  A    between atoms: S_2  and  C_20
REMARK    3  A    between atoms: C_7  and  C_9
REMARK    4  A    between atoms: C_12  and  C_14
REMARK    5  A    between atoms: C_23  and  C_26
REMARK                            x       y       z     vdW  Elec       q    Type
REMARK                         _______ _______ _______ _____ _____    ______ ____
ROOT
ATOM      4  N   UNL     1      -0.841   0.561  24.074  0.00  0.00    -0.155 NA
ATOM      5  C   UNL     1      -0.764  -0.229  24.296  0.00  0.00    +0.096 C 
ATOM      6  C   UNL     1      -0.062  -0.518  23.971  0.00  0.00    +0.030 C 
ATOM      7  C   UNL     1       0.295   0.094  23.549  0.00  0.00    +0.097 C 
ATOM      8  C   UNL     1      -0.186   0.762  23.612  0.00  0.00    +0.105 C 
ENDROOT
BRANCH   7   9
ATOM      9  C   UNL     1       1.007   0.048  23.136  0.00  0.00    +0.227 A 
ATOM     10  N   UNL     1       1.101  -0.209  22.357  0.00  0.00    -0.111 NA
ATOM     11  N   UNL     1       1.903  -0.165  22.169  0.00  0.00    -0.107 NA
ATOM     12  C   UNL     1       2.305   0.119  22.831  0.00  0.00    +0.250 A 
ATOM     13  O   UNL     1       1.752   0.250  23.429  0.00  0.00    -0.419 OA
BRANCH  12  14
ATOM     14  C   UNL     1       3.118   0.248  22.885  0.00  0.00    +0.055 A 
ATOM     15  C   UNL     1       3.612  -0.346  23.176  0.00  0.00    +0.005 A 
ATOM     16  C   UNL     1       4.425  -0.217  23.230  0.00  0.00    +0.000 A 
ATOM     17  C   UNL     1       4.744   0.507  22.994  0.00  0.00    +0.000 A 
ATOM     18  C   UNL     1       4.250   1.100  22.704  0.00  0.00    +0.000 A 
ATOM     19  C   UNL     1       3.438   0.971  22.649  0.00  0.00    +0.005 A 
ENDBRANCH  12  14
ENDBRANCH   7   9
BRANCH   4   2
ATOM      1  O   UNL     1      -1.393   0.829  25.066  0.00  0.00    -0.153 OA
ATOM      2  S   UNL     1      -1.462   1.063  24.278  0.00  0.00    +0.063 S 
ATOM      3  O   UNL     1      -1.531   1.298  23.488  0.00  0.00    -0.153 OA
BRANCH   2  20
ATOM     20  C   UNL     1      -2.084   1.566  24.482  0.00  0.00    +0.122 A 
ATOM     21  C   UNL     1      -2.861   1.353  24.304  0.00  0.00    +0.021 A 
ATOM     22  C   UNL     1      -3.483   1.856  24.508  0.00  0.00    +0.012 A 
ATOM     23  C   UNL     1      -3.328   2.571  24.889  0.00  0.00    +0.069 A 
ATOM     24  C   UNL     1      -2.550   2.783  25.066  0.00  0.00    +0.012 A 
ATOM     25  C   UNL     1      -1.929   2.281  24.862  0.00  0.00    +0.021 A 
BRANCH  23  26
ATOM     26  C   UNL     1      -3.949   3.073  25.092  0.00  0.00    +0.100 C 
ATOM     27  N   UNL     1      -4.571   3.577  25.296  0.00  0.00    -0.191 NA
ENDBRANCH  23  26
ENDBRANCH   2  20
ENDBRANCH   4   2
TORSDOF 5
ENDMDL
MODEL 7
REMARK VINA RESULT:      -8.8      2.979      4.499
REMARK  Name = 
REMARK  5 active torsions:
REMARK  status: ('A' for Active; 'I' for Inactive)
REMARK    1  A    between atoms: S_2  and  N_4
REMARK    2  A    between atoms: S_2  and  C_20
REMARK    3  A    between atoms: C_7  and  C_9
REMARK    4  A    between atoms: C_12  and  C_14
REMARK    5  A    between atoms: C_23  and  C_26
REMARK                            x       y       z     vdW  Elec       q    Type
REMARK                         _______ _______ _______ _____ _____    ______ ____
ROOT
ATOM      4  N   UNL     1      -0.966   2.350  24.887  0.00  0.00    -0.155 NA
ATOM      5  C   UNL     1      -0.810   2.884  25.496  0.00  0.00    +0.096 C 
ATOM      6  C   UNL     1      -1.528   3.213  25.738  0.00  0.00    +0.030 C 
ATOM      7  C   UNL     1      -2.127   2.883  25.277  0.00  0.00    +0.097 C 
ATOM      8  C   UNL     1      -1.781   2.349  24.752  0.00  0.00    +0.105 C 
ENDROOT
BRANCH   7   9
ATOM      9  C   UNL     1      -2.932   3.055  25.333  0.00  0.00    +0.227 A 
ATOM     10  N   UNL     1      -3.262   3.806  25.424  0.00  0.00    -0.111 NA
ATOM     11  N   UNL     1      -4.083   3.722  25.454  0.00  0.00    -0.107 NA
ATOM     12  C   UNL     1      -4.259   2.919  25.382  0.00  0.00    +0.250 A 
ATOM     13  O   UNL     1      -3.548   2.507  25.307  0.00  0.00    -0.419 OA
BRANCH  12  14
ATOM     14  C   UNL     1      -5.014   2.588  25.384  0.00  0.00    +0.055 A 
ATOM     15  C   UNL     1      -5.284   2.170  24.726  0.00  0.00    +0.005 A 
ATOM     16  C   UNL     1      -6.040   1.838  24.729  0.00  0.00    +0.000 A 
ATOM     17  C   UNL     1      -6.526   1.924  25.390  0.00  0.00    +0.000 A 
ATOM     18  C   UNL     1      -6.256   2.342  26.048  0.00  0.00    +0.000 A 
ATOM     19  C   UNL     1      -5.501   2.674  26.046  0.00  0.00    +0.005 A 
ENDBRANCH  12  14
ENDBRANCH   7   9
BRANCH   4   2
ATOM      1  O   UNL     1      -0.502   2.375  23.818  0.00  0.00    -0.153 OA
ATOM      2  S   UNL     1      -0.408   1.898  24.485  0.00  0.00    +0.063 S 
ATOM      3  O   UNL     1      -0.314   1.420  25.152  0.00  0.00    -0.153 OA
BRANCH   2  20
ATOM     20  C   UNL     1       0.152   1.444  24.081  0.00  0.00    +0.122 A 
ATOM     21  C   UNL     1       0.916   1.735  23.971  0.00  0.00    +0.021 A 
ATOM     22  C   UNL     1       1.476   1.281  23.568  0.00  0.00    +0.012 A 
ATOM     23  C   UNL     1       1.270   0.537  23.275  0.00  0.00    +0.069 A 
ATOM     24  C   UNL     1       0.506   0.248  23.386  0.00  0.00    +0.012 A 
ATOM     25  C   UNL     1      -0.053   0.701  23.789  0.00  0.00    +0.021 A 
BRANCH  23  26
ATOM     26  C   UNL     1       1.829   0.085  22.873  0.00  0.00    +0.100 C 
ATOM     27  N   UNL     1       2.389  -0.369  22.469  0.00  0.00    -0.191 NA
ENDBRANCH  23  26
ENDBRANCH   2  20
ENDBRANCH   4   2
TORSDOF 5
ENDMDL
MODEL 8
REMARK VINA RESULT:      -8.4      3.714      4.861
REMARK  Name = 
REMARK  5 active torsions:
REMARK  status: ('A' for Active; 'I' for Inactive)
REMARK    1  A    between atoms: S_2  and  N_4
REMARK    2  A    between atoms: S_2  and  C_20
REMARK    3  A    between atoms: C_7  and  C_9
REMARK    4  A    between atoms: C_12  and  C_14
REMARK    5  A    between atoms: C_23  and  C_26
REMARK                            x       y       z     vdW  Elec       q    Type
REMARK                         _______ _______ _______ _____ _____    ______ ____
ROOT
ATOM      4  N   UNL     1      -1.758   1.572  24.420  0.00  0.00    -0.155 NA
ATOM      5  C   UNL     1      -1.202   2.121  24.683  0.00  0.00    +0.096 C 
ATOM      6  C   UNL     1      -0.453   1.846  24.473  0.00  0.00    +0.030 C 
ATOM      7  C   UNL     1      -0.546   1.126  24.080  0.00  0.00    +0.097 C 
ATOM      8  C   UNL     1      -1.353   0.957  24.047  0.00  0.00    +0.105 C 
ENDROOT
BRANCH   7   9
ATOM      9  C   UNL     1       0.060   0.659  23.774  0.00  0.00    +0.227 A 
ATOM     10  N   UNL     1       0.077  -0.166  23.762  0.00  0.00    -0.111 NA
ATOM     11  N   UNL     1       0.784  -0.402  23.406  0.00  0.00    -0.107 NA
ATOM     12  C   UNL     1       1.204   0.278  23.199  0.00  0.00    +0.250 A 
ATOM     13  O   UNL     1       0.756   0.933  23.426  0.00  0.00    -0.419 OA
BRANCH  12  14
ATOM     14  C   UNL     1       1.940   0.298  22.830  0.00  0.00    +0.055 A 
ATOM     15  C   UNL     1       2.037  -0.039  22.083  0.00  0.00    +0.005 A 
ATOM     16  C   UNL     1       2.775  -0.018  21.713  0.00  0.00    +0.000 A 
ATOM     17  C   UNL     1       3.416   0.339  22.091  0.00  0.00    +0.000 A 
ATOM     18  C   UNL     1       3.319   0.676  22.838  0.00  0.00    +0.000 A 
ATOM     19  C   UNL     1       2.582   0.655  23.207  0.00  0.00    +0.005 A 
ENDBRANCH  12  14
ENDBRANCH   7   9
BRANCH   4   2
ATOM      1  O   UNL     1      -2.522   1.213  25.224  0.00  0.00    -0.153 OA
ATOM      2  S   UNL     1      -2.575   1.627  24.512  0.00  0.00    +0.063 S 
ATOM      3  O   UNL     1      -2.628   2.041  23.800  0.00  0.00    -0.153 OA
BRANCH   2  20
ATOM     20  C   UNL     1      -3.394   1.682  24.606  0.00  0.00    +0.122 A 
ATOM     21  C   UNL     1      -3.771   2.411  24.513  0.00  0.00    +0.021 A 
ATOM     22  C   UNL     1      -4.589   2.466  24.606  0.00  0.00    +0.012 A 
ATOM     23  C   UNL     1      -5.030   1.793  24.791  0.00  0.00    +0.069 A 
ATOM     24  C   UNL     1      -4.652   1.066  24.884  0.00  0.00    +0.012 A 
ATOM     25  C   UNL     1      -3.834   1.010  24.791  0.00  0.00    +0.021 A 
BRANCH  23  26
ATOM     26  C   UNL     1      -5.847   1.848  24.884  0.00  0.00    +0.100 C 
ATOM     27  N   UNL     1      -6.666   1.904  24.977  0.00  0.00    -0.191 NA
ENDBRANCH  23  26
ENDBRANCH   2  20
ENDBRANCH   4   2
TORSDOF 5
ENDMDL
MODEL 9
REMARK VINA RESULT:      -8.3      2.995      4.770
REMARK  Name = 
REMARK  5 active torsions:
REMARK  status: ('A' for Active; 'I' for Inactive)
REMARK    1  A    between atoms: S_2  and  N_4
REMARK    2  A    between atoms: S_2  and  C_20
REMARK    3  A    between atoms: C_7  and  C_9
REMARK    4  A    between atoms: C_12  and  C_14
REMARK    5  A    between atoms: C_23  and  C_26
REMARK                            x       y       z     vdW  Elec       q    Type
REMARK                         _______ _______ _______ _____ _____    ______ ____
ROOT
ATOM      4  N   UNL     1      -3.250   0.789  24.648  0.00  0.00    -0.155 NA
ATOM      5  C   UNL     1      -3.491   0.017  24.486  0.00  0.00    +0.096 C 
ATOM      6  C   UNL     1      -2.817  -0.434  24.334  0.00  0.00    +0.030 C 
ATOM      7  C   UNL     1      -2.159   0.059  24.402  0.00  0.00    +0.097 C 
ATOM      8  C   UNL     1      -2.427   0.816  24.596  0.00  0.00    +0.105 C 
ENDROOT
BRANCH   7   9
ATOM      9  C   UNL     1      -1.372  -0.164  24.295  0.00  0.00    +0.227 A 
ATOM     10  N   UNL     1      -0.995  -0.801  24.660  0.00  0.00    -0.111 NA
ATOM     11  N   UNL     1      -0.213  -0.820  24.395  0.00  0.00    -0.107 NA
ATOM     12  C   UNL     1      -0.108  -0.195  23.867  0.00  0.00    +0.250 A 
ATOM     13  O   UNL     1      -0.824   0.211  23.805  0.00  0.00    -0.419 OA
BRANCH  12  14
ATOM     14  C   UNL     1       0.591  -0.009  23.471  0.00  0.00    +0.055 A 
ATOM     15  C   UNL     1       0.835  -0.464  22.827  0.00  0.00    +0.005 A 
ATOM     16  C   UNL     1       1.534  -0.277  22.431  0.00  0.00    +0.000 A 
ATOM     17  C   UNL     1       1.989   0.365  22.678  0.00  0.00    +0.000 A 
ATOM     18  C   UNL     1       1.745   0.821  23.321  0.00  0.00    +0.000 A 
ATOM     19  C   UNL     1       1.046   0.634  23.717  0.00  0.00    +0.005 A 
ENDBRANCH  12  14
ENDBRANCH   7   9
BRANCH   4   2
ATOM      1  O   UNL     1      -4.276   1.173  24.250  0.00  0.00    -0.153 OA
ATOM      2  S   UNL     1      -3.744   1.423  24.829  0.00  0.00    +0.063 S 
ATOM      3  O   UNL     1      -3.212   1.672  25.409  0.00  0.00    -0.153 OA
BRANCH   2  20
ATOM     20  C   UNL     1      -4.240   2.058  25.011  0.00  0.00    +0.122 A 
ATOM     21  C   UNL     1      -3.992   2.830  24.859  0.00  0.00    +0.021 A 
ATOM     22  C   UNL     1      -4.487   3.465  25.041  0.00  0.00    +0.012 A 
ATOM     23  C   UNL     1      -5.230   3.327  25.373  0.00  0.00    +0.069 A 
ATOM     24  C   UNL     1      -5.477   2.555  25.524  0.00  0.00    +0.012 A 
ATOM     25  C   UNL     1      -4.982   1.920  25.343  0.00  0.00    +0.021 A 
BRANCH  23  26
ATOM     26  C   UNL     1      -5.724   3.961  25.555  0.00  0.00    +0.100 C 
ATOM     27  N   UNL     1      -6.220   4.596  25.736  0.00  0.00    -0.191 NA
ENDBRANCH  23  26
ENDBRANCH   2  20
ENDBRANCH   4   2
TORSDOF 5
ENDMDL
