REMARK  Name = 
REMARK  3 active torsions:
REMARK  status: ('A' for Active; 'I' for Inactive)
REMARK    1  A    between atoms: C_5  and  C_7
REMARK    2  A    between atoms: N_10  and  C_11
REMARK    3  A    between atoms: C_11  and  C_12
REMARK                            x       y       z     vdW  Elec       q    Type
REMARK                         _______ _______ _______ _____ _____    ______ ____
ROOT
ATOM      7  C   UNL     1       3.356  -3.003   0.000  0.00  0.00    +0.096 C 
ATOM      8  C   UNL     1       3.611  -3.788   0.000  0.00  0.00    +0.028 C 
ATOM      9  C   UNL     1       2.943  -4.273   0.000  0.00  0.00    +0.073 C 
ATOM     10  N   UNL     1       2.276  -3.788   0.000  0.00  0.00    -0.268 NA
ATOM     19  C   UNL     1       2.531  -3.003   0.000  0.00  0.00    +0.082 C 
ENDROOT
BRANCH   7   5
ATOM      1  C   UNL     1       4.253  -0.241   0.000  0.00  0.00    +0.097 C 
ATOM      2  C   UNL     1       4.253  -1.066   0.000  0.00  0.00    +0.227 A 
ATOM      3  N   UNL     1       4.920  -1.551   0.000  0.00  0.00    -0.112 NA
ATOM      4  N   UNL     1       4.666  -2.336   0.000  0.00  0.00    -0.112 NA
ATOM      5  C   UNL     1       3.841  -2.336   0.000  0.00  0.00    +0.227 A 
ATOM      6  O   UNL     1       3.586  -1.551   0.000  0.00  0.00    -0.423 OA
ENDBRANCH   7   5
BRANCH  10  11
ATOM     11  C   UNL     1       1.491  -4.043   0.000  0.00  0.00    +0.100 C 
BRANCH  11  12
ATOM     12  C   UNL     1       0.878  -3.491   0.000  0.00  0.00    +0.004 A 
ATOM     13  C   UNL     1       0.093  -3.746   0.000  0.00  0.00    -0.002 A 
ATOM     14  C   UNL     1      -0.520  -3.194   0.000  0.00  0.00    -0.000 A 
ATOM     15  C   UNL     1      -0.348  -2.387   0.000  0.00  0.00    +0.001 A 
ATOM     16  C   UNL     1       0.436  -2.132   0.000  0.00  0.00    +0.011 A 
ATOM     17  C   UNL     1       1.050  -2.684   0.000  0.00  0.00    +0.055 A 
ATOM     18 CL   UNL     1       1.834  -2.429   0.000  0.00  0.00    -0.083 Cl
ENDBRANCH  11  12
ENDBRANCH  10  11
TORSDOF 3
