MODEL 1
REMARK VINA RESULT:     -10.3      0.000      0.000
REMARK  Name = 
REMARK  7 active torsions:
REMARK  status: ('A' for Active; 'I' for Inactive)
REMARK    1  A    between atoms: O_2  and  C_3
REMARK    2  A    between atoms: C_3  and  C_4
REMARK    3  A    between atoms: C_4  and  O_5
REMARK    4  A    between atoms: O_5  and  C_6
REMARK    5  A    between atoms: C_7  and  C_12
REMARK    6  A    between atoms: C_15  and  C_17
REMARK    7  A    between atoms: N_21  and  C_22
REMARK                            x       y       z     vdW  Elec       q    Type
REMARK                         _______ _______ _______ _____ _____    ______ ____
ROOT
ATOM     12  C   UNL     1      -4.184   1.526  24.603  0.00  0.00    +0.208 A 
ATOM     13  N   UNL     1      -3.802   1.605  23.876  0.00  0.00    -0.056 NA
ATOM     14  O   UNL     1      -3.404   0.901  23.719  0.00  0.00    -0.336 OA
ATOM     15  C   UNL     1      -3.539   0.385  24.349  0.00  0.00    +0.251 A 
ATOM     16  N   UNL     1      -4.022   0.772  24.895  0.00  0.00    -0.189 NA
ENDROOT
BRANCH  12   7
ATOM      6  C   UNL     1      -4.313   2.819  25.197  0.00  0.00    +0.228 A 
ATOM      7  C   UNL     1      -4.648   2.100  24.973  0.00  0.00    +0.092 A 
ATOM      8  C   UNL     1      -5.447   1.954  25.119  0.00  0.00    +0.009 A 
ATOM      9  C   UNL     1      -5.910   2.527  25.489  0.00  0.00    +0.021 A 
ATOM     10  C   UNL     1      -5.574   3.247  25.712  0.00  0.00    +0.102 A 
ATOM     11  N   UNL     1      -4.776   3.393  25.566  0.00  0.00    -0.210 NA
BRANCH   6   5
ATOM      5  O   UNL     1      -3.513   2.965  25.050  0.00  0.00    -0.457 OA
BRANCH   5   4
ATOM      4  C   UNL     1      -3.147   3.624  25.386  0.00  0.00    +0.239 C 
BRANCH   4   3
ATOM      3  C   UNL     1      -2.480   3.952  25.027  0.00  0.00    +0.189 C 
BRANCH   3   2
ATOM      1  C   UNL     1      -1.434   4.921  25.124  0.00  0.00    +0.174 C 
ATOM      2  O   UNL     1      -1.929   4.365  25.481  0.00  0.00    -0.347 OA
ENDBRANCH   3   2
ENDBRANCH   4   3
ENDBRANCH   5   4
ENDBRANCH   6   5
ENDBRANCH  12   7
BRANCH  15  17
ATOM     17  C   UNL     1      -3.244  -0.382  24.419  0.00  0.00    +0.138 C 
ATOM     18  C   UNL     1      -3.679  -1.078  24.346  0.00  0.00    +0.027 C 
ATOM     19  C   UNL     1      -3.164  -1.713  24.456  0.00  0.00    +0.019 C 
ATOM     20  C   UNL     1      -2.411  -1.409  24.599  0.00  0.00    +0.072 C 
ATOM     21  N   UNL     1      -2.459  -0.586  24.576  0.00  0.00    -0.268 NA
BRANCH  21  22
ATOM     22  C   UNL     1      -1.835  -0.059  24.689  0.00  0.00    +0.061 C 
ATOM     23  C   UNL     1      -1.617   0.161  25.455  0.00  0.00    +0.033 C 
ATOM     24  C   UNL     1      -0.992   0.689  25.569  0.00  0.00    +0.074 C 
ATOM     25  N   UNL     1      -0.587   0.996  24.919  0.00  0.00    -0.271 NA
ATOM     26  C   UNL     1       0.037   1.523  25.034  0.00  0.00    +0.090 C 
ATOM     27  C   UNL     1      -0.805   0.775  24.155  0.00  0.00    +0.074 C 
ATOM     28  C   UNL     1      -1.430   0.248  24.041  0.00  0.00    +0.033 C 
ENDBRANCH  21  22
ENDBRANCH  15  17
TORSDOF 7
ENDMDL
MODEL 2
REMARK VINA RESULT:     -10.2      1.139      3.342
REMARK  Name = 
REMARK  7 active torsions:
REMARK  status: ('A' for Active; 'I' for Inactive)
REMARK    1  A    between atoms: O_2  and  C_3
REMARK    2  A    between atoms: C_3  and  C_4
REMARK    3  A    between atoms: C_4  and  O_5
REMARK    4  A    between atoms: O_5  and  C_6
REMARK    5  A    between atoms: C_7  and  C_12
REMARK    6  A    between atoms: C_15  and  C_17
REMARK    7  A    between atoms: N_21  and  C_22
REMARK                            x       y       z     vdW  Elec       q    Type
REMARK                         _______ _______ _______ _____ _____    ______ ____
ROOT
ATOM     12  C   UNL     1      -3.802   2.710  24.745  0.00  0.00    +0.208 A 
ATOM     13  N   UNL     1      -3.547   2.600  23.968  0.00  0.00    -0.056 NA
ATOM     14  O   UNL     1      -2.784   2.905  23.903  0.00  0.00    -0.336 OA
ATOM     15  C   UNL     1      -2.566   3.204  24.642  0.00  0.00    +0.251 A 
ATOM     16  N   UNL     1      -3.195   3.083  25.161  0.00  0.00    -0.189 NA
ENDROOT
BRANCH  12   7
ATOM      6  C   UNL     1      -4.764   1.694  25.037  0.00  0.00    +0.228 A 
ATOM      7  C   UNL     1      -4.534   2.487  25.052  0.00  0.00    +0.092 A 
ATOM      8  C   UNL     1      -5.038   3.056  25.374  0.00  0.00    +0.009 A 
ATOM      9  C   UNL     1      -5.770   2.832  25.681  0.00  0.00    +0.021 A 
ATOM     10  C   UNL     1      -5.999   2.039  25.665  0.00  0.00    +0.102 A 
ATOM     11  N   UNL     1      -5.496   1.471  25.344  0.00  0.00    -0.210 NA
BRANCH   6   5
ATOM      5  O   UNL     1      -4.260   1.125  24.714  0.00  0.00    -0.457 OA
BRANCH   5   4
ATOM      4  C   UNL     1      -4.426   0.324  24.815  0.00  0.00    +0.239 C 
BRANCH   4   3
ATOM      3  C   UNL     1      -4.113  -0.231  24.289  0.00  0.00    +0.189 C 
BRANCH   3   2
ATOM      1  C   UNL     1      -4.061  -1.620  23.958  0.00  0.00    +0.174 C 
ATOM      2  O   UNL     1      -4.032  -1.018  24.523  0.00  0.00    -0.347 OA
ENDBRANCH   3   2
ENDBRANCH   4   3
ENDBRANCH   5   4
ENDBRANCH   6   5
ENDBRANCH  12   7
BRANCH  15  17
ATOM     17  C   UNL     1      -1.845   3.560  24.826  0.00  0.00    +0.138 C 
ATOM     18  C   UNL     1      -1.714   4.368  24.926  0.00  0.00    +0.027 C 
ATOM     19  C   UNL     1      -0.916   4.476  25.105  0.00  0.00    +0.019 C 
ATOM     20  C   UNL     1      -0.554   3.735  25.115  0.00  0.00    +0.072 C 
ATOM     21  N   UNL     1      -1.127   3.168  24.943  0.00  0.00    -0.268 NA
BRANCH  21  22
ATOM     22  C   UNL     1      -1.006   2.354  24.895  0.00  0.00    +0.061 C 
ATOM     23  C   UNL     1      -1.035   1.893  25.580  0.00  0.00    +0.033 C 
ATOM     24  C   UNL     1      -0.914   1.078  25.533  0.00  0.00    +0.074 C 
ATOM     25  N   UNL     1      -0.765   0.724  24.802  0.00  0.00    -0.271 NA
ATOM     26  C   UNL     1      -0.645  -0.091  24.756  0.00  0.00    +0.090 C 
ATOM     27  C   UNL     1      -0.737   1.185  24.119  0.00  0.00    +0.074 C 
ATOM     28  C   UNL     1      -0.858   2.000  24.166  0.00  0.00    +0.033 C 
ENDBRANCH  21  22
ENDBRANCH  15  17
TORSDOF 7
ENDMDL
MODEL 3
REMARK VINA RESULT:     -10.0      1.069      3.705
REMARK  Name = 
REMARK  7 active torsions:
REMARK  status: ('A' for Active; 'I' for Inactive)
REMARK    1  A    between atoms: O_2  and  C_3
REMARK    2  A    between atoms: C_3  and  C_4
REMARK    3  A    between atoms: C_4  and  O_5
REMARK    4  A    between atoms: O_5  and  C_6
REMARK    5  A    between atoms: C_7  and  C_12
REMARK    6  A    between atoms: C_15  and  C_17
REMARK    7  A    between atoms: N_21  and  C_22
REMARK                            x       y       z     vdW  Elec       q    Type
REMARK                         _______ _______ _______ _____ _____    ______ ____
ROOT
ATOM     12  C   UNL     1      -3.672   0.440  24.539  0.00  0.00    +0.208 A 
ATOM     13  N   UNL     1      -3.622   0.900  23.857  0.00  0.00    -0.056 NA
ATOM     14  O   UNL     1      -4.104   1.561  23.957  0.00  0.00    -0.336 OA
ATOM     15  C   UNL     1      -4.454   1.510  24.704  0.00  0.00    +0.251 A 
ATOM     16  N   UNL     1      -4.187   0.817  25.062  0.00  0.00    -0.189 NA
ENDROOT
BRANCH  12   7
ATOM      6  C   UNL     1      -2.454  -0.292  24.680  0.00  0.00    +0.228 A 
ATOM      7  C   UNL     1      -3.278  -0.272  24.675  0.00  0.00    +0.092 A 
ATOM      8  C   UNL     1      -3.709  -0.964  24.805  0.00  0.00    +0.009 A 
ATOM      9  C   UNL     1      -3.315  -1.676  24.940  0.00  0.00    +0.021 A 
ATOM     10  C   UNL     1      -2.490  -1.695  24.946  0.00  0.00    +0.102 A 
ATOM     11  N   UNL     1      -2.059  -1.004  24.816  0.00  0.00    -0.210 NA
BRANCH   6   5
ATOM      5  O   UNL     1      -2.023   0.400  24.550  0.00  0.00    -0.457 OA
BRANCH   5   4
ATOM      4  C   UNL     1      -1.205   0.403  24.658  0.00  0.00    +0.239 C 
BRANCH   4   3
ATOM      3  C   UNL     1      -0.739   0.960  24.265  0.00  0.00    +0.189 C 
BRANCH   3   2
ATOM      1  C   UNL     1       0.497   1.676  24.218  0.00  0.00    +0.174 C 
ATOM      2  O   UNL     1      -0.103   1.312  24.654  0.00  0.00    -0.347 OA
ENDBRANCH   3   2
ENDBRANCH   4   3
ENDBRANCH   5   4
ENDBRANCH   6   5
ENDBRANCH  12   7
BRANCH  15  17
ATOM     17  C   UNL     1      -4.978   2.056  25.031  0.00  0.00    +0.138 C 
ATOM     18  C   UNL     1      -5.780   1.933  25.175  0.00  0.00    +0.027 C 
ATOM     19  C   UNL     1      -6.089   2.623  25.506  0.00  0.00    +0.019 C 
ATOM     20  C   UNL     1      -5.477   3.173  25.566  0.00  0.00    +0.072 C 
ATOM     21  N   UNL     1      -4.790   2.823  25.273  0.00  0.00    -0.268 NA
BRANCH  21  22
ATOM     22  C   UNL     1      -4.046   3.176  25.229  0.00  0.00    +0.061 C 
ATOM     23  C   UNL     1      -3.549   3.172  25.888  0.00  0.00    +0.033 C 
ATOM     24  C   UNL     1      -2.804   3.525  25.844  0.00  0.00    +0.074 C 
ATOM     25  N   UNL     1      -2.556   3.881  25.142  0.00  0.00    -0.271 NA
ATOM     26  C   UNL     1      -1.812   4.233  25.099  0.00  0.00    +0.090 C 
ATOM     27  C   UNL     1      -3.053   3.884  24.484  0.00  0.00    +0.074 C 
ATOM     28  C   UNL     1      -3.798   3.532  24.528  0.00  0.00    +0.033 C 
ENDBRANCH  21  22
ENDBRANCH  15  17
TORSDOF 7
ENDMDL
MODEL 4
REMARK VINA RESULT:      -9.9      1.325      3.497
REMARK  Name = 
REMARK  7 active torsions:
REMARK  status: ('A' for Active; 'I' for Inactive)
REMARK    1  A    between atoms: O_2  and  C_3
REMARK    2  A    between atoms: C_3  and  C_4
REMARK    3  A    between atoms: C_4  and  O_5
REMARK    4  A    between atoms: O_5  and  C_6
REMARK    5  A    between atoms: C_7  and  C_12
REMARK    6  A    between atoms: C_15  and  C_17
REMARK    7  A    between atoms: N_21  and  C_22
REMARK                            x       y       z     vdW  Elec       q    Type
REMARK                         _______ _______ _______ _____ _____    ______ ____
ROOT
ATOM     12  C   UNL     1      -2.674   2.667  24.470  0.00  0.00    +0.208 A 
ATOM     13  N   UNL     1      -2.842   2.394  23.710  0.00  0.00    -0.056 NA
ATOM     14  O   UNL     1      -3.597   2.064  23.719  0.00  0.00    -0.336 OA
ATOM     15  C   UNL     1      -3.897   2.135  24.485  0.00  0.00    +0.251 A 
ATOM     16  N   UNL     1      -3.326   2.507  24.948  0.00  0.00    -0.189 NA
ENDROOT
BRANCH  12   7
ATOM      6  C   UNL     1      -1.253   2.648  24.623  0.00  0.00    +0.228 A 
ATOM      7  C   UNL     1      -1.976   3.037  24.709  0.00  0.00    +0.092 A 
ATOM      8  C   UNL     1      -2.000   3.795  25.034  0.00  0.00    +0.009 A 
ATOM      9  C   UNL     1      -1.302   4.164  25.273  0.00  0.00    +0.021 A 
ATOM     10  C   UNL     1      -0.580   3.775  25.187  0.00  0.00    +0.102 A 
ATOM     11  N   UNL     1      -0.555   3.017  24.862  0.00  0.00    -0.210 NA
BRANCH   6   5
ATOM      5  O   UNL     1      -1.228   1.890  24.298  0.00  0.00    -0.457 OA
BRANCH   5   4
ATOM      4  C   UNL     1      -0.524   1.460  24.307  0.00  0.00    +0.239 C 
BRANCH   4   3
ATOM      3  C   UNL     1      -0.404   0.854  23.760  0.00  0.00    +0.189 C 
BRANCH   3   2
ATOM      1  C   UNL     1       0.416  -0.255  23.385  0.00  0.00    +0.174 C 
ATOM      2  O   UNL     1       0.042   0.192  23.970  0.00  0.00    -0.347 OA
ENDBRANCH   3   2
ENDBRANCH   4   3
ENDBRANCH   5   4
ENDBRANCH   6   5
ENDBRANCH  12   7
BRANCH  15  17
ATOM     17  C   UNL     1      -4.638   1.877  24.741  0.00  0.00    +0.138 C 
ATOM     18  C   UNL     1      -5.295   2.354  24.882  0.00  0.00    +0.027 C 
ATOM     19  C   UNL     1      -5.915   1.867  25.129  0.00  0.00    +0.019 C 
ATOM     20  C   UNL     1      -5.639   1.090  25.139  0.00  0.00    +0.072 C 
ATOM     21  N   UNL     1      -4.851   1.095  24.900  0.00  0.00    -0.268 NA
BRANCH  21  22
ATOM     22  C   UNL     1      -4.359   0.436  24.830  0.00  0.00    +0.061 C 
ATOM     23  C   UNL     1      -3.949   0.158  25.490  0.00  0.00    +0.033 C 
ATOM     24  C   UNL     1      -3.457  -0.501  25.422  0.00  0.00    +0.074 C 
ATOM     25  N   UNL     1      -3.376  -0.882  24.694  0.00  0.00    -0.271 NA
ATOM     26  C   UNL     1      -2.884  -1.541  24.626  0.00  0.00    +0.090 C 
ATOM     27  C   UNL     1      -3.786  -0.604  24.035  0.00  0.00    +0.074 C 
ATOM     28  C   UNL     1      -4.278   0.056  24.104  0.00  0.00    +0.033 C 
ENDBRANCH  21  22
ENDBRANCH  15  17
TORSDOF 7
ENDMDL
MODEL 5
REMARK VINA RESULT:      -9.6      1.301      3.413
REMARK  Name = 
REMARK  7 active torsions:
REMARK  status: ('A' for Active; 'I' for Inactive)
REMARK    1  A    between atoms: O_2  and  C_3
REMARK    2  A    between atoms: C_3  and  C_4
REMARK    3  A    between atoms: C_4  and  O_5
REMARK    4  A    between atoms: O_5  and  C_6
REMARK    5  A    between atoms: C_7  and  C_12
REMARK    6  A    between atoms: C_15  and  C_17
REMARK    7  A    between atoms: N_21  and  C_22
REMARK                            x       y       z     vdW  Elec       q    Type
REMARK                         _______ _______ _______ _____ _____    ______ ____
ROOT
ATOM     12  C   UNL     1      -2.031   1.298  23.993  0.00  0.00    +0.208 A 
ATOM     13  N   UNL     1      -2.442   1.300  23.278  0.00  0.00    -0.056 NA
ATOM     14  O   UNL     1      -3.249   1.286  23.448  0.00  0.00    -0.336 OA
ATOM     15  C   UNL     1      -3.336   1.274  24.269  0.00  0.00    +0.251 A 
ATOM     16  N   UNL     1      -2.583   1.281  24.604  0.00  0.00    -0.189 NA
ENDROOT
BRANCH  12   7
ATOM      6  C   UNL     1      -0.830   2.000  24.319  0.00  0.00    +0.228 A 
ATOM      7  C   UNL     1      -1.210   1.309  24.080  0.00  0.00    +0.092 A 
ATOM      8  C   UNL     1      -0.769   0.627  23.928  0.00  0.00    +0.009 A 
ATOM      9  C   UNL     1       0.051   0.639  24.015  0.00  0.00    +0.021 A 
ATOM     10  C   UNL     1       0.430   1.331  24.255  0.00  0.00    +0.102 A 
ATOM     11  N   UNL     1      -0.009   2.012  24.406  0.00  0.00    -0.210 NA
BRANCH   6   5
ATOM      5  O   UNL     1      -1.271   2.682  24.471  0.00  0.00    -0.457 OA
BRANCH   5   4
ATOM      4  C   UNL     1      -0.888   3.382  24.681  0.00  0.00    +0.239 C 
BRANCH   4   3
ATOM      3  C   UNL     1      -1.320   4.008  25.002  0.00  0.00    +0.189 C 
BRANCH   3   2
ATOM      1  C   UNL     1      -1.488   5.424  25.084  0.00  0.00    +0.174 C 
ATOM      2  O   UNL     1      -0.995   4.765  25.022  0.00  0.00    -0.347 OA
ENDBRANCH   3   2
ENDBRANCH   4   3
ENDBRANCH   5   4
ENDBRANCH   6   5
ENDBRANCH  12   7
BRANCH  15  17
ATOM     17  C   UNL     1      -4.051   1.258  24.679  0.00  0.00    +0.138 C 
ATOM     18  C   UNL     1      -4.496   1.915  24.906  0.00  0.00    +0.027 C 
ATOM     19  C   UNL     1      -5.167   1.643  25.302  0.00  0.00    +0.019 C 
ATOM     20  C   UNL     1      -5.137   0.820  25.320  0.00  0.00    +0.072 C 
ATOM     21  N   UNL     1      -4.448   0.581  24.936  0.00  0.00    -0.268 NA
BRANCH  21  22
ATOM     22  C   UNL     1      -4.197  -0.198  24.826  0.00  0.00    +0.061 C 
ATOM     23  C   UNL     1      -3.772  -0.581  25.421  0.00  0.00    +0.033 C 
ATOM     24  C   UNL     1      -3.521  -1.359  25.311  0.00  0.00    +0.074 C 
ATOM     25  N   UNL     1      -3.695  -1.754  24.608  0.00  0.00    -0.271 NA
ATOM     26  C   UNL     1      -3.444  -2.532  24.499  0.00  0.00    +0.090 C 
ATOM     27  C   UNL     1      -4.120  -1.371  24.014  0.00  0.00    +0.074 C 
ATOM     28  C   UNL     1      -4.371  -0.592  24.123  0.00  0.00    +0.033 C 
ENDBRANCH  21  22
ENDBRANCH  15  17
TORSDOF 7
ENDMDL
MODEL 6
REMARK VINA RESULT:      -9.6      1.652      4.598
REMARK  Name = 
REMARK  7 active torsions:
REMARK  status: ('A' for Active; 'I' for Inactive)
REMARK    1  A    between atoms: O_2  and  C_3
REMARK    2  A    between atoms: C_3  and  C_4
REMARK    3  A    between atoms: C_4  and  O_5
REMARK    4  A    between atoms: O_5  and  C_6
REMARK    5  A    between atoms: C_7  and  C_12
REMARK    6  A    between atoms: C_15  and  C_17
REMARK    7  A    between atoms: N_21  and  C_22
REMARK                            x       y       z     vdW  Elec       q    Type
REMARK                         _______ _______ _______ _____ _____    ______ ____
ROOT
ATOM     12  C   UNL     1      -1.904   1.277  24.501  0.00  0.00    +0.208 A 
ATOM     13  N   UNL     1      -2.170   1.566  23.776  0.00  0.00    -0.056 NA
ATOM     14  O   UNL     1      -2.094   2.387  23.784  0.00  0.00    -0.336 OA
ATOM     15  C   UNL     1      -1.781   2.606  24.516  0.00  0.00    +0.251 A 
ATOM     16  N   UNL     1      -1.664   1.920  24.958  0.00  0.00    -0.189 NA
ENDROOT
BRANCH  12   7
ATOM      6  C   UNL     1      -1.242   0.011  24.518  0.00  0.00    +0.228 A 
ATOM      7  C   UNL     1      -1.883   0.485  24.730  0.00  0.00    +0.092 A 
ATOM      8  C   UNL     1      -2.504   0.165  25.171  0.00  0.00    +0.009 A 
ATOM      9  C   UNL     1      -2.482  -0.627  25.399  0.00  0.00    +0.021 A 
ATOM     10  C   UNL     1      -1.840  -1.100  25.187  0.00  0.00    +0.102 A 
ATOM     11  N   UNL     1      -1.221  -0.781  24.746  0.00  0.00    -0.210 NA
BRANCH   6   5
ATOM      5  O   UNL     1      -0.621   0.331  24.077  0.00  0.00    -0.457 OA
BRANCH   5   4
ATOM      4  C   UNL     1      -0.012  -0.157  23.809  0.00  0.00    +0.239 C 
BRANCH   4   3
ATOM      3  C   UNL     1       0.645   0.172  23.434  0.00  0.00    +0.189 C 
BRANCH   3   2
ATOM      1  C   UNL     1       1.768  -0.033  22.574  0.00  0.00    +0.174 C 
ATOM      2  O   UNL     1       0.995  -0.219  22.798  0.00  0.00    -0.347 OA
ENDBRANCH   3   2
ENDBRANCH   4   3
ENDBRANCH   5   4
ENDBRANCH   6   5
ENDBRANCH  12   7
BRANCH  15  17
ATOM     17  C   UNL     1      -1.614   3.376  24.760  0.00  0.00    +0.138 C 
ATOM     18  C   UNL     1      -0.874   3.740  24.750  0.00  0.00    +0.027 C 
ATOM     19  C   UNL     1      -0.963   4.507  25.042  0.00  0.00    +0.019 C 
ATOM     20  C   UNL     1      -1.758   4.617  25.231  0.00  0.00    +0.072 C 
ATOM     21  N   UNL     1      -2.161   3.919  25.058  0.00  0.00    -0.268 NA
BRANCH  21  22
ATOM     22  C   UNL     1      -2.969   3.785  25.163  0.00  0.00    +0.061 C 
ATOM     23  C   UNL     1      -3.254   3.554  25.903  0.00  0.00    +0.033 C 
ATOM     24  C   UNL     1      -4.062   3.420  26.008  0.00  0.00    +0.074 C 
ATOM     25  N   UNL     1      -4.583   3.515  25.375  0.00  0.00    -0.271 NA
ATOM     26  C   UNL     1      -5.389   3.381  25.481  0.00  0.00    +0.090 C 
ATOM     27  C   UNL     1      -4.296   3.745  24.637  0.00  0.00    +0.074 C 
ATOM     28  C   UNL     1      -3.489   3.880  24.531  0.00  0.00    +0.033 C 
ENDBRANCH  21  22
ENDBRANCH  15  17
TORSDOF 7
ENDMDL
MODEL 7
REMARK VINA RESULT:      -9.6      0.885      2.150
REMARK  Name = 
REMARK  7 active torsions:
REMARK  status: ('A' for Active; 'I' for Inactive)
REMARK    1  A    between atoms: O_2  and  C_3
REMARK    2  A    between atoms: C_3  and  C_4
REMARK    3  A    between atoms: C_4  and  O_5
REMARK    4  A    between atoms: O_5  and  C_6
REMARK    5  A    between atoms: C_7  and  C_12
REMARK    6  A    between atoms: C_15  and  C_17
REMARK    7  A    between atoms: N_21  and  C_22
REMARK                            x       y       z     vdW  Elec       q    Type
REMARK                         _______ _______ _______ _____ _____    ______ ____
ROOT
ATOM     12  C   UNL     1      -3.599   1.254  24.688  0.00  0.00    +0.208 A 
ATOM     13  N   UNL     1      -3.317   1.062  23.937  0.00  0.00    -0.056 NA
ATOM     14  O   UNL     1      -2.639   0.603  24.028  0.00  0.00    -0.336 OA
ATOM     15  C   UNL     1      -2.501   0.510  24.838  0.00  0.00    +0.251 A 
ATOM     16  N   UNL     1      -3.095   0.913  25.244  0.00  0.00    -0.189 NA
ENDROOT
BRANCH  12   7
ATOM      6  C   UNL     1      -4.199   2.522  24.958  0.00  0.00    +0.228 A 
ATOM      7  C   UNL     1      -4.268   1.707  24.853  0.00  0.00    +0.092 A 
ATOM      8  C   UNL     1      -5.008   1.345  24.914  0.00  0.00    +0.009 A 
ATOM      9  C   UNL     1      -5.677   1.798  25.080  0.00  0.00    +0.021 A 
ATOM     10  C   UNL     1      -5.607   2.613  25.185  0.00  0.00    +0.102 A 
ATOM     11  N   UNL     1      -4.869   2.975  25.124  0.00  0.00    -0.210 NA
BRANCH   6   5
ATOM      5  O   UNL     1      -3.460   2.885  24.897  0.00  0.00    -0.457 OA
BRANCH   5   4
ATOM      4  C   UNL     1      -3.369   3.674  25.117  0.00  0.00    +0.239 C 
BRANCH   4   3
ATOM      3  C   UNL     1      -2.692   4.090  24.892  0.00  0.00    +0.189 C 
BRANCH   3   2
ATOM      1  C   UNL     1      -1.569   4.905  25.234  0.00  0.00    +0.174 C 
ATOM      2  O   UNL     1      -2.245   4.488  25.459  0.00  0.00    -0.347 OA
ENDBRANCH   3   2
ENDBRANCH   4   3
ENDBRANCH   5   4
ENDBRANCH   6   5
ENDBRANCH  12   7
BRANCH  15  17
ATOM     17  C   UNL     1      -1.879   0.089  25.178  0.00  0.00    +0.138 C 
ATOM     18  C   UNL     1      -1.190   0.413  25.496  0.00  0.00    +0.027 C 
ATOM     19  C   UNL     1      -0.722  -0.207  25.774  0.00  0.00    +0.019 C 
ATOM     20  C   UNL     1      -1.122  -0.914  25.627  0.00  0.00    +0.072 C 
ATOM     21  N   UNL     1      -1.836  -0.732  25.259  0.00  0.00    -0.268 NA
BRANCH  21  22
ATOM     22  C   UNL     1      -2.408  -1.273  25.013  0.00  0.00    +0.061 C 
ATOM     23  C   UNL     1      -3.011  -1.496  25.531  0.00  0.00    +0.033 C 
ATOM     24  C   UNL     1      -3.585  -2.038  25.286  0.00  0.00    +0.074 C 
ATOM     25  N   UNL     1      -3.554  -2.354  24.524  0.00  0.00    -0.271 NA
ATOM     26  C   UNL     1      -4.127  -2.895  24.280  0.00  0.00    +0.090 C 
ATOM     27  C   UNL     1      -2.952  -2.130  24.008  0.00  0.00    +0.074 C 
ATOM     28  C   UNL     1      -2.379  -1.589  24.253  0.00  0.00    +0.033 C 
ENDBRANCH  21  22
ENDBRANCH  15  17
TORSDOF 7
ENDMDL
MODEL 8
REMARK VINA RESULT:      -9.4      1.188      2.985
REMARK  Name = 
REMARK  7 active torsions:
REMARK  status: ('A' for Active; 'I' for Inactive)
REMARK    1  A    between atoms: O_2  and  C_3
REMARK    2  A    between atoms: C_3  and  C_4
REMARK    3  A    between atoms: C_4  and  O_5
REMARK    4  A    between atoms: O_5  and  C_6
REMARK    5  A    between atoms: C_7  and  C_12
REMARK    6  A    between atoms: C_15  and  C_17
REMARK    7  A    between atoms: N_21  and  C_22
REMARK                            x       y       z     vdW  Elec       q    Type
REMARK                         _______ _______ _______ _____ _____    ______ ____
ROOT
ATOM     12  C   UNL     1      -1.647   2.357  24.298  0.00  0.00    +0.208 A 
ATOM     13  N   UNL     1      -2.030   2.090  23.618  0.00  0.00    -0.056 NA
ATOM     14  O   UNL     1      -1.681   1.379  23.391  0.00  0.00    -0.336 OA
ATOM     15  C   UNL     1      -1.081   1.206  23.931  0.00  0.00    +0.251 A 
ATOM     16  N   UNL     1      -1.060   1.811  24.491  0.00  0.00    -0.189 NA
ENDROOT
BRANCH  12   7
ATOM      6  C   UNL     1      -2.587   3.190  24.979  0.00  0.00    +0.228 A 
ATOM      7  C   UNL     1      -1.820   3.050  24.712  0.00  0.00    +0.092 A 
ATOM      8  C   UNL     1      -1.224   3.603  24.859  0.00  0.00    +0.009 A 
ATOM      9  C   UNL     1      -1.397   4.295  25.273  0.00  0.00    +0.021 A 
ATOM     10  C   UNL     1      -2.166   4.434  25.540  0.00  0.00    +0.102 A 
ATOM     11  N   UNL     1      -2.760   3.883  25.393  0.00  0.00    -0.210 NA
BRANCH   6   5
ATOM      5  O   UNL     1      -3.183   2.637  24.833  0.00  0.00    -0.457 OA
BRANCH   5   4
ATOM      4  C   UNL     1      -3.931   2.740  25.164  0.00  0.00    +0.239 C 
BRANCH   4   3
ATOM      3  C   UNL     1      -4.573   2.311  24.872  0.00  0.00    +0.189 C 
BRANCH   3   2
ATOM      1  C   UNL     1      -5.926   1.920  25.117  0.00  0.00    +0.174 C 
ATOM      2  O   UNL     1      -5.155   2.039  25.390  0.00  0.00    -0.347 OA
ENDBRANCH   3   2
ENDBRANCH   4   3
ENDBRANCH   5   4
ENDBRANCH   6   5
ENDBRANCH  12   7
BRANCH  15  17
ATOM     17  C   UNL     1      -0.589   0.544  23.913  0.00  0.00    +0.138 C 
ATOM     18  C   UNL     1       0.158   0.504  23.566  0.00  0.00    +0.027 C 
ATOM     19  C   UNL     1       0.450  -0.260  23.678  0.00  0.00    +0.019 C 
ATOM     20  C   UNL     1      -0.117  -0.691  24.093  0.00  0.00    +0.072 C 
ATOM     21  N   UNL     1      -0.759  -0.196  24.238  0.00  0.00    -0.268 NA
BRANCH  21  22
ATOM     22  C   UNL     1      -1.451  -0.401  24.639  0.00  0.00    +0.061 C 
ATOM     23  C   UNL     1      -1.481  -0.345  25.462  0.00  0.00    +0.033 C 
ATOM     24  C   UNL     1      -2.173  -0.550  25.863  0.00  0.00    +0.074 C 
ATOM     25  N   UNL     1      -2.833  -0.810  25.442  0.00  0.00    -0.271 NA
ATOM     26  C   UNL     1      -3.524  -1.014  25.843  0.00  0.00    +0.090 C 
ATOM     27  C   UNL     1      -2.802  -0.865  24.620  0.00  0.00    +0.074 C 
ATOM     28  C   UNL     1      -2.110  -0.660  24.218  0.00  0.00    +0.033 C 
ENDBRANCH  21  22
ENDBRANCH  15  17
TORSDOF 7
ENDMDL
MODEL 9
REMARK VINA RESULT:      -9.4      1.193      4.424
REMARK  Name = 
REMARK  7 active torsions:
REMARK  status: ('A' for Active; 'I' for Inactive)
REMARK    1  A    between atoms: O_2  and  C_3
REMARK    2  A    between atoms: C_3  and  C_4
REMARK    3  A    between atoms: C_4  and  O_5
REMARK    4  A    between atoms: O_5  and  C_6
REMARK    5  A    between atoms: C_7  and  C_12
REMARK    6  A    between atoms: C_15  and  C_17
REMARK    7  A    between atoms: N_21  and  C_22
REMARK                            x       y       z     vdW  Elec       q    Type
REMARK                         _______ _______ _______ _____ _____    ______ ____
ROOT
ATOM     12  C   UNL     1      -2.623   0.968  24.476  0.00  0.00    +0.208 A 
ATOM     13  N   UNL     1      -2.821   1.252  23.727  0.00  0.00    -0.056 NA
ATOM     14  O   UNL     1      -3.484   1.736  23.805  0.00  0.00    -0.336 OA
ATOM     15  C   UNL     1      -3.696   1.751  24.603  0.00  0.00    +0.251 A 
ATOM     16  N   UNL     1      -3.163   1.277  25.017  0.00  0.00    -0.189 NA
ENDROOT
BRANCH  12   7
ATOM      6  C   UNL     1      -2.115  -0.352  24.682  0.00  0.00    +0.228 A 
ATOM      7  C   UNL     1      -1.994   0.464  24.652  0.00  0.00    +0.092 A 
ATOM      8  C   UNL     1      -1.244   0.775  24.800  0.00  0.00    +0.009 A 
ATOM      9  C   UNL     1      -0.615   0.271  24.977  0.00  0.00    +0.021 A 
ATOM     10  C   UNL     1      -0.737  -0.545  25.006  0.00  0.00    +0.102 A 
ATOM     11  N   UNL     1      -1.486  -0.856  24.858  0.00  0.00    -0.210 NA
BRANCH   6   5
ATOM      5  O   UNL     1      -2.865  -0.663  24.534  0.00  0.00    -0.457 OA
BRANCH   5   4
ATOM      4  C   UNL     1      -2.981  -1.480  24.545  0.00  0.00    +0.239 C 
BRANCH   4   3
ATOM      3  C   UNL     1      -3.726  -1.792  24.371  0.00  0.00    +0.189 C 
BRANCH   3   2
ATOM      1  C   UNL     1      -4.384  -2.885  23.727  0.00  0.00    +0.174 C 
ATOM      2  O   UNL     1      -3.814  -2.604  24.255  0.00  0.00    -0.347 OA
ENDBRANCH   3   2
ENDBRANCH   4   3
ENDBRANCH   5   4
ENDBRANCH   6   5
ENDBRANCH  12   7
BRANCH  15  17
ATOM     17  C   UNL     1      -4.329   2.169  24.928  0.00  0.00    +0.138 C 
ATOM     18  C   UNL     1      -5.097   1.885  25.027  0.00  0.00    +0.027 C 
ATOM     19  C   UNL     1      -5.547   2.486  25.371  0.00  0.00    +0.019 C 
ATOM     20  C   UNL     1      -5.057   3.139  25.484  0.00  0.00    +0.072 C 
ATOM     21  N   UNL     1      -4.304   2.944  25.211  0.00  0.00    -0.268 NA
BRANCH  21  22
ATOM     22  C   UNL     1      -3.642   3.436  25.218  0.00  0.00    +0.061 C 
ATOM     23  C   UNL     1      -3.191   3.510  25.906  0.00  0.00    +0.033 C 
ATOM     24  C   UNL     1      -2.529   4.002  25.913  0.00  0.00    +0.074 C 
ATOM     25  N   UNL     1      -2.316   4.419  25.233  0.00  0.00    -0.271 NA
ATOM     26  C   UNL     1      -1.654   4.910  25.242  0.00  0.00    +0.090 C 
ATOM     27  C   UNL     1      -2.766   4.345  24.547  0.00  0.00    +0.074 C 
ATOM     28  C   UNL     1      -3.429   3.853  24.539  0.00  0.00    +0.033 C 
ENDBRANCH  21  22
ENDBRANCH  15  17
TORSDOF 7
ENDMDL
