MODEL 1
REMARK VINA RESULT:     -13.2      0.000      0.000
REMARK  Name = 
REMARK  3 active torsions:
REMARK  status: ('A' for Active; 'I' for Inactive)
REMARK    1  A    between atoms: C_7  and  C_8
REMARK    2  A    between atoms: C_8  and  N_9
REMARK    3  A    between atoms: C_12  and  C_14
REMARK                            x       y       z     vdW  Elec       q    Type
REMARK                         _______ _______ _______ _____ _____    ______ ____
ROOT
ATOM      9  N   UNL     1      -4.148   0.463  24.579  0.00  0.00    -0.268 NA
ATOM     10  C   UNL     1      -4.716   0.907  24.980  0.00  0.00    +0.073 C 
ATOM     11  C   UNL     1      -4.380   1.635  25.176  0.00  0.00    +0.028 C 
ATOM     12  C   UNL     1      -3.603   1.641  24.895  0.00  0.00    +0.094 C 
ATOM     13  C   UNL     1      -3.460   0.917  24.527  0.00  0.00    +0.082 C 
ENDROOT
BRANCH  12  14
ATOM     14  C   UNL     1      -3.065   2.262  24.970  0.00  0.00    +0.207 A 
ATOM     15  N   UNL     1      -3.242   3.065  24.918  0.00  0.00    -0.212 NA
ATOM     16  C   UNL     1      -2.542   3.488  25.026  0.00  0.00    +0.119 A 
ATOM     17  C   UNL     1      -1.933   2.945  25.146  0.00  0.00    +0.164 A 
ATOM     18  O   UNL     1      -2.256   2.187  25.111  0.00  0.00    -0.438 OA
ATOM     19  C   UNL     1      -1.162   3.212  25.271  0.00  0.00    +0.040 A 
ATOM     20  C   UNL     1      -1.001   4.021  25.276  0.00  0.00    +0.015 A 
ATOM     21  C   UNL     1      -1.611   4.563  25.156  0.00  0.00    +0.059 A 
ATOM     22 CL   UNL     1      -1.450   5.372  25.161  0.00  0.00    -0.082 Cl
ATOM     23  C   UNL     1      -2.381   4.298  25.031  0.00  0.00    +0.034 A 
ENDBRANCH  12  14
BRANCH   9   8
ATOM      8  C   UNL     1      -4.249  -0.300  24.283  0.00  0.00    +0.099 C 
BRANCH   8   7
ATOM      1  C   UNL     1      -4.168  -1.779  23.557  0.00  0.00    +0.031 C 
ATOM      2  C   UNL     1      -3.904  -1.686  24.332  0.00  0.00    -0.024 A 
ATOM      3  C   UNL     1      -3.599  -2.332  24.745  0.00  0.00    -0.005 A 
ATOM      4  C   UNL     1      -3.335  -2.239  25.520  0.00  0.00    -0.000 A 
ATOM      5  C   UNL     1      -3.375  -1.499  25.884  0.00  0.00    -0.000 A 
ATOM      6  C   UNL     1      -3.680  -0.853  25.472  0.00  0.00    -0.003 A 
ATOM      7  C   UNL     1      -3.944  -0.947  24.695  0.00  0.00    -0.010 A 
ENDBRANCH   8   7
ENDBRANCH   9   8
TORSDOF 3
ENDMDL
MODEL 2
REMARK VINA RESULT:     -12.7      2.190      5.028
REMARK  Name = 
REMARK  3 active torsions:
REMARK  status: ('A' for Active; 'I' for Inactive)
REMARK    1  A    between atoms: C_7  and  C_8
REMARK    2  A    between atoms: C_8  and  N_9
REMARK    3  A    between atoms: C_12  and  C_14
REMARK                            x       y       z     vdW  Elec       q    Type
REMARK                         _______ _______ _______ _____ _____    ______ ____
ROOT
ATOM      9  N   UNL     1      -3.613   2.267  24.093  0.00  0.00    -0.268 NA
ATOM     10  C   UNL     1      -3.147   2.125  23.427  0.00  0.00    +0.073 C 
ATOM     11  C   UNL     1      -3.063   1.308  23.344  0.00  0.00    +0.028 C 
ATOM     12  C   UNL     1      -3.478   0.946  23.959  0.00  0.00    +0.094 C 
ATOM     13  C   UNL     1      -3.817   1.538  24.422  0.00  0.00    +0.082 C 
ENDROOT
BRANCH  12  14
ATOM     14  C   UNL     1      -3.541   0.133  24.088  0.00  0.00    +0.207 A 
ATOM     15  N   UNL     1      -3.122  -0.303  24.649  0.00  0.00    -0.212 NA
ATOM     16  C   UNL     1      -3.356  -1.091  24.586  0.00  0.00    +0.119 A 
ATOM     17  C   UNL     1      -3.920  -1.142  23.986  0.00  0.00    +0.164 A 
ATOM     18  O   UNL     1      -4.034  -0.386  23.678  0.00  0.00    -0.438 OA
ATOM     19  C   UNL     1      -4.256  -1.872  23.798  0.00  0.00    +0.040 A 
ATOM     20  C   UNL     1      -4.029  -2.549  24.210  0.00  0.00    +0.015 A 
ATOM     21  C   UNL     1      -3.465  -2.498  24.810  0.00  0.00    +0.059 A 
ATOM     22 CL   UNL     1      -3.238  -3.175  25.222  0.00  0.00    -0.082 Cl
ATOM     23  C   UNL     1      -3.129  -1.769  24.999  0.00  0.00    +0.034 A 
ENDBRANCH  12  14
BRANCH   9   8
ATOM      8  C   UNL     1      -3.836   3.008  24.380  0.00  0.00    +0.099 C 
BRANCH   8   7
ATOM      1  C   UNL     1      -4.515   3.741  25.693  0.00  0.00    +0.031 C 
ATOM      2  C   UNL     1      -3.698   3.765  25.584  0.00  0.00    -0.024 A 
ATOM      3  C   UNL     1      -3.220   4.156  26.132  0.00  0.00    -0.005 A 
ATOM      4  C   UNL     1      -2.403   4.180  26.023  0.00  0.00    -0.000 A 
ATOM      5  C   UNL     1      -2.063   3.813  25.367  0.00  0.00    -0.000 A 
ATOM      6  C   UNL     1      -2.540   3.422  24.819  0.00  0.00    -0.003 A 
ATOM      7  C   UNL     1      -3.358   3.398  24.928  0.00  0.00    -0.010 A 
ENDBRANCH   8   7
ENDBRANCH   9   8
TORSDOF 3
ENDMDL
