MODEL 1
REMARK VINA RESULT:     -11.3      0.000      0.000
REMARK  Name = 
REMARK  8 active torsions:
REMARK  status: ('A' for Active; 'I' for Inactive)
REMARK    1  A    between atoms: C_2  and  C_3
REMARK    2  A    between atoms: C_3  and  C_4
REMARK    3  A    between atoms: C_4  and  C_5
REMARK    4  A    between atoms: C_7  and  C_8
REMARK    5  A    between atoms: C_8  and  C_9
REMARK    6  A    between atoms: C_14  and  C_15
REMARK    7  A    between atoms: C_15  and  C_16
REMARK    8  A    between atoms: N_21  and  C_24
REMARK                            x       y       z     vdW  Elec       q    Type
REMARK                         _______ _______ _______ _____ _____    ______ ____
ROOT
ATOM      9  C   UNL     1      -4.342   3.332  24.922  0.00  0.00    +0.024 C 
ATOM     10  C   UNL     1      -4.673   3.984  25.303  0.00  0.00    +0.089 C 
ATOM     11  N   UNL     1      -5.335   3.889  25.785  0.00  0.00    -0.218 NA
ATOM     12  C   UNL     1      -5.667   3.140  25.886  0.00  0.00    +0.089 C 
ATOM     13  C   UNL     1      -5.336   2.487  25.505  0.00  0.00    +0.019 C 
ATOM     14  C   UNL     1      -4.674   2.583  25.023  0.00  0.00    +0.012 C 
ENDROOT
BRANCH   9   8
ATOM      8  C   UNL     1      -3.679   3.427  24.439  0.00  0.00    +0.051 C 
BRANCH   8   7
ATOM      5  C   UNL     1      -1.752   3.968  25.180  0.00  0.00    +0.154 A 
ATOM      6  C   UNL     1      -2.276   3.408  24.875  0.00  0.00    +0.054 A 
ATOM      7  C   UNL     1      -2.998   3.781  24.741  0.00  0.00    +0.100 A 
ATOM     30  N   UNL     1      -2.921   4.572  24.963  0.00  0.00    -0.082 NA
ATOM     31  O   UNL     1      -2.151   4.688  25.233  0.00  0.00    -0.358 OA
BRANCH   5   4
ATOM      4  C   UNL     1      -0.966   3.833  25.393  0.00  0.00    +0.067 C 
BRANCH   4   3
ATOM      3  C   UNL     1      -0.744   3.103  25.707  0.00  0.00    +0.008 C 
BRANCH   3   2
ATOM      1  C   UNL     1       0.233   2.385  26.462  0.00  0.00    +0.000 C 
ATOM      2  C   UNL     1       0.045   2.960  25.902  0.00  0.00    +0.000 C 
ENDBRANCH   3   2
ENDBRANCH   4   3
ENDBRANCH   5   4
ENDBRANCH   8   7
ENDBRANCH   9   8
BRANCH  14  15
ATOM     15  C   UNL     1      -4.342   1.930  24.642  0.00  0.00    +0.085 C 
BRANCH  15  16
ATOM     16  C   UNL     1      -4.754   1.216  24.617  0.00  0.00    +0.226 C 
ATOM     17  O   UNL     1      -5.579   1.214  24.612  0.00  0.00    -0.275 OA
ATOM     18  N   UNL     1      -4.340   0.502  24.596  0.00  0.00    -0.276 N 
ATOM     19  C   UNL     1      -4.751  -0.213  24.570  0.00  0.00    +0.115 C 
ATOM     20  C   UNL     1      -4.337  -0.926  24.549  0.00  0.00    +0.112 C 
ATOM     21  N   UNL     1      -3.512  -0.924  24.554  0.00  0.00    -0.304 N 
ATOM     22  C   UNL     1      -3.101  -0.209  24.579  0.00  0.00    +0.112 C 
ATOM     23  C   UNL     1      -3.515   0.504  24.600  0.00  0.00    +0.115 C 
BRANCH  21  24
ATOM     24  C   UNL     1      -3.098  -1.638  24.533  0.00  0.00    +0.048 A 
ATOM     25  C   UNL     1      -2.273  -1.636  24.548  0.00  0.00    +0.015 A 
ATOM     26  C   UNL     1      -1.859  -2.349  24.527  0.00  0.00    +0.001 A 
ATOM     27  C   UNL     1      -2.269  -3.064  24.491  0.00  0.00    +0.000 A 
ATOM     28  C   UNL     1      -3.093  -3.066  24.476  0.00  0.00    +0.001 A 
ATOM     29  C   UNL     1      -3.508  -2.352  24.497  0.00  0.00    +0.015 A 
ENDBRANCH  21  24
ENDBRANCH  15  16
ENDBRANCH  14  15
TORSDOF 8
ENDMDL
MODEL 2
REMARK VINA RESULT:     -11.2      1.415      3.306
REMARK  Name = 
REMARK  8 active torsions:
REMARK  status: ('A' for Active; 'I' for Inactive)
REMARK    1  A    between atoms: C_2  and  C_3
REMARK    2  A    between atoms: C_3  and  C_4
REMARK    3  A    between atoms: C_4  and  C_5
REMARK    4  A    between atoms: C_7  and  C_8
REMARK    5  A    between atoms: C_8  and  C_9
REMARK    6  A    between atoms: C_14  and  C_15
REMARK    7  A    between atoms: C_15  and  C_16
REMARK    8  A    between atoms: N_21  and  C_24
REMARK                            x       y       z     vdW  Elec       q    Type
REMARK                         _______ _______ _______ _____ _____    ______ ____
ROOT
ATOM      9  C   UNL     1      -1.034   2.882  25.203  0.00  0.00    +0.024 C 
ATOM     10  C   UNL     1      -0.644   3.422  25.689  0.00  0.00    +0.089 C 
ATOM     11  N   UNL     1      -0.061   3.164  26.211  0.00  0.00    -0.218 NA
ATOM     12  C   UNL     1       0.133   2.362  26.247  0.00  0.00    +0.089 C 
ATOM     13  C   UNL     1      -0.256   1.821  25.761  0.00  0.00    +0.019 C 
ATOM     14  C   UNL     1      -0.840   2.080  25.240  0.00  0.00    +0.012 C 
ENDROOT
BRANCH   9   8
ATOM      8  C   UNL     1      -1.618   3.141  24.681  0.00  0.00    +0.051 C 
BRANCH   8   7
ATOM      5  C   UNL     1      -3.545   3.838  25.278  0.00  0.00    +0.154 A 
ATOM      6  C   UNL     1      -3.063   3.273  24.918  0.00  0.00    +0.054 A 
ATOM      7  C   UNL     1      -2.283   3.535  24.970  0.00  0.00    +0.100 A 
ATOM     30  N   UNL     1      -2.283   4.261  25.362  0.00  0.00    -0.082 NA
ATOM     31  O   UNL     1      -3.063   4.448  25.552  0.00  0.00    -0.358 OA
BRANCH   5   4
ATOM      4  C   UNL     1      -4.366   3.799  25.351  0.00  0.00    +0.067 C 
BRANCH   4   3
ATOM      3  C   UNL     1      -4.737   3.069  25.450  0.00  0.00    +0.008 C 
BRANCH   3   2
ATOM      1  C   UNL     1      -5.943   2.320  25.618  0.00  0.00    +0.000 C 
ATOM      2  C   UNL     1      -5.534   3.036  25.661  0.00  0.00    +0.000 C 
ENDBRANCH   3   2
ENDBRANCH   4   3
ENDBRANCH   5   4
ENDBRANCH   8   7
ENDBRANCH   9   8
BRANCH  14  15
ATOM     15  C   UNL     1      -1.229   1.539  24.754  0.00  0.00    +0.085 C 
BRANCH  15  16
ATOM     16  C   UNL     1      -0.943   0.769  24.683  0.00  0.00    +0.226 C 
ATOM     17  O   UNL     1      -0.130   0.628  24.686  0.00  0.00    -0.275 OA
ATOM     18  N   UNL     1      -1.470   0.138  24.608  0.00  0.00    -0.276 N 
ATOM     19  C   UNL     1      -1.184  -0.632  24.537  0.00  0.00    +0.115 C 
ATOM     20  C   UNL     1      -1.711  -1.263  24.463  0.00  0.00    +0.112 C 
ATOM     21  N   UNL     1      -2.524  -1.123  24.460  0.00  0.00    -0.304 N 
ATOM     22  C   UNL     1      -2.810  -0.351  24.531  0.00  0.00    +0.112 C 
ATOM     23  C   UNL     1      -2.283   0.278  24.605  0.00  0.00    +0.115 C 
BRANCH  21  24
ATOM     24  C   UNL     1      -3.051  -1.753  24.385  0.00  0.00    +0.048 A 
ATOM     25  C   UNL     1      -3.734  -1.667  23.931  0.00  0.00    +0.015 A 
ATOM     26  C   UNL     1      -4.262  -2.298  23.857  0.00  0.00    +0.001 A 
ATOM     27  C   UNL     1      -4.106  -3.013  24.236  0.00  0.00    +0.000 A 
ATOM     28  C   UNL     1      -3.423  -3.099  24.691  0.00  0.00    +0.001 A 
ATOM     29  C   UNL     1      -2.895  -2.468  24.765  0.00  0.00    +0.015 A 
ENDBRANCH  21  24
ENDBRANCH  15  16
ENDBRANCH  14  15
TORSDOF 8
ENDMDL
MODEL 3
REMARK VINA RESULT:     -10.6      2.212      5.677
REMARK  Name = 
REMARK  8 active torsions:
REMARK  status: ('A' for Active; 'I' for Inactive)
REMARK    1  A    between atoms: C_2  and  C_3
REMARK    2  A    between atoms: C_3  and  C_4
REMARK    3  A    between atoms: C_4  and  C_5
REMARK    4  A    between atoms: C_7  and  C_8
REMARK    5  A    between atoms: C_8  and  C_9
REMARK    6  A    between atoms: C_14  and  C_15
REMARK    7  A    between atoms: C_15  and  C_16
REMARK    8  A    between atoms: N_21  and  C_24
REMARK                            x       y       z     vdW  Elec       q    Type
REMARK                         _______ _______ _______ _____ _____    ______ ____
ROOT
ATOM      9  C   UNL     1      -0.299  -0.192  24.440  0.00  0.00    +0.024 C 
ATOM     10  C   UNL     1       0.226  -0.619  23.968  0.00  0.00    +0.089 C 
ATOM     11  N   UNL     1       0.599  -0.254  23.330  0.00  0.00    -0.218 NA
ATOM     12  C   UNL     1       0.448   0.541  23.164  0.00  0.00    +0.089 C 
ATOM     13  C   UNL     1      -0.077   0.969  23.636  0.00  0.00    +0.019 C 
ATOM     14  C   UNL     1      -0.450   0.603  24.273  0.00  0.00    +0.012 C 
ENDROOT
BRANCH   9   8
ATOM      8  C   UNL     1      -0.673  -0.557  25.078  0.00  0.00    +0.051 C 
BRANCH   8   7
ATOM      5  C   UNL     1      -1.860  -2.304  24.768  0.00  0.00    +0.154 A 
ATOM      6  C   UNL     1      -1.781  -1.483  24.802  0.00  0.00    +0.054 A 
ATOM      7  C   UNL     1      -0.996  -1.311  24.989  0.00  0.00    +0.100 A 
ATOM     30  N   UNL     1      -0.591  -2.025  25.070  0.00  0.00    -0.082 NA
ATOM     31  O   UNL     1      -1.124  -2.638  24.934  0.00  0.00    -0.358 OA
BRANCH   5   4
ATOM      4  C   UNL     1      -2.553  -2.718  24.598  0.00  0.00    +0.067 C 
BRANCH   4   3
ATOM      3  C   UNL     1      -3.234  -2.309  24.376  0.00  0.00    +0.008 C 
BRANCH   3   2
ATOM      1  C   UNL     1      -4.515  -2.336  23.744  0.00  0.00    +0.000 C 
ATOM      2  C   UNL     1      -3.910  -2.724  24.150  0.00  0.00    +0.000 C 
ENDBRANCH   3   2
ENDBRANCH   4   3
ENDBRANCH   5   4
ENDBRANCH   8   7
ENDBRANCH   9   8
BRANCH  14  15
ATOM     15  C   UNL     1      -0.975   1.031  24.745  0.00  0.00    +0.085 C 
BRANCH  15  16
ATOM     16  C   UNL     1      -1.188   1.798  24.533  0.00  0.00    +0.226 C 
ATOM     17  O   UNL     1      -0.642   2.290  24.156  0.00  0.00    -0.275 OA
ATOM     18  N   UNL     1      -1.948   2.076  24.696  0.00  0.00    -0.276 N 
ATOM     19  C   UNL     1      -2.161   2.844  24.483  0.00  0.00    +0.115 C 
ATOM     20  C   UNL     1      -2.921   3.121  24.647  0.00  0.00    +0.112 C 
ATOM     21  N   UNL     1      -3.467   2.630  25.023  0.00  0.00    -0.304 N 
ATOM     22  C   UNL     1      -3.253   1.862  25.235  0.00  0.00    +0.112 C 
ATOM     23  C   UNL     1      -2.494   1.585  25.072  0.00  0.00    +0.115 C 
BRANCH  21  24
ATOM     24  C   UNL     1      -4.227   2.907  25.186  0.00  0.00    +0.048 A 
ATOM     25  C   UNL     1      -4.880   2.425  25.045  0.00  0.00    +0.015 A 
ATOM     26  C   UNL     1      -5.641   2.702  25.208  0.00  0.00    +0.001 A 
ATOM     27  C   UNL     1      -5.746   3.461  25.513  0.00  0.00    +0.000 A 
ATOM     28  C   UNL     1      -5.092   3.943  25.655  0.00  0.00    +0.001 A 
ATOM     29  C   UNL     1      -4.332   3.666  25.491  0.00  0.00    +0.015 A 
ENDBRANCH  21  24
ENDBRANCH  15  16
ENDBRANCH  14  15
TORSDOF 8
ENDMDL
MODEL 4
REMARK VINA RESULT:     -10.2      3.002      5.187
REMARK  Name = 
REMARK  8 active torsions:
REMARK  status: ('A' for Active; 'I' for Inactive)
REMARK    1  A    between atoms: C_2  and  C_3
REMARK    2  A    between atoms: C_3  and  C_4
REMARK    3  A    between atoms: C_4  and  C_5
REMARK    4  A    between atoms: C_7  and  C_8
REMARK    5  A    between atoms: C_8  and  C_9
REMARK    6  A    between atoms: C_14  and  C_15
REMARK    7  A    between atoms: C_15  and  C_16
REMARK    8  A    between atoms: N_21  and  C_24
REMARK                            x       y       z     vdW  Elec       q    Type
REMARK                         _______ _______ _______ _____ _____    ______ ____
ROOT
ATOM      9  C   UNL     1      -0.412  -0.435  24.213  0.00  0.00    +0.024 C 
ATOM     10  C   UNL     1       0.113  -1.050  24.376  0.00  0.00    +0.089 C 
ATOM     11  N   UNL     1      -0.085  -1.627  24.931  0.00  0.00    -0.218 NA
ATOM     12  C   UNL     1      -0.810  -1.588  25.324  0.00  0.00    +0.089 C 
ATOM     13  C   UNL     1      -1.336  -0.973  25.161  0.00  0.00    +0.019 C 
ATOM     14  C   UNL     1      -1.137  -0.397  24.606  0.00  0.00    +0.012 C 
ENDROOT
BRANCH   9   8
ATOM      8  C   UNL     1      -0.213   0.142  23.658  0.00  0.00    +0.051 C 
BRANCH   8   7
ATOM      5  C   UNL     1       1.807   0.463  23.046  0.00  0.00    +0.154 A 
ATOM      6  C   UNL     1       1.158   0.653  23.520  0.00  0.00    +0.054 A 
ATOM      7  C   UNL     1       0.540   0.146  23.320  0.00  0.00    +0.100 A 
ATOM     30  N   UNL     1       0.805  -0.358  22.724  0.00  0.00    -0.082 NA
ATOM     31  O   UNL     1       1.588  -0.162  22.554  0.00  0.00    -0.358 OA
BRANCH   5   4
ATOM      4  C   UNL     1       2.544   0.833  23.062  0.00  0.00    +0.067 C 
BRANCH   4   3
ATOM      3  C   UNL     1       3.207   0.445  22.763  0.00  0.00    +0.008 C 
BRANCH   3   2
ATOM      1  C   UNL     1       4.616   0.454  23.005  0.00  0.00    +0.000 C 
ATOM      2  C   UNL     1       3.935   0.833  22.733  0.00  0.00    +0.000 C 
ENDBRANCH   3   2
ENDBRANCH   4   3
ENDBRANCH   5   4
ENDBRANCH   8   7
ENDBRANCH   9   8
BRANCH  14  15
ATOM     15  C   UNL     1      -1.662   0.218  24.443  0.00  0.00    +0.085 C 
BRANCH  15  16
ATOM     16  C   UNL     1      -2.475   0.080  24.458  0.00  0.00    +0.226 C 
ATOM     17  O   UNL     1      -2.770  -0.673  24.291  0.00  0.00    -0.275 OA
ATOM     18  N   UNL     1      -2.995   0.695  24.640  0.00  0.00    -0.276 N 
ATOM     19  C   UNL     1      -3.808   0.557  24.655  0.00  0.00    +0.115 C 
ATOM     20  C   UNL     1      -4.327   1.172  24.837  0.00  0.00    +0.112 C 
ATOM     21  N   UNL     1      -4.033   1.925  25.003  0.00  0.00    -0.304 N 
ATOM     22  C   UNL     1      -3.219   2.062  24.988  0.00  0.00    +0.112 C 
ATOM     23  C   UNL     1      -2.700   1.448  24.806  0.00  0.00    +0.115 C 
BRANCH  21  24
ATOM     24  C   UNL     1      -4.552   2.540  25.185  0.00  0.00    +0.048 A 
ATOM     25  C   UNL     1      -5.279   2.375  25.539  0.00  0.00    +0.015 A 
ATOM     26  C   UNL     1      -5.798   2.990  25.721  0.00  0.00    +0.001 A 
ATOM     27  C   UNL     1      -5.590   3.769  25.548  0.00  0.00    +0.000 A 
ATOM     28  C   UNL     1      -4.864   3.934  25.194  0.00  0.00    +0.001 A 
ATOM     29  C   UNL     1      -4.345   3.319  25.012  0.00  0.00    +0.015 A 
ENDBRANCH  21  24
ENDBRANCH  15  16
ENDBRANCH  14  15
TORSDOF 8
ENDMDL
MODEL 5
REMARK VINA RESULT:     -10.2      1.824      5.013
REMARK  Name = 
REMARK  8 active torsions:
REMARK  status: ('A' for Active; 'I' for Inactive)
REMARK    1  A    between atoms: C_2  and  C_3
REMARK    2  A    between atoms: C_3  and  C_4
REMARK    3  A    between atoms: C_4  and  C_5
REMARK    4  A    between atoms: C_7  and  C_8
REMARK    5  A    between atoms: C_8  and  C_9
REMARK    6  A    between atoms: C_14  and  C_15
REMARK    7  A    between atoms: C_15  and  C_16
REMARK    8  A    between atoms: N_21  and  C_24
REMARK                            x       y       z     vdW  Elec       q    Type
REMARK                         _______ _______ _______ _____ _____    ______ ____
ROOT
ATOM      9  C   UNL     1      -3.345  -1.114  24.908  0.00  0.00    +0.024 C 
ATOM     10  C   UNL     1      -3.618  -1.814  24.569  0.00  0.00    +0.089 C 
ATOM     11  N   UNL     1      -4.290  -1.809  24.091  0.00  0.00    -0.218 NA
ATOM     12  C   UNL     1      -4.690  -1.100  23.951  0.00  0.00    +0.089 C 
ATOM     13  C   UNL     1      -4.417  -0.398  24.290  0.00  0.00    +0.019 C 
ATOM     14  C   UNL     1      -3.745  -0.405  24.768  0.00  0.00    +0.012 C 
ENDROOT
BRANCH   9   8
ATOM      8  C   UNL     1      -2.673  -1.119  25.387  0.00  0.00    +0.051 C 
BRANCH   8   7
ATOM      5  C   UNL     1      -0.724  -1.476  24.592  0.00  0.00    +0.154 A 
ATOM      6  C   UNL     1      -1.315  -0.959  24.848  0.00  0.00    +0.054 A 
ATOM      7  C   UNL     1      -1.960  -1.411  25.090  0.00  0.00    +0.100 A 
ATOM     30  N   UNL     1      -1.769  -2.207  24.986  0.00  0.00    -0.082 NA
ATOM     31  O   UNL     1      -1.005  -2.247  24.678  0.00  0.00    -0.358 OA
BRANCH   5   4
ATOM      4  C   UNL     1       0.018  -1.260  24.303  0.00  0.00    +0.067 C 
BRANCH   4   3
ATOM      3  C   UNL     1       0.077  -0.721  23.681  0.00  0.00    +0.008 C 
BRANCH   3   2
ATOM      1  C   UNL     1       0.915  -0.110  22.698  0.00  0.00    +0.000 C 
ATOM      2  C   UNL     1       0.816  -0.438  23.449  0.00  0.00    +0.000 C 
ENDBRANCH   3   2
ENDBRANCH   4   3
ENDBRANCH   5   4
ENDBRANCH   8   7
ENDBRANCH   9   8
BRANCH  14  15
ATOM     15  C   UNL     1      -3.473   0.297  25.106  0.00  0.00    +0.085 C 
BRANCH  15  16
ATOM     16  C   UNL     1      -3.807   1.018  24.886  0.00  0.00    +0.226 C 
ATOM     17  O   UNL     1      -4.594   1.049  24.638  0.00  0.00    -0.275 OA
ATOM     18  N   UNL     1      -3.356   1.708  24.913  0.00  0.00    -0.276 N 
ATOM     19  C   UNL     1      -3.690   2.428  24.692  0.00  0.00    +0.115 C 
ATOM     20  C   UNL     1      -3.238   3.118  24.720  0.00  0.00    +0.112 C 
ATOM     21  N   UNL     1      -2.452   3.087  24.967  0.00  0.00    -0.304 N 
ATOM     22  C   UNL     1      -2.117   2.365  25.187  0.00  0.00    +0.112 C 
ATOM     23  C   UNL     1      -2.569   1.676  25.160  0.00  0.00    +0.115 C 
BRANCH  21  24
ATOM     24  C   UNL     1      -1.999   3.776  24.994  0.00  0.00    +0.048 A 
ATOM     25  C   UNL     1      -1.222   3.770  24.720  0.00  0.00    +0.015 A 
ATOM     26  C   UNL     1      -0.769   4.460  24.747  0.00  0.00    +0.001 A 
ATOM     27  C   UNL     1      -1.095   5.155  25.048  0.00  0.00    +0.000 A 
ATOM     28  C   UNL     1      -1.873   5.161  25.322  0.00  0.00    +0.001 A 
ATOM     29  C   UNL     1      -2.325   4.471  25.295  0.00  0.00    +0.015 A 
ENDBRANCH  21  24
ENDBRANCH  15  16
ENDBRANCH  14  15
TORSDOF 8
ENDMDL
MODEL 6
REMARK VINA RESULT:      -8.1     14.365     16.804
REMARK  Name = 
REMARK  8 active torsions:
REMARK  status: ('A' for Active; 'I' for Inactive)
REMARK    1  A    between atoms: C_2  and  C_3
REMARK    2  A    between atoms: C_3  and  C_4
REMARK    3  A    between atoms: C_4  and  C_5
REMARK    4  A    between atoms: C_7  and  C_8
REMARK    5  A    between atoms: C_8  and  C_9
REMARK    6  A    between atoms: C_14  and  C_15
REMARK    7  A    between atoms: C_15  and  C_16
REMARK    8  A    between atoms: N_21  and  C_24
REMARK                            x       y       z     vdW  Elec       q    Type
REMARK                         _______ _______ _______ _____ _____    ______ ____
ROOT
ATOM      9  C   UNL     1      -3.023 -10.775  15.485  0.00  0.00    +0.024 C 
ATOM     10  C   UNL     1      -2.719 -10.773  16.252  0.00  0.00    +0.089 C 
ATOM     11  N   UNL     1      -1.904 -10.774  16.373  0.00  0.00    -0.218 NA
ATOM     12  C   UNL     1      -1.391 -10.777  15.726  0.00  0.00    +0.089 C 
ATOM     13  C   UNL     1      -1.695 -10.779  14.959  0.00  0.00    +0.019 C 
ATOM     14  C   UNL     1      -2.510 -10.778  14.838  0.00  0.00    +0.012 C 
ENDROOT
BRANCH   9   8
ATOM      8  C   UNL     1      -3.840 -10.774  15.363  0.00  0.00    +0.051 C 
BRANCH   8   7
ATOM      5  C   UNL     1      -5.452 -10.381  16.706  0.00  0.00    +0.154 A 
ATOM      6  C   UNL     1      -5.170 -10.627  15.970  0.00  0.00    +0.054 A 
ATOM      7  C   UNL     1      -4.347 -10.580  15.984  0.00  0.00    +0.100 A 
ATOM     30  N   UNL     1      -4.120 -10.306  16.728  0.00  0.00    -0.082 NA
ATOM     31  O   UNL     1      -4.802 -10.183  17.174  0.00  0.00    -0.358 OA
BRANCH   5   4
ATOM      4  C   UNL     1      -6.244 -10.341  16.934  0.00  0.00    +0.067 C 
BRANCH   4   3
ATOM      3  C   UNL     1      -6.631  -9.613  16.952  0.00  0.00    +0.008 C 
BRANCH   3   2
ATOM      1  C   UNL     1      -8.045  -9.417  16.891  0.00  0.00    +0.000 C 
ATOM      2  C   UNL     1      -7.360  -9.543  17.333  0.00  0.00    +0.000 C 
ENDBRANCH   3   2
ENDBRANCH   4   3
ENDBRANCH   5   4
ENDBRANCH   8   7
ENDBRANCH   9   8
BRANCH  14  15
ATOM     15  C   UNL     1      -2.814 -10.780  14.071  0.00  0.00    +0.085 C 
BRANCH  15  16
ATOM     16  C   UNL     1      -2.315 -10.637  13.430  0.00  0.00    +0.226 C 
ATOM     17  O   UNL     1      -1.497 -10.689  13.524  0.00  0.00    -0.275 OA
ATOM     18  N   UNL     1      -2.633 -10.443  12.694  0.00  0.00    -0.276 N 
ATOM     19  C   UNL     1      -2.134 -10.300  12.053  0.00  0.00    +0.115 C 
ATOM     20  C   UNL     1      -2.454 -10.106  11.317  0.00  0.00    +0.112 C 
ATOM     21  N   UNL     1      -3.271 -10.055  11.223  0.00  0.00    -0.304 N 
ATOM     22  C   UNL     1      -3.770 -10.197  11.865  0.00  0.00    +0.112 C 
ATOM     23  C   UNL     1      -3.452 -10.392  12.600  0.00  0.00    +0.115 C 
BRANCH  21  24
ATOM     24  C   UNL     1      -3.591  -9.860  10.487  0.00  0.00    +0.048 A 
ATOM     25  C   UNL     1      -3.810 -10.457   9.962  0.00  0.00    +0.015 A 
ATOM     26  C   UNL     1      -4.129 -10.263   9.226  0.00  0.00    +0.001 A 
ATOM     27  C   UNL     1      -4.229  -9.472   9.016  0.00  0.00    +0.000 A 
ATOM     28  C   UNL     1      -4.010  -8.875   9.541  0.00  0.00    +0.001 A 
ATOM     29  C   UNL     1      -3.691  -9.069  10.277  0.00  0.00    +0.015 A 
ENDBRANCH  21  24
ENDBRANCH  15  16
ENDBRANCH  14  15
TORSDOF 8
ENDMDL
MODEL 7
REMARK VINA RESULT:      -8.0     14.352     16.359
REMARK  Name = 
REMARK  8 active torsions:
REMARK  status: ('A' for Active; 'I' for Inactive)
REMARK    1  A    between atoms: C_2  and  C_3
REMARK    2  A    between atoms: C_3  and  C_4
REMARK    3  A    between atoms: C_4  and  C_5
REMARK    4  A    between atoms: C_7  and  C_8
REMARK    5  A    between atoms: C_8  and  C_9
REMARK    6  A    between atoms: C_14  and  C_15
REMARK    7  A    between atoms: C_15  and  C_16
REMARK    8  A    between atoms: N_21  and  C_24
REMARK                            x       y       z     vdW  Elec       q    Type
REMARK                         _______ _______ _______ _____ _____    ______ ____
ROOT
ATOM      9  C   UNL     1      -5.266 -10.237  16.110  0.00  0.00    +0.024 C 
ATOM     10  C   UNL     1      -5.234 -10.297  16.932  0.00  0.00    +0.089 C 
ATOM     11  N   UNL     1      -4.549 -10.569  17.300  0.00  0.00    -0.218 NA
ATOM     12  C   UNL     1      -3.893 -10.781  16.846  0.00  0.00    +0.089 C 
ATOM     13  C   UNL     1      -3.924 -10.720  16.023  0.00  0.00    +0.019 C 
ATOM     14  C   UNL     1      -4.610 -10.448  15.655  0.00  0.00    +0.012 C 
ENDROOT
BRANCH   9   8
ATOM      8  C   UNL     1      -5.952  -9.964  15.741  0.00  0.00    +0.051 C 
BRANCH   8   7
ATOM      5  C   UNL     1      -7.736  -9.521  16.826  0.00  0.00    +0.154 A 
ATOM      6  C   UNL     1      -7.043  -9.279  16.448  0.00  0.00    +0.054 A 
ATOM      7  C   UNL     1      -6.664  -9.951  16.157  0.00  0.00    +0.100 A 
ATOM     30  N   UNL     1      -7.123 -10.608  16.354  0.00  0.00    -0.082 NA
ATOM     31  O   UNL     1      -7.785 -10.342  16.767  0.00  0.00    -0.358 OA
BRANCH   5   4
ATOM      4  C   UNL     1      -8.284  -9.028  17.196  0.00  0.00    +0.067 C 
BRANCH   4   3
ATOM      3  C   UNL     1      -8.913  -8.712  16.766  0.00  0.00    +0.008 C 
BRANCH   3   2
ATOM      1  C   UNL     1     -10.081  -7.889  16.751  0.00  0.00    +0.000 C 
ATOM      2  C   UNL     1      -9.556  -8.378  17.160  0.00  0.00    +0.000 C 
ENDBRANCH   3   2
ENDBRANCH   4   3
ENDBRANCH   5   4
ENDBRANCH   8   7
ENDBRANCH   9   8
BRANCH  14  15
ATOM     15  C   UNL     1      -4.641 -10.388  14.833  0.00  0.00    +0.085 C 
BRANCH  15  16
ATOM     16  C   UNL     1      -3.959 -10.510  14.385  0.00  0.00    +0.226 C 
ATOM     17  O   UNL     1      -3.262 -10.754  14.752  0.00  0.00    -0.275 OA
ATOM     18  N   UNL     1      -3.974 -10.388  13.569  0.00  0.00    -0.276 N 
ATOM     19  C   UNL     1      -3.292 -10.509  13.121  0.00  0.00    +0.115 C 
ATOM     20  C   UNL     1      -3.308 -10.387  12.305  0.00  0.00    +0.112 C 
ATOM     21  N   UNL     1      -4.005 -10.143  11.938  0.00  0.00    -0.304 N 
ATOM     22  C   UNL     1      -4.687 -10.021  12.387  0.00  0.00    +0.112 C 
ATOM     23  C   UNL     1      -4.672 -10.143  13.202  0.00  0.00    +0.115 C 
BRANCH  21  24
ATOM     24  C   UNL     1      -4.021 -10.021  11.122  0.00  0.00    +0.048 A 
ATOM     25  C   UNL     1      -4.498 -10.494  10.643  0.00  0.00    +0.015 A 
ATOM     26  C   UNL     1      -4.514 -10.371   9.827  0.00  0.00    +0.001 A 
ATOM     27  C   UNL     1      -4.053  -9.777   9.491  0.00  0.00    +0.000 A 
ATOM     28  C   UNL     1      -3.575  -9.304   9.969  0.00  0.00    +0.001 A 
ATOM     29  C   UNL     1      -3.560  -9.426  10.785  0.00  0.00    +0.015 A 
ENDBRANCH  21  24
ENDBRANCH  15  16
ENDBRANCH  14  15
TORSDOF 8
ENDMDL
MODEL 8
REMARK VINA RESULT:      -7.6     14.181     16.573
REMARK  Name = 
REMARK  8 active torsions:
REMARK  status: ('A' for Active; 'I' for Inactive)
REMARK    1  A    between atoms: C_2  and  C_3
REMARK    2  A    between atoms: C_3  and  C_4
REMARK    3  A    between atoms: C_4  and  C_5
REMARK    4  A    between atoms: C_7  and  C_8
REMARK    5  A    between atoms: C_8  and  C_9
REMARK    6  A    between atoms: C_14  and  C_15
REMARK    7  A    between atoms: C_15  and  C_16
REMARK    8  A    between atoms: N_21  and  C_24
REMARK                            x       y       z     vdW  Elec       q    Type
REMARK                         _______ _______ _______ _____ _____    ______ ____
ROOT
ATOM      9  C   UNL     1      -3.802 -10.499  13.139  0.00  0.00    +0.024 C 
ATOM     10  C   UNL     1      -3.302 -10.495  12.483  0.00  0.00    +0.089 C 
ATOM     11  N   UNL     1      -2.487 -10.561  12.584  0.00  0.00    -0.218 NA
ATOM     12  C   UNL     1      -2.170 -10.632  13.343  0.00  0.00    +0.089 C 
ATOM     13  C   UNL     1      -2.670 -10.636  14.000  0.00  0.00    +0.019 C 
ATOM     14  C   UNL     1      -3.485 -10.569  13.898  0.00  0.00    +0.012 C 
ENDROOT
BRANCH   9   8
ATOM      8  C   UNL     1      -4.619 -10.432  13.038  0.00  0.00    +0.051 C 
BRANCH   8   7
ATOM      5  C   UNL     1      -5.427  -9.548  11.271  0.00  0.00    +0.154 A 
ATOM      6  C   UNL     1      -5.151  -9.486  12.047  0.00  0.00    +0.054 A 
ATOM      7  C   UNL     1      -4.926 -10.239  12.297  0.00  0.00    +0.100 A 
ATOM     30  N   UNL     1      -5.063 -10.765  11.677  0.00  0.00    -0.082 NA
ATOM     31  O   UNL     1      -5.373 -10.338  11.043  0.00  0.00    -0.358 OA
BRANCH   5   4
ATOM      4  C   UNL     1      -5.708  -8.927  10.806  0.00  0.00    +0.067 C 
BRANCH   4   3
ATOM      3  C   UNL     1      -6.326  -9.056  10.275  0.00  0.00    +0.008 C 
BRANCH   3   2
ATOM      1  C   UNL     1      -7.186  -8.574   9.241  0.00  0.00    +0.000 C 
ATOM      2  C   UNL     1      -6.522  -8.477   9.721  0.00  0.00    +0.000 C 
ENDBRANCH   3   2
ENDBRANCH   4   3
ENDBRANCH   5   4
ENDBRANCH   8   7
ENDBRANCH   9   8
BRANCH  14  15
ATOM     15  C   UNL     1      -3.985 -10.573  14.555  0.00  0.00    +0.085 C 
BRANCH  15  16
ATOM     16  C   UNL     1      -3.670 -10.666  15.311  0.00  0.00    +0.226 C 
ATOM     17  O   UNL     1      -2.859 -10.781  15.410  0.00  0.00    -0.275 OA
ATOM     18  N   UNL     1      -4.166 -10.644  15.971  0.00  0.00    -0.276 N 
ATOM     19  C   UNL     1      -3.851 -10.737  16.727  0.00  0.00    +0.115 C 
ATOM     20  C   UNL     1      -4.348 -10.715  17.386  0.00  0.00    +0.112 C 
ATOM     21  N   UNL     1      -5.159 -10.601  17.287  0.00  0.00    -0.304 N 
ATOM     22  C   UNL     1      -5.474 -10.508  16.530  0.00  0.00    +0.112 C 
ATOM     23  C   UNL     1      -4.978 -10.529  15.872  0.00  0.00    +0.115 C 
BRANCH  21  24
ATOM     24  C   UNL     1      -5.656 -10.579  17.946  0.00  0.00    +0.048 A 
ATOM     25  C   UNL     1      -6.446 -10.359  17.859  0.00  0.00    +0.015 A 
ATOM     26  C   UNL     1      -6.943 -10.337  18.518  0.00  0.00    +0.001 A 
ATOM     27  C   UNL     1      -6.649 -10.535  19.262  0.00  0.00    +0.000 A 
ATOM     28  C   UNL     1      -5.859 -10.755  19.350  0.00  0.00    +0.001 A 
ATOM     29  C   UNL     1      -5.362 -10.777  18.691  0.00  0.00    +0.015 A 
ENDBRANCH  21  24
ENDBRANCH  15  16
ENDBRANCH  14  15
TORSDOF 8
ENDMDL
MODEL 9
REMARK VINA RESULT:      -7.5     14.786     17.409
REMARK  Name = 
REMARK  8 active torsions:
REMARK  status: ('A' for Active; 'I' for Inactive)
REMARK    1  A    between atoms: C_2  and  C_3
REMARK    2  A    between atoms: C_3  and  C_4
REMARK    3  A    between atoms: C_4  and  C_5
REMARK    4  A    between atoms: C_7  and  C_8
REMARK    5  A    between atoms: C_8  and  C_9
REMARK    6  A    between atoms: C_14  and  C_15
REMARK    7  A    between atoms: C_15  and  C_16
REMARK    8  A    between atoms: N_21  and  C_24
REMARK                            x       y       z     vdW  Elec       q    Type
REMARK                         _______ _______ _______ _____ _____    ______ ____
ROOT
ATOM      9  C   UNL     1      -2.495 -10.170  11.538  0.00  0.00    +0.024 C 
ATOM     10  C   UNL     1      -2.057  -9.788  10.954  0.00  0.00    +0.089 C 
ATOM     11  N   UNL     1      -1.348  -9.414  11.146  0.00  0.00    -0.218 NA
ATOM     12  C   UNL     1      -1.076  -9.423  11.926  0.00  0.00    +0.089 C 
ATOM     13  C   UNL     1      -1.514  -9.806  12.511  0.00  0.00    +0.019 C 
ATOM     14  C   UNL     1      -2.224 -10.179  12.318  0.00  0.00    +0.012 C 
ENDROOT
BRANCH   9   8
ATOM      8  C   UNL     1      -3.206 -10.544  11.345  0.00  0.00    +0.051 C 
BRANCH   8   7
ATOM      5  C   UNL     1      -4.430  -9.663   9.835  0.00  0.00    +0.154 A 
ATOM      6  C   UNL     1      -4.147  -9.688  10.610  0.00  0.00    +0.054 A 
ATOM      7  C   UNL     1      -3.619 -10.318  10.668  0.00  0.00    +0.100 A 
ATOM     30  N   UNL     1      -3.575 -10.683   9.930  0.00  0.00    -0.082 NA
ATOM     31  O   UNL     1      -4.076 -10.278   9.415  0.00  0.00    -0.358 OA
BRANCH   5   4
ATOM      4  C   UNL     1      -4.972  -9.119   9.534  0.00  0.00    +0.067 C 
BRANCH   4   3
ATOM      3  C   UNL     1      -5.740  -9.358   9.352  0.00  0.00    +0.008 C 
BRANCH   3   2
ATOM      1  C   UNL     1      -7.043  -9.045   8.857  0.00  0.00    +0.000 C 
ATOM      2  C   UNL     1      -6.307  -8.799   9.137  0.00  0.00    +0.000 C 
ENDBRANCH   3   2
ENDBRANCH   4   3
ENDBRANCH   5   4
ENDBRANCH   8   7
ENDBRANCH   9   8
BRANCH  14  15
ATOM     15  C   UNL     1      -2.662 -10.562  12.903  0.00  0.00    +0.085 C 
BRANCH  15  16
ATOM     16  C   UNL     1      -2.352 -10.642  13.663  0.00  0.00    +0.226 C 
ATOM     17  O   UNL     1      -1.540 -10.748  13.769  0.00  0.00    -0.275 OA
ATOM     18  N   UNL     1      -2.853 -10.617  14.318  0.00  0.00    -0.276 N 
ATOM     19  C   UNL     1      -2.543 -10.698  15.078  0.00  0.00    +0.115 C 
ATOM     20  C   UNL     1      -3.045 -10.672  15.733  0.00  0.00    +0.112 C 
ATOM     21  N   UNL     1      -3.856 -10.567  15.627  0.00  0.00    -0.304 N 
ATOM     22  C   UNL     1      -4.166 -10.486  14.866  0.00  0.00    +0.112 C 
ATOM     23  C   UNL     1      -3.665 -10.511  14.212  0.00  0.00    +0.115 C 
BRANCH  21  24
ATOM     24  C   UNL     1      -4.358 -10.542  16.282  0.00  0.00    +0.048 A 
ATOM     25  C   UNL     1      -5.134 -10.277  16.196  0.00  0.00    +0.015 A 
ATOM     26  C   UNL     1      -5.636 -10.252  16.851  0.00  0.00    +0.001 A 
ATOM     27  C   UNL     1      -5.361 -10.491  17.590  0.00  0.00    +0.000 A 
ATOM     28  C   UNL     1      -4.585 -10.755  17.677  0.00  0.00    +0.001 A 
ATOM     29  C   UNL     1      -4.083 -10.781  17.022  0.00  0.00    +0.015 A 
ENDBRANCH  21  24
ENDBRANCH  15  16
ENDBRANCH  14  15
TORSDOF 8
ENDMDL
MODEL 10
REMARK VINA RESULT:      -7.4     15.635     18.114
REMARK  Name = 
REMARK  8 active torsions:
REMARK  status: ('A' for Active; 'I' for Inactive)
REMARK    1  A    between atoms: C_2  and  C_3
REMARK    2  A    between atoms: C_3  and  C_4
REMARK    3  A    between atoms: C_4  and  C_5
REMARK    4  A    between atoms: C_7  and  C_8
REMARK    5  A    between atoms: C_8  and  C_9
REMARK    6  A    between atoms: C_14  and  C_15
REMARK    7  A    between atoms: C_15  and  C_16
REMARK    8  A    between atoms: N_21  and  C_24
REMARK                            x       y       z     vdW  Elec       q    Type
REMARK                         _______ _______ _______ _____ _____    ______ ____
ROOT
ATOM      9  C   UNL     1      -4.714  -9.925  10.205  0.00  0.00    +0.024 C 
ATOM     10  C   UNL     1      -4.895  -9.518   9.511  0.00  0.00    +0.089 C 
ATOM     11  N   UNL     1      -4.345  -8.998   9.182  0.00  0.00    -0.218 NA
ATOM     12  C   UNL     1      -3.614  -8.885   9.548  0.00  0.00    +0.089 C 
ATOM     13  C   UNL     1      -3.433  -9.293  10.243  0.00  0.00    +0.019 C 
ATOM     14  C   UNL     1      -3.983  -9.813  10.571  0.00  0.00    +0.012 C 
ENDROOT
BRANCH   9   8
ATOM      8  C   UNL     1      -5.264 -10.446  10.534  0.00  0.00    +0.051 C 
BRANCH   8   7
ATOM      5  C   UNL     1      -7.337  -9.943  10.618  0.00  0.00    +0.154 A 
ATOM      6  C   UNL     1      -6.584  -9.957  10.957  0.00  0.00    +0.054 A 
ATOM      7  C   UNL     1      -6.071 -10.316  10.421  0.00  0.00    +0.100 A 
ATOM     30  N   UNL     1      -6.506 -10.525   9.752  0.00  0.00    -0.082 NA
ATOM     31  O   UNL     1      -7.288 -10.294   9.874  0.00  0.00    -0.358 OA
BRANCH   5   4
ATOM      4  C   UNL     1      -8.018  -9.632  10.964  0.00  0.00    +0.067 C 
BRANCH   4   3
ATOM      3  C   UNL     1      -8.750  -9.987  10.826  0.00  0.00    +0.008 C 
BRANCH   3   2
ATOM      1  C   UNL     1     -10.115 -10.171  11.205  0.00  0.00    +0.000 C 
ATOM      2  C   UNL     1      -9.417  -9.732  11.239  0.00  0.00    +0.000 C 
ENDBRANCH   3   2
ENDBRANCH   4   3
ENDBRANCH   5   4
ENDBRANCH   8   7
ENDBRANCH   9   8
BRANCH  14  15
ATOM     15  C   UNL     1      -3.802 -10.220  11.266  0.00  0.00    +0.085 C 
BRANCH  15  16
ATOM     16  C   UNL     1      -3.019 -10.276  11.519  0.00  0.00    +0.226 C 
ATOM     17  O   UNL     1      -2.405 -10.255  10.968  0.00  0.00    -0.275 OA
ATOM     18  N   UNL     1      -2.850 -10.351  12.323  0.00  0.00    -0.276 N 
ATOM     19  C   UNL     1      -2.067 -10.407  12.576  0.00  0.00    +0.115 C 
ATOM     20  C   UNL     1      -1.898 -10.482  13.380  0.00  0.00    +0.112 C 
ATOM     21  N   UNL     1      -2.512 -10.503  13.930  0.00  0.00    -0.304 N 
ATOM     22  C   UNL     1      -3.296 -10.447  13.676  0.00  0.00    +0.112 C 
ATOM     23  C   UNL     1      -3.465 -10.372  12.873  0.00  0.00    +0.115 C 
BRANCH  21  24
ATOM     24  C   UNL     1      -2.343 -10.579  14.735  0.00  0.00    +0.048 A 
ATOM     25  C   UNL     1      -2.959 -10.637  15.281  0.00  0.00    +0.015 A 
ATOM     26  C   UNL     1      -2.790 -10.713  16.085  0.00  0.00    +0.001 A 
ATOM     27  C   UNL     1      -2.007 -10.730  16.342  0.00  0.00    +0.000 A 
ATOM     28  C   UNL     1      -1.392 -10.671  15.796  0.00  0.00    +0.001 A 
ATOM     29  C   UNL     1      -1.560 -10.595  14.992  0.00  0.00    +0.015 A 
ENDBRANCH  21  24
ENDBRANCH  15  16
ENDBRANCH  14  15
TORSDOF 8
ENDMDL
