REMARK  Name = 
REMARK  4 active torsions:
REMARK  status: ('A' for Active; 'I' for Inactive)
REMARK    1  A    between atoms: C_2  and  N_4
REMARK    2  A    between atoms: N_7  and  C_8
REMARK    3  A    between atoms: C_19  and  C_22
REMARK    4  A    between atoms: C_24  and  C_28
REMARK                            x       y       z     vdW  Elec       q    Type
REMARK                         _______ _______ _______ _____ _____    ______ ____
ROOT
ATOM      8  C   UNL     1       5.559   0.496   0.000  0.00  0.00    +0.126 C 
ATOM      9  C   UNL     1       5.875   1.258   0.000  0.00  0.00    +0.045 C 
ATOM     10  C   UNL     1       5.248   1.794   0.000  0.00  0.00    +0.096 C 
ATOM     11  N   UNL     1       4.544   1.363   0.000  0.00  0.00    -0.268 N 
ATOM     12  C   UNL     1       4.737   0.560   0.000  0.00  0.00    +0.174 C 
ATOM     13  C   UNL     1       4.229  -0.090   0.000  0.00  0.00    +0.265 C 
ATOM     14  O   UNL     1       4.596  -0.829   0.000  0.00  0.00    -0.271 OA
ATOM     15  N   UNL     1       3.405  -0.099   0.000  0.00  0.00    -0.178 NA
ATOM     16  C   UNL     1       2.883   0.540   0.000  0.00  0.00    +0.078 A 
ATOM     17  C   UNL     1       3.058   1.346   0.000  0.00  0.00    +0.069 A 
ATOM     18  C   UNL     1       2.447   1.901   0.000  0.00  0.00    +0.006 A 
ATOM     19  C   UNL     1       1.661   1.649   0.000  0.00  0.00    +0.000 A 
ATOM     20  C   UNL     1       1.486   0.842   0.000  0.00  0.00    +0.001 A 
ATOM     21  C   UNL     1       2.097   0.288   0.000  0.00  0.00    +0.017 A 
ATOM     32  C   UNL     1       3.797   1.712   0.000  0.00  0.00    +0.251 C 
ATOM     33  O   UNL     1       3.788   2.537   0.000  0.00  0.00    -0.270 OA
ENDROOT
BRANCH  19  22
ATOM     22  C   UNL     1       1.050   2.203   0.000  0.00  0.00    -0.000 A 
ATOM     23  C   UNL     1       0.264   1.951   0.000  0.00  0.00    +0.004 A 
ATOM     24  C   UNL     1      -0.347   2.505   0.000  0.00  0.00    +0.071 A 
ATOM     25  C   UNL     1      -0.172   3.312   0.000  0.00  0.00    +0.004 A 
ATOM     26  C   UNL     1       0.614   3.563   0.000  0.00  0.00    -0.000 A 
ATOM     27  C   UNL     1       1.225   3.009   0.000  0.00  0.00    -0.000 A 
BRANCH  24  28
ATOM     28  C   UNL     1      -1.132   2.253   0.000  0.00  0.00    +0.419 C 
ATOM     29  F   UNL     1      -1.918   2.001   0.000  0.00  0.00    -0.166 F 
ATOM     30  F   UNL     1      -1.384   3.039   0.000  0.00  0.00    -0.166 F 
ATOM     31  F   UNL     1      -0.880   1.468   0.000  0.00  0.00    -0.166 F 
ENDBRANCH  24  28
ENDBRANCH  19  22
BRANCH   8   7
ATOM      4  N   UNL     1       7.246  -0.890   0.000  0.00  0.00    -0.189 NA
ATOM      5  C   UNL     1       6.815  -0.186   0.000  0.00  0.00    +0.339 C 
ATOM      6  O   UNL     1       7.209   0.539   0.000  0.00  0.00    -0.249 OA
ATOM      7  N   UNL     1       5.990  -0.208   0.000  0.00  0.00    -0.187 NA
BRANCH   4   2
ATOM      1  C   UNL     1       8.502  -1.571   0.000  0.00  0.00    +0.023 C 
ATOM      2  C   UNL     1       8.071  -0.868   0.000  0.00  0.00    +0.097 C 
ATOM      3  C   UNL     1       8.464  -0.143   0.000  0.00  0.00    +0.023 C 
ENDBRANCH   4   2
ENDBRANCH   8   7
TORSDOF 4
