MODEL 1
REMARK VINA RESULT:     -11.6      0.000      0.000
REMARK  Name = 
REMARK  6 active torsions:
REMARK  status: ('A' for Active; 'I' for Inactive)
REMARK    1  A    between atoms: C_7  and  C_8
REMARK    2  A    between atoms: C_8  and  N_9
REMARK    3  A    between atoms: N_9  and  C_10
REMARK    4  A    between atoms: C_10  and  C_11
REMARK    5  A    between atoms: C_11  and  C_12
REMARK    6  A    between atoms: C_15  and  C_17
REMARK                            x       y       z     vdW  Elec       q    Type
REMARK                         _______ _______ _______ _____ _____    ______ ____
ROOT
ATOM     10  C   UNL     1      -4.763   1.499  24.822  0.00  0.00    +0.120 C 
ATOM     23  C   UNL     1      -5.421   1.164  25.188  0.00  0.00    +0.161 C 
ATOM     24  O   UNL     1      -5.870   1.828  24.989  0.00  0.00    -0.351 OA
ATOM     25  C   UNL     1      -5.210   2.163  24.622  0.00  0.00    +0.161 C 
ENDROOT
BRANCH  10   9
ATOM      9  N   UNL     1      -4.314   0.835  25.021  0.00  0.00    -0.211 NA
BRANCH   9   8
ATOM      8  C   UNL     1      -4.481   0.106  24.676  0.00  0.00    +0.116 C 
BRANCH   8   7
ATOM      1 CL   UNL     1      -4.319  -1.166  23.637  0.00  0.00    -0.083 Cl
ATOM      2  C   UNL     1      -3.982  -1.203  24.389  0.00  0.00    +0.055 A 
ATOM      3  C   UNL     1      -3.565  -1.875  24.623  0.00  0.00    +0.011 A 
ATOM      4  C   UNL     1      -3.228  -1.912  25.375  0.00  0.00    +0.001 A 
ATOM      5  C   UNL     1      -3.310  -1.275  25.894  0.00  0.00    -0.000 A 
ATOM      6  C   UNL     1      -3.727  -0.603  25.661  0.00  0.00    -0.002 A 
ATOM      7  C   UNL     1      -4.063  -0.567  24.909  0.00  0.00    +0.006 A 
ENDBRANCH   8   7
ENDBRANCH   9   8
ENDBRANCH  10   9
BRANCH  10  11
ATOM     11  C   UNL     1      -4.103   1.834  24.455  0.00  0.00    +0.070 C 
BRANCH  11  12
ATOM     12  C   UNL     1      -3.690   2.442  24.827  0.00  0.00    +0.102 A 
ATOM     13  N   UNL     1      -3.915   2.830  25.519  0.00  0.00    -0.081 NA
ATOM     14  O   UNL     1      -3.343   3.398  25.692  0.00  0.00    -0.352 OA
ATOM     15  C   UNL     1      -2.762   3.362  25.107  0.00  0.00    +0.194 A 
ATOM     16  C   UNL     1      -2.977   2.771  24.572  0.00  0.00    +0.060 A 
BRANCH  15  17
ATOM     17  C   UNL     1      -2.086   3.833  25.063  0.00  0.00    +0.118 A 
ATOM     18  N   UNL     1      -1.352   3.487  24.913  0.00  0.00    -0.241 NA
ATOM     19  C   UNL     1      -0.676   3.958  24.869  0.00  0.00    +0.099 A 
ATOM     20  C   UNL     1      -0.735   4.774  24.975  0.00  0.00    +0.021 A 
ATOM     21  C   UNL     1      -1.469   5.120  25.125  0.00  0.00    +0.003 A 
ATOM     22  C   UNL     1      -2.145   4.648  25.168  0.00  0.00    +0.022 A 
ENDBRANCH  15  17
ENDBRANCH  11  12
ENDBRANCH  10  11
TORSDOF 6
ENDMDL
MODEL 2
REMARK VINA RESULT:     -11.1      1.618      4.607
REMARK  Name = 
REMARK  6 active torsions:
REMARK  status: ('A' for Active; 'I' for Inactive)
REMARK    1  A    between atoms: C_7  and  C_8
REMARK    2  A    between atoms: C_8  and  N_9
REMARK    3  A    between atoms: N_9  and  C_10
REMARK    4  A    between atoms: C_10  and  C_11
REMARK    5  A    between atoms: C_11  and  C_12
REMARK    6  A    between atoms: C_15  and  C_17
REMARK                            x       y       z     vdW  Elec       q    Type
REMARK                         _______ _______ _______ _____ _____    ______ ____
ROOT
ATOM     10  C   UNL     1      -4.221   2.888  25.169  0.00  0.00    +0.120 C 
ATOM     23  C   UNL     1      -4.311   3.486  25.730  0.00  0.00    +0.161 C 
ATOM     24  O   UNL     1      -5.125   3.490  25.596  0.00  0.00    -0.351 OA
ATOM     25  C   UNL     1      -5.036   2.891  25.035  0.00  0.00    +0.161 C 
ENDROOT
BRANCH  10   9
ATOM      9  N   UNL     1      -3.407   2.884  25.303  0.00  0.00    -0.211 NA
BRANCH   9   8
ATOM      8  C   UNL     1      -2.984   3.591  25.298  0.00  0.00    +0.116 C 
BRANCH   8   7
ATOM      1 CL   UNL     1      -2.101   4.901  24.822  0.00  0.00    -0.083 Cl
ATOM      2  C   UNL     1      -1.720   4.236  25.128  0.00  0.00    +0.055 A 
ATOM      3  C   UNL     1      -0.898   4.225  25.197  0.00  0.00    +0.011 A 
ATOM      4  C   UNL     1      -0.517   3.561  25.504  0.00  0.00    +0.001 A 
ATOM      5  C   UNL     1      -0.960   2.906  25.742  0.00  0.00    -0.000 A 
ATOM      6  C   UNL     1      -1.782   2.916  25.673  0.00  0.00    -0.002 A 
ATOM      7  C   UNL     1      -2.162   3.581  25.366  0.00  0.00    +0.006 A 
ENDBRANCH   8   7
ENDBRANCH   9   8
ENDBRANCH  10   9
BRANCH  10  11
ATOM     11  C   UNL     1      -4.132   2.289  24.608  0.00  0.00    +0.070 C 
BRANCH  11  12
ATOM     12  C   UNL     1      -4.315   1.510  24.805  0.00  0.00    +0.102 A 
ATOM     13  N   UNL     1      -4.910   1.266  25.321  0.00  0.00    -0.081 NA
ATOM     14  O   UNL     1      -4.897   0.442  25.355  0.00  0.00    -0.352 OA
ATOM     15  C   UNL     1      -4.294   0.175  24.859  0.00  0.00    +0.194 A 
ATOM     16  C   UNL     1      -3.934   0.835  24.519  0.00  0.00    +0.060 A 
BRANCH  15  17
ATOM     17  C   UNL     1      -4.087  -0.612  24.726  0.00  0.00    +0.118 A 
ATOM     18  N   UNL     1      -4.355  -1.000  24.048  0.00  0.00    -0.241 NA
ATOM     19  C   UNL     1      -4.148  -1.787  23.916  0.00  0.00    +0.099 A 
ATOM     20  C   UNL     1      -3.674  -2.187  24.460  0.00  0.00    +0.021 A 
ATOM     21  C   UNL     1      -3.406  -1.799  25.137  0.00  0.00    +0.003 A 
ATOM     22  C   UNL     1      -3.613  -1.012  25.270  0.00  0.00    +0.022 A 
ENDBRANCH  15  17
ENDBRANCH  11  12
ENDBRANCH  10  11
TORSDOF 6
ENDMDL
MODEL 3
REMARK VINA RESULT:     -10.4      2.014      2.709
REMARK  Name = 
REMARK  6 active torsions:
REMARK  status: ('A' for Active; 'I' for Inactive)
REMARK    1  A    between atoms: C_7  and  C_8
REMARK    2  A    between atoms: C_8  and  N_9
REMARK    3  A    between atoms: N_9  and  C_10
REMARK    4  A    between atoms: C_10  and  C_11
REMARK    5  A    between atoms: C_11  and  C_12
REMARK    6  A    between atoms: C_15  and  C_17
REMARK                            x       y       z     vdW  Elec       q    Type
REMARK                         _______ _______ _______ _____ _____    ______ ____
ROOT
ATOM     10  C   UNL     1      -1.312  -0.140  24.748  0.00  0.00    +0.120 C 
ATOM     23  C   UNL     1      -0.928  -0.769  24.379  0.00  0.00    +0.161 C 
ATOM     24  O   UNL     1      -0.199  -0.469  24.625  0.00  0.00    -0.351 OA
ATOM     25  C   UNL     1      -0.584   0.161  24.994  0.00  0.00    +0.161 C 
ENDROOT
BRANCH  10   9
ATOM      9  N   UNL     1      -2.040  -0.440  24.502  0.00  0.00    -0.211 NA
BRANCH   9   8
ATOM      8  C   UNL     1      -2.290  -1.181  24.761  0.00  0.00    +0.116 C 
BRANCH   8   7
ATOM      1 CL   UNL     1      -2.581  -2.801  24.883  0.00  0.00    -0.083 Cl
ATOM      2  C   UNL     1      -3.151  -2.303  24.554  0.00  0.00    +0.055 A 
ATOM      3  C   UNL     1      -3.867  -2.614  24.285  0.00  0.00    +0.011 A 
ATOM      4  C   UNL     1      -4.437  -2.116  23.957  0.00  0.00    +0.001 A 
ATOM      5  C   UNL     1      -4.290  -1.306  23.896  0.00  0.00    -0.000 A 
ATOM      6  C   UNL     1      -3.575  -0.994  24.164  0.00  0.00    -0.002 A 
ATOM      7  C   UNL     1      -3.006  -1.493  24.493  0.00  0.00    +0.006 A 
ENDBRANCH   8   7
ENDBRANCH   9   8
ENDBRANCH  10   9
BRANCH  10  11
ATOM     11  C   UNL     1      -1.697   0.491  25.117  0.00  0.00    +0.070 C 
BRANCH  11  12
ATOM     12  C   UNL     1      -1.637   1.251  24.803  0.00  0.00    +0.102 A 
ATOM     13  N   UNL     1      -1.537   1.440  24.006  0.00  0.00    -0.081 NA
ATOM     14  O   UNL     1      -1.505   2.262  23.942  0.00  0.00    -0.352 OA
ATOM     15  C   UNL     1      -1.584   2.581  24.699  0.00  0.00    +0.194 A 
ATOM     16  C   UNL     1      -1.666   1.956  25.231  0.00  0.00    +0.060 A 
BRANCH  15  17
ATOM     17  C   UNL     1      -1.583   3.384  24.890  0.00  0.00    +0.118 A 
ATOM     18  N   UNL     1      -2.269   3.740  25.179  0.00  0.00    -0.241 NA
ATOM     19  C   UNL     1      -2.267   4.542  25.370  0.00  0.00    +0.099 A 
ATOM     20  C   UNL     1      -1.580   4.988  25.273  0.00  0.00    +0.021 A 
ATOM     21  C   UNL     1      -0.894   4.632  24.984  0.00  0.00    +0.003 A 
ATOM     22  C   UNL     1      -0.896   3.829  24.793  0.00  0.00    +0.022 A 
ENDBRANCH  15  17
ENDBRANCH  11  12
ENDBRANCH  10  11
TORSDOF 6
ENDMDL
MODEL 4
REMARK VINA RESULT:     -10.1      2.378      5.089
REMARK  Name = 
REMARK  6 active torsions:
REMARK  status: ('A' for Active; 'I' for Inactive)
REMARK    1  A    between atoms: C_7  and  C_8
REMARK    2  A    between atoms: C_8  and  N_9
REMARK    3  A    between atoms: N_9  and  C_10
REMARK    4  A    between atoms: C_10  and  C_11
REMARK    5  A    between atoms: C_11  and  C_12
REMARK    6  A    between atoms: C_15  and  C_17
REMARK                            x       y       z     vdW  Elec       q    Type
REMARK                         _______ _______ _______ _____ _____    ______ ____
ROOT
ATOM     10  C   UNL     1      -1.054   1.722  24.900  0.00  0.00    +0.120 C 
ATOM     23  C   UNL     1      -0.765   2.334  24.428  0.00  0.00    +0.161 C 
ATOM     24  O   UNL     1      -0.000   2.035  24.508  0.00  0.00    -0.351 OA
ATOM     25  C   UNL     1      -0.290   1.422  24.980  0.00  0.00    +0.161 C 
ENDROOT
BRANCH  10   9
ATOM      9  N   UNL     1      -1.819   2.021  24.821  0.00  0.00    -0.211 NA
BRANCH   9   8
ATOM      8  C   UNL     1      -1.986   2.794  25.052  0.00  0.00    +0.116 C 
BRANCH   8   7
ATOM      1 CL   UNL     1      -2.546   3.883  26.159  0.00  0.00    -0.083 Cl
ATOM      2  C   UNL     1      -3.035   3.631  25.544  0.00  0.00    +0.055 A 
ATOM      3  C   UNL     1      -3.804   3.923  25.482  0.00  0.00    +0.011 A 
ATOM      4  C   UNL     1      -4.294   3.672  24.867  0.00  0.00    +0.001 A 
ATOM      5  C   UNL     1      -4.013   3.128  24.314  0.00  0.00    -0.000 A 
ATOM      6  C   UNL     1      -3.244   2.835  24.375  0.00  0.00    -0.002 A 
ATOM      7  C   UNL     1      -2.755   3.087  24.991  0.00  0.00    +0.006 A 
ENDBRANCH   8   7
ENDBRANCH   9   8
ENDBRANCH  10   9
BRANCH  10  11
ATOM     11  C   UNL     1      -1.343   1.110  25.373  0.00  0.00    +0.070 C 
BRANCH  11  12
ATOM     12  C   UNL     1      -1.487   0.368  25.043  0.00  0.00    +0.102 A 
ATOM     13  N   UNL     1      -0.948  -0.085  24.613  0.00  0.00    -0.081 NA
ATOM     14  O   UNL     1      -1.324  -0.785  24.389  0.00  0.00    -0.352 OA
ATOM     15  C   UNL     1      -2.096  -0.764  24.681  0.00  0.00    +0.194 A 
ATOM     16  C   UNL     1      -2.197  -0.052  25.084  0.00  0.00    +0.060 A 
BRANCH  15  17
ATOM     17  C   UNL     1      -2.667  -1.352  24.585  0.00  0.00    +0.118 A 
ATOM     18  N   UNL     1      -2.491  -2.133  24.785  0.00  0.00    -0.241 NA
ATOM     19  C   UNL     1      -3.062  -2.721  24.689  0.00  0.00    +0.099 A 
ATOM     20  C   UNL     1      -3.808  -2.528  24.395  0.00  0.00    +0.021 A 
ATOM     21  C   UNL     1      -3.983  -1.747  24.195  0.00  0.00    +0.003 A 
ATOM     22  C   UNL     1      -3.412  -1.159  24.291  0.00  0.00    +0.022 A 
ENDBRANCH  15  17
ENDBRANCH  11  12
ENDBRANCH  10  11
TORSDOF 6
ENDMDL
