MODEL 1
REMARK VINA RESULT:     -11.0      0.000      0.000
REMARK  Name = 
REMARK  6 active torsions:
REMARK  status: ('A' for Active; 'I' for Inactive)
REMARK    1  A    between atoms: C_2  and  C_4
REMARK    2  A    between atoms: C_7  and  C_8
REMARK    3  A    between atoms: C_8  and  N_9
REMARK    4  A    between atoms: C_13  and  C_14
REMARK    5  A    between atoms: C_16  and  C_19
REMARK    6  A    between atoms: C_22  and  C_25
REMARK                            x       y       z     vdW  Elec       q    Type
REMARK                         _______ _______ _______ _____ _____    ______ ____
ROOT
ATOM     14  C   UNL     1      -5.135   2.086  25.442  0.00  0.00    +0.251 A 
ATOM     15  N   UNL     1      -4.552   1.572  25.164  0.00  0.00    -0.190 NA
ATOM     16  C   UNL     1      -4.807   0.800  25.299  0.00  0.00    +0.205 A 
ATOM     17  N   UNL     1      -5.547   0.835  25.661  0.00  0.00    -0.056 NA
ATOM     18  O   UNL     1      -5.749   1.629  25.749  0.00  0.00    -0.336 OA
ENDROOT
BRANCH  16  19
ATOM     19  C   UNL     1      -4.393   0.112  25.106  0.00  0.00    +0.058 A 
ATOM     20  C   UNL     1      -4.377  -0.154  24.325  0.00  0.00    +0.006 A 
ATOM     21  C   UNL     1      -3.963  -0.841  24.132  0.00  0.00    +0.019 A 
ATOM     22  C   UNL     1      -3.567  -1.263  24.720  0.00  0.00    +0.084 A 
ATOM     23  N   UNL     1      -3.584  -0.998  25.501  0.00  0.00    -0.244 NA
ATOM     24  C   UNL     1      -3.997  -0.310  25.694  0.00  0.00    +0.102 A 
BRANCH  22  25
ATOM     25  C   UNL     1      -3.153  -1.951  24.527  0.00  0.00    +0.056 A 
ATOM     26  C   UNL     1      -2.331  -1.935  24.470  0.00  0.00    +0.104 A 
ATOM     27  N   UNL     1      -1.917  -2.623  24.277  0.00  0.00    -0.222 NA
ATOM     28  C   UNL     1      -2.327  -3.326  24.142  0.00  0.00    +0.199 A 
ATOM     29  N   UNL     1      -3.150  -3.342  24.199  0.00  0.00    -0.222 NA
ATOM     30  C   UNL     1      -3.563  -2.654  24.392  0.00  0.00    +0.104 A 
ENDBRANCH  22  25
ENDBRANCH  16  19
BRANCH  14  13
ATOM      9  N   UNL     1      -4.432   3.374  25.498  0.00  0.00    -0.263 NA
ATOM     10  C   UNL     1      -4.657   4.166  25.439  0.00  0.00    +0.073 C 
ATOM     11  C   UNL     1      -5.474   4.190  25.321  0.00  0.00    +0.019 C 
ATOM     12  C   UNL     1      -5.752   3.413  25.308  0.00  0.00    +0.027 C 
ATOM     13  C   UNL     1      -5.108   2.909  25.418  0.00  0.00    +0.138 C 
BRANCH   9   8
ATOM      8  C   UNL     1      -3.664   3.097  25.618  0.00  0.00    +0.099 C 
BRANCH   8   7
ATOM      4  C   UNL     1      -1.729   4.566  25.144  0.00  0.00    +0.080 A 
ATOM      5  C   UNL     1      -2.024   4.069  24.555  0.00  0.00    +0.006 A 
ATOM      6  C   UNL     1      -2.669   3.580  24.712  0.00  0.00    -0.003 A 
ATOM      7  C   UNL     1      -3.019   3.587  25.460  0.00  0.00    -0.006 A 
ATOM     31  C   UNL     1      -2.724   4.084  26.049  0.00  0.00    -0.003 A 
ATOM     32  C   UNL     1      -2.079   4.573  25.890  0.00  0.00    +0.006 A 
BRANCH   4   2
ATOM      1  O   UNL     1      -1.171   5.875  25.019  0.00  0.00    -0.241 OA
ATOM      2  C   UNL     1      -1.084   5.055  24.986  0.00  0.00    +0.388 C 
ATOM      3  O   UNL     1      -0.353   4.726  24.794  0.00  0.00    -0.241 OA
ENDBRANCH   4   2
ENDBRANCH   8   7
ENDBRANCH   9   8
ENDBRANCH  14  13
TORSDOF 6
ENDMDL
MODEL 2
REMARK VINA RESULT:     -10.3      3.254      4.583
REMARK  Name = 
REMARK  6 active torsions:
REMARK  status: ('A' for Active; 'I' for Inactive)
REMARK    1  A    between atoms: C_2  and  C_4
REMARK    2  A    between atoms: C_7  and  C_8
REMARK    3  A    between atoms: C_8  and  N_9
REMARK    4  A    between atoms: C_13  and  C_14
REMARK    5  A    between atoms: C_16  and  C_19
REMARK    6  A    between atoms: C_22  and  C_25
REMARK                            x       y       z     vdW  Elec       q    Type
REMARK                         _______ _______ _______ _____ _____    ______ ____
ROOT
ATOM     14  C   UNL     1      -2.270  -0.046  24.907  0.00  0.00    +0.251 A 
ATOM     15  N   UNL     1      -1.743  -0.024  24.272  0.00  0.00    -0.190 NA
ATOM     16  C   UNL     1      -0.979   0.030  24.577  0.00  0.00    +0.205 A 
ATOM     17  N   UNL     1      -1.033   0.042  25.399  0.00  0.00    -0.056 NA
ATOM     18  O   UNL     1      -1.830  -0.005  25.603  0.00  0.00    -0.336 OA
ENDROOT
BRANCH  16  19
ATOM     19  C   UNL     1      -0.282   0.066  24.136  0.00  0.00    +0.058 A 
ATOM     20  C   UNL     1       0.055   0.798  23.958  0.00  0.00    +0.006 A 
ATOM     21  C   UNL     1       0.752   0.834  23.516  0.00  0.00    +0.019 A 
ATOM     22  C   UNL     1       1.110   0.139  23.254  0.00  0.00    +0.084 A 
ATOM     23  N   UNL     1       0.773  -0.592  23.432  0.00  0.00    -0.244 NA
ATOM     24  C   UNL     1       0.076  -0.629  23.873  0.00  0.00    +0.102 A 
BRANCH  22  25
ATOM     25  C   UNL     1       1.807   0.175  22.813  0.00  0.00    +0.056 A 
ATOM     26  C   UNL     1       1.832  -0.149  22.055  0.00  0.00    +0.104 A 
ATOM     27  N   UNL     1       2.528  -0.113  21.613  0.00  0.00    -0.222 NA
ATOM     28  C   UNL     1       3.199   0.247  21.930  0.00  0.00    +0.199 A 
ATOM     29  N   UNL     1       3.174   0.572  22.688  0.00  0.00    -0.222 NA
ATOM     30  C   UNL     1       2.478   0.536  23.130  0.00  0.00    +0.104 A 
ENDBRANCH  22  25
ENDBRANCH  16  19
BRANCH  14  13
ATOM      9  N   UNL     1      -3.610   0.527  24.719  0.00  0.00    -0.263 NA
ATOM     10  C   UNL     1      -4.378   0.226  24.708  0.00  0.00    +0.073 C 
ATOM     11  C   UNL     1      -4.333  -0.588  24.836  0.00  0.00    +0.019 C 
ATOM     12  C   UNL     1      -3.538  -0.789  24.926  0.00  0.00    +0.027 C 
ATOM     13  C   UNL     1      -3.091  -0.099  24.854  0.00  0.00    +0.138 C 
BRANCH   9   8
ATOM      8  C   UNL     1      -3.398   1.317  24.614  0.00  0.00    +0.099 C 
BRANCH   8   7
ATOM      4  C   UNL     1      -4.968   3.118  25.265  0.00  0.00    +0.080 A 
ATOM      5  C   UNL     1      -5.035   2.760  24.525  0.00  0.00    +0.006 A 
ATOM      6  C   UNL     1      -4.512   2.160  24.307  0.00  0.00    -0.003 A 
ATOM      7  C   UNL     1      -3.921   1.918  24.831  0.00  0.00    -0.006 A 
ATOM     31  C   UNL     1      -3.855   2.276  25.572  0.00  0.00    -0.003 A 
ATOM     32  C   UNL     1      -4.378   2.876  25.788  0.00  0.00    +0.006 A 
BRANCH   4   2
ATOM      1  O   UNL     1      -6.226   3.526  25.803  0.00  0.00    -0.241 OA
ATOM      2  C   UNL     1      -5.491   3.717  25.482  0.00  0.00    +0.388 C 
ATOM      3  O   UNL     1      -5.279   4.508  25.378  0.00  0.00    -0.241 OA
ENDBRANCH   4   2
ENDBRANCH   8   7
ENDBRANCH   9   8
ENDBRANCH  14  13
TORSDOF 6
ENDMDL
MODEL 3
REMARK VINA RESULT:      -9.8      2.048      3.559
REMARK  Name = 
REMARK  6 active torsions:
REMARK  status: ('A' for Active; 'I' for Inactive)
REMARK    1  A    between atoms: C_2  and  C_4
REMARK    2  A    between atoms: C_7  and  C_8
REMARK    3  A    between atoms: C_8  and  N_9
REMARK    4  A    between atoms: C_13  and  C_14
REMARK    5  A    between atoms: C_16  and  C_19
REMARK    6  A    between atoms: C_22  and  C_25
REMARK                            x       y       z     vdW  Elec       q    Type
REMARK                         _______ _______ _______ _____ _____    ______ ____
ROOT
ATOM     14  C   UNL     1      -0.678   3.200  25.269  0.00  0.00    +0.251 A 
ATOM     15  N   UNL     1      -1.036   2.479  25.086  0.00  0.00    -0.190 NA
ATOM     16  C   UNL     1      -0.492   1.878  25.239  0.00  0.00    +0.205 A 
ATOM     17  N   UNL     1       0.202   2.227  25.517  0.00  0.00    -0.056 NA
ATOM     18  O   UNL     1       0.087   3.043  25.535  0.00  0.00    -0.336 OA
ENDROOT
BRANCH  16  19
ATOM     19  C   UNL     1      -0.619   1.070  25.134  0.00  0.00    +0.058 A 
ATOM     20  C   UNL     1      -1.003   0.633  25.719  0.00  0.00    +0.006 A 
ATOM     21  C   UNL     1      -1.130  -0.176  25.613  0.00  0.00    +0.019 A 
ATOM     22  C   UNL     1      -0.875  -0.547  24.922  0.00  0.00    +0.084 A 
ATOM     23  N   UNL     1      -0.492  -0.110  24.336  0.00  0.00    -0.244 NA
ATOM     24  C   UNL     1      -0.364   0.699  24.442  0.00  0.00    +0.102 A 
BRANCH  22  25
ATOM     25  C   UNL     1      -1.002  -1.355  24.816  0.00  0.00    +0.056 A 
ATOM     26  C   UNL     1      -0.485  -1.902  25.154  0.00  0.00    +0.104 A 
ATOM     27  N   UNL     1      -0.613  -2.710  25.048  0.00  0.00    -0.222 NA
ATOM     28  C   UNL     1      -1.257  -2.971  24.604  0.00  0.00    +0.199 A 
ATOM     29  N   UNL     1      -1.775  -2.425  24.267  0.00  0.00    -0.222 NA
ATOM     30  C   UNL     1      -1.647  -1.616  24.372  0.00  0.00    +0.104 A 
ENDBRANCH  22  25
ENDBRANCH  16  19
BRANCH  14  13
ATOM      9  N   UNL     1      -1.747   4.175  25.521  0.00  0.00    -0.263 NA
ATOM     10  C   UNL     1      -1.879   4.963  25.315  0.00  0.00    +0.073 C 
ATOM     11  C   UNL     1      -1.237   5.220  24.865  0.00  0.00    +0.019 C 
ATOM     12  C   UNL     1      -0.709   4.590  24.793  0.00  0.00    +0.027 C 
ATOM     13  C   UNL     1      -1.024   3.944  25.199  0.00  0.00    +0.138 C 
BRANCH   9   8
ATOM      8  C   UNL     1      -2.250   3.701  25.971  0.00  0.00    +0.099 C 
BRANCH   8   7
ATOM      4  C   UNL     1      -4.699   3.823  25.628  0.00  0.00    +0.080 A 
ATOM      5  C   UNL     1      -4.217   3.492  25.046  0.00  0.00    +0.006 A 
ATOM      6  C   UNL     1      -3.401   3.452  25.160  0.00  0.00    -0.003 A 
ATOM      7  C   UNL     1      -3.067   3.742  25.857  0.00  0.00    -0.006 A 
ATOM     31  C   UNL     1      -3.549   4.072  26.439  0.00  0.00    -0.003 A 
ATOM     32  C   UNL     1      -4.366   4.112  26.324  0.00  0.00    +0.006 A 
BRANCH   4   2
ATOM      1  O   UNL     1      -5.906   4.586  25.584  0.00  0.00    -0.241 OA
ATOM      2  C   UNL     1      -5.515   3.863  25.514  0.00  0.00    +0.388 C 
ATOM      3  O   UNL     1      -5.941   3.181  25.330  0.00  0.00    -0.241 OA
ENDBRANCH   4   2
ENDBRANCH   8   7
ENDBRANCH   9   8
ENDBRANCH  14  13
TORSDOF 6
ENDMDL
MODEL 4
REMARK VINA RESULT:      -9.5      2.920      5.421
REMARK  Name = 
REMARK  6 active torsions:
REMARK  status: ('A' for Active; 'I' for Inactive)
REMARK    1  A    between atoms: C_2  and  C_4
REMARK    2  A    between atoms: C_7  and  C_8
REMARK    3  A    between atoms: C_8  and  N_9
REMARK    4  A    between atoms: C_13  and  C_14
REMARK    5  A    between atoms: C_16  and  C_19
REMARK    6  A    between atoms: C_22  and  C_25
REMARK                            x       y       z     vdW  Elec       q    Type
REMARK                         _______ _______ _______ _____ _____    ______ ____
ROOT
ATOM     14  C   UNL     1      -2.058  -0.600  24.580  0.00  0.00    +0.251 A 
ATOM     15  N   UNL     1      -2.329   0.110  24.902  0.00  0.00    -0.190 NA
ATOM     16  C   UNL     1      -3.086   0.252  24.606  0.00  0.00    +0.205 A 
ATOM     17  N   UNL     1      -3.283  -0.369  24.102  0.00  0.00    -0.056 NA
ATOM     18  O   UNL     1      -2.649  -0.895  24.085  0.00  0.00    -0.336 OA
ENDROOT
BRANCH  16  19
ATOM     19  C   UNL     1      -3.561   0.903  24.785  0.00  0.00    +0.058 A 
ATOM     20  C   UNL     1      -4.367   0.797  24.927  0.00  0.00    +0.006 A 
ATOM     21  C   UNL     1      -4.843   1.447  25.105  0.00  0.00    +0.019 A 
ATOM     22  C   UNL     1      -4.513   2.203  25.141  0.00  0.00    +0.084 A 
ATOM     23  N   UNL     1      -3.707   2.308  24.999  0.00  0.00    -0.244 NA
ATOM     24  C   UNL     1      -3.231   1.658  24.820  0.00  0.00    +0.102 A 
BRANCH  22  25
ATOM     25  C   UNL     1      -4.989   2.853  25.319  0.00  0.00    +0.056 A 
ATOM     26  C   UNL     1      -5.720   2.741  25.685  0.00  0.00    +0.104 A 
ATOM     27  N   UNL     1      -6.196   3.391  25.863  0.00  0.00    -0.222 NA
ATOM     28  C   UNL     1      -5.941   4.153  25.676  0.00  0.00    +0.199 A 
ATOM     29  N   UNL     1      -5.210   4.265  25.310  0.00  0.00    -0.222 NA
ATOM     30  C   UNL     1      -4.734   3.615  25.132  0.00  0.00    +0.104 A 
ENDBRANCH  22  25
ENDBRANCH  16  19
BRANCH  14  13
ATOM      9  N   UNL     1      -0.614  -0.754  24.364  0.00  0.00    -0.263 NA
ATOM     10  C   UNL     1      -0.025  -1.243  24.674  0.00  0.00    +0.073 C 
ATOM     11  C   UNL     1      -0.377  -1.742  25.230  0.00  0.00    +0.019 C 
ATOM     12  C   UNL     1      -1.181  -1.562  25.262  0.00  0.00    +0.027 C 
ATOM     13  C   UNL     1      -1.327  -0.951  24.726  0.00  0.00    +0.138 C 
BRANCH   9   8
ATOM      8  C   UNL     1      -0.506  -0.171  23.791  0.00  0.00    +0.099 C 
BRANCH   8   7
ATOM      4  C   UNL     1       1.773   0.372  22.990  0.00  0.00    +0.080 A 
ATOM      5  C   UNL     1       1.353  -0.251  22.649  0.00  0.00    +0.006 A 
ATOM      6  C   UNL     1       0.594  -0.432  22.916  0.00  0.00    -0.003 A 
ATOM      7  C   UNL     1       0.254   0.010  23.524  0.00  0.00    -0.006 A 
ATOM     31  C   UNL     1       0.674   0.634  23.865  0.00  0.00    -0.003 A 
ATOM     32  C   UNL     1       1.433   0.814  23.597  0.00  0.00    +0.006 A 
BRANCH   4   2
ATOM      1  O   UNL     1       2.970   1.144  23.096  0.00  0.00    -0.241 OA
ATOM      2  C   UNL     1       2.532   0.553  22.723  0.00  0.00    +0.388 C 
ATOM      3  O   UNL     1       2.853   0.143  22.083  0.00  0.00    -0.241 OA
ENDBRANCH   4   2
ENDBRANCH   8   7
ENDBRANCH   9   8
ENDBRANCH  14  13
TORSDOF 6
ENDMDL
MODEL 5
REMARK VINA RESULT:      -9.3      3.240      4.721
REMARK  Name = 
REMARK  6 active torsions:
REMARK  status: ('A' for Active; 'I' for Inactive)
REMARK    1  A    between atoms: C_2  and  C_4
REMARK    2  A    between atoms: C_7  and  C_8
REMARK    3  A    between atoms: C_8  and  N_9
REMARK    4  A    between atoms: C_13  and  C_14
REMARK    5  A    between atoms: C_16  and  C_19
REMARK    6  A    between atoms: C_22  and  C_25
REMARK                            x       y       z     vdW  Elec       q    Type
REMARK                         _______ _______ _______ _____ _____    ______ ____
ROOT
ATOM     14  C   UNL     1      -1.467   2.645  25.454  0.00  0.00    +0.251 A 
ATOM     15  N   UNL     1      -1.029   2.467  24.778  0.00  0.00    -0.190 NA
ATOM     16  C   UNL     1      -0.508   1.855  24.965  0.00  0.00    +0.205 A 
ATOM     17  N   UNL     1      -0.624   1.656  25.757  0.00  0.00    -0.056 NA
ATOM     18  O   UNL     1      -1.216   2.143  26.059  0.00  0.00    -0.336 OA
ENDROOT
BRANCH  16  19
ATOM     19  C   UNL     1       0.033   1.504  24.451  0.00  0.00    +0.058 A 
ATOM     20  C   UNL     1      -0.134   0.770  24.115  0.00  0.00    +0.006 A 
ATOM     21  C   UNL     1       0.408   0.419  23.600  0.00  0.00    +0.019 A 
ATOM     22  C   UNL     1       1.116   0.803  23.422  0.00  0.00    +0.084 A 
ATOM     23  N   UNL     1       1.283   1.538  23.758  0.00  0.00    -0.244 NA
ATOM     24  C   UNL     1       0.741   1.889  24.272  0.00  0.00    +0.102 A 
BRANCH  22  25
ATOM     25  C   UNL     1       1.657   0.452  22.907  0.00  0.00    +0.056 A 
ATOM     26  C   UNL     1       1.390  -0.032  22.295  0.00  0.00    +0.104 A 
ATOM     27  N   UNL     1       1.932  -0.382  21.781  0.00  0.00    -0.222 NA
ATOM     28  C   UNL     1       2.740  -0.249  21.879  0.00  0.00    +0.199 A 
ATOM     29  N   UNL     1       3.007   0.235  22.491  0.00  0.00    -0.222 NA
ATOM     30  C   UNL     1       2.466   0.586  23.005  0.00  0.00    +0.104 A 
ENDBRANCH  22  25
ENDBRANCH  16  19
BRANCH  14  13
ATOM      9  N   UNL     1      -2.821   3.166  25.226  0.00  0.00    -0.263 NA
ATOM     10  C   UNL     1      -3.216   3.868  25.406  0.00  0.00    +0.073 C 
ATOM     11  C   UNL     1      -2.688   4.360  25.808  0.00  0.00    +0.019 C 
ATOM     12  C   UNL     1      -1.969   3.962  25.875  0.00  0.00    +0.027 C 
ATOM     13  C   UNL     1      -2.052   3.224  25.514  0.00  0.00    +0.138 C 
BRANCH   9   8
ATOM      8  C   UNL     1      -3.142   2.520  24.825  0.00  0.00    +0.099 C 
BRANCH   8   7
ATOM      4  C   UNL     1      -5.546   1.981  25.068  0.00  0.00    +0.080 A 
ATOM      5  C   UNL     1      -4.977   1.492  25.412  0.00  0.00    +0.006 A 
ATOM      6  C   UNL     1      -4.176   1.671  25.331  0.00  0.00    -0.003 A 
ATOM      7  C   UNL     1      -3.944   2.340  24.906  0.00  0.00    -0.006 A 
ATOM     31  C   UNL     1      -4.513   2.829  24.563  0.00  0.00    -0.003 A 
ATOM     32  C   UNL     1      -5.314   2.648  24.644  0.00  0.00    +0.006 A 
BRANCH   4   2
ATOM      1  O   UNL     1      -6.800   1.632  24.482  0.00  0.00    -0.241 OA
ATOM      2  C   UNL     1      -6.346   1.801  25.149  0.00  0.00    +0.388 C 
ATOM      3  O   UNL     1      -6.694   1.790  25.898  0.00  0.00    -0.241 OA
ENDBRANCH   4   2
ENDBRANCH   8   7
ENDBRANCH   9   8
ENDBRANCH  14  13
TORSDOF 6
ENDMDL
MODEL 6
REMARK VINA RESULT:      -9.1      3.627      5.497
REMARK  Name = 
REMARK  6 active torsions:
REMARK  status: ('A' for Active; 'I' for Inactive)
REMARK    1  A    between atoms: C_2  and  C_4
REMARK    2  A    between atoms: C_7  and  C_8
REMARK    3  A    between atoms: C_8  and  N_9
REMARK    4  A    between atoms: C_13  and  C_14
REMARK    5  A    between atoms: C_16  and  C_19
REMARK    6  A    between atoms: C_22  and  C_25
REMARK                            x       y       z     vdW  Elec       q    Type
REMARK                         _______ _______ _______ _____ _____    ______ ____
ROOT
ATOM     14  C   UNL     1      -2.172   1.657  24.757  0.00  0.00    +0.251 A 
ATOM     15  N   UNL     1      -1.608   1.367  24.228  0.00  0.00    -0.190 NA
ATOM     16  C   UNL     1      -0.861   1.534  24.535  0.00  0.00    +0.205 A 
ATOM     17  N   UNL     1      -0.962   1.926  25.253  0.00  0.00    -0.056 NA
ATOM     18  O   UNL     1      -1.771   2.002  25.390  0.00  0.00    -0.336 OA
ENDROOT
BRANCH  16  19
ATOM     19  C   UNL     1      -0.139   1.342  24.184  0.00  0.00    +0.058 A 
ATOM     20  C   UNL     1      -0.060   0.636  23.765  0.00  0.00    +0.006 A 
ATOM     21  C   UNL     1       0.663   0.444  23.414  0.00  0.00    +0.019 A 
ATOM     22  C   UNL     1       1.305   0.957  23.484  0.00  0.00    +0.084 A 
ATOM     23  N   UNL     1       1.225   1.663  23.903  0.00  0.00    -0.244 NA
ATOM     24  C   UNL     1       0.503   1.855  24.254  0.00  0.00    +0.102 A 
BRANCH  22  25
ATOM     25  C   UNL     1       2.027   0.765  23.134  0.00  0.00    +0.056 A 
ATOM     26  C   UNL     1       2.084   0.102  22.645  0.00  0.00    +0.104 A 
ATOM     27  N   UNL     1       2.806  -0.090  22.295  0.00  0.00    -0.222 NA
ATOM     28  C   UNL     1       3.470   0.380  22.433  0.00  0.00    +0.199 A 
ATOM     29  N   UNL     1       3.413   1.042  22.922  0.00  0.00    -0.222 NA
ATOM     30  C   UNL     1       2.690   1.234  23.272  0.00  0.00    +0.104 A 
ENDBRANCH  22  25
ENDBRANCH  16  19
BRANCH  14  13
ATOM      9  N   UNL     1      -3.467   0.981  24.903  0.00  0.00    -0.263 NA
ATOM     10  C   UNL     1      -4.248   1.164  24.709  0.00  0.00    +0.073 C 
ATOM     11  C   UNL     1      -4.252   1.908  24.351  0.00  0.00    +0.019 C 
ATOM     12  C   UNL     1      -3.475   2.183  24.326  0.00  0.00    +0.027 C 
ATOM     13  C   UNL     1      -2.990   1.610  24.667  0.00  0.00    +0.138 C 
BRANCH   9   8
ATOM      8  C   UNL     1      -3.210   0.288  25.270  0.00  0.00    +0.099 C 
BRANCH   8   7
ATOM      4  C   UNL     1      -3.905  -1.916  24.383  0.00  0.00    +0.080 A 
ATOM      5  C   UNL     1      -3.601  -1.856  25.148  0.00  0.00    +0.006 A 
ATOM      6  C   UNL     1      -3.370  -1.122  25.444  0.00  0.00    -0.003 A 
ATOM      7  C   UNL     1      -3.442  -0.447  24.974  0.00  0.00    -0.006 A 
ATOM     31  C   UNL     1      -3.745  -0.507  24.209  0.00  0.00    -0.003 A 
ATOM     32  C   UNL     1      -3.976  -1.242  23.914  0.00  0.00    +0.006 A 
BRANCH   4   2
ATOM      1  O   UNL     1      -4.756  -2.700  23.546  0.00  0.00    -0.241 OA
ATOM      2  C   UNL     1      -4.136  -2.650  24.088  0.00  0.00    +0.388 C 
ATOM      3  O   UNL     1      -3.748  -3.336  24.333  0.00  0.00    -0.241 OA
ENDBRANCH   4   2
ENDBRANCH   8   7
ENDBRANCH   9   8
ENDBRANCH  14  13
TORSDOF 6
ENDMDL
