MODEL 1
REMARK VINA RESULT:     -15.8      0.000      0.000
REMARK  Name = 
REMARK  2 active torsions:
REMARK  status: ('A' for Active; 'I' for Inactive)
REMARK    1  A    between atoms: N_3  and  C_4
REMARK    2  A    between atoms: C_17  and  C_24
REMARK                            x       y       z     vdW  Elec       q    Type
REMARK                         _______ _______ _______ _____ _____    ______ ____
ROOT
ATOM      1  O   UNL     1      -2.847   2.298  24.951  0.00  0.00    -0.251 OA
ATOM      2  C   UNL     1      -3.532   2.733  25.100  0.00  0.00    +0.323 C 
ATOM      3  N   UNL     1      -3.484   3.547  25.226  0.00  0.00    -0.190 NA
ATOM     10  N   UNL     1      -4.265   2.354  25.123  0.00  0.00    -0.262 N 
ATOM     11  C   UNL     1      -5.091   2.260  25.203  0.00  0.00    +0.097 C 
ATOM     12  C   UNL     1      -5.162   1.286  25.054  0.00  0.00    +0.043 C 
ATOM     13  C   UNL     1      -5.387   0.510  24.955  0.00  0.00    +0.011 C 
ATOM     14  C   UNL     1      -4.793   0.883  24.947  0.00  0.00    +0.058 C 
ATOM     15  C   UNL     1      -4.740   1.825  25.093  0.00  0.00    +0.101 C 
ATOM     16  C   UNL     1      -3.886   0.791  24.827  0.00  0.00    +0.041 A 
ATOM     17  C   UNL     1      -3.315   0.217  24.669  0.00  0.00    +0.012 A 
ATOM     18  C   UNL     1      -2.521   0.431  24.612  0.00  0.00    +0.006 A 
ATOM     19  C   UNL     1      -2.296   1.219  24.713  0.00  0.00    +0.061 A 
ATOM     20  C   UNL     1      -2.867   1.793  24.872  0.00  0.00    +0.261 A 
ATOM     21  O   UNL     1      -2.411   2.477  24.929  0.00  0.00    -0.267 OA
ATOM     22  N   UNL     1      -3.662   1.579  24.929  0.00  0.00    -0.299 N 
ATOM     23  C   UNL     1      -4.214   1.201  24.931  0.00  0.00    +0.110 C 
ENDROOT
BRANCH   3   4
ATOM      4  C   UNL     1      -2.752   3.926  25.203  0.00  0.00    +0.097 C 
ATOM      5  C   UNL     1      -2.292   3.977  25.886  0.00  0.00    +0.022 C 
ATOM      6  C   UNL     1      -1.559   4.356  25.862  0.00  0.00    +0.002 C 
ATOM      7  C   UNL     1      -1.286   4.684  25.155  0.00  0.00    +0.000 C 
ATOM      8  C   UNL     1      -1.746   4.632  24.473  0.00  0.00    +0.002 C 
ATOM      9  C   UNL     1      -2.479   4.253  24.496  0.00  0.00    +0.022 C 
ENDBRANCH   3   4
BRANCH  17  24
ATOM     24  C   UNL     1      -3.540  -0.570  24.568  0.00  0.00    +0.001 A 
ATOM     25  C   UNL     1      -3.496  -1.096  25.201  0.00  0.00    +0.000 A 
ATOM     26  C   UNL     1      -3.720  -1.884  25.100  0.00  0.00    +0.000 A 
ATOM     27  C   UNL     1      -3.988  -2.145  24.365  0.00  0.00    +0.000 A 
ATOM     28  C   UNL     1      -4.032  -1.619  23.731  0.00  0.00    +0.000 A 
ATOM     29  C   UNL     1      -3.807  -0.832  23.833  0.00  0.00    +0.000 A 
ENDBRANCH  17  24
TORSDOF 2
ENDMDL
MODEL 2
REMARK VINA RESULT:     -15.8      0.955      4.209
REMARK  Name = 
REMARK  2 active torsions:
REMARK  status: ('A' for Active; 'I' for Inactive)
REMARK    1  A    between atoms: N_3  and  C_4
REMARK    2  A    between atoms: C_17  and  C_24
REMARK                            x       y       z     vdW  Elec       q    Type
REMARK                         _______ _______ _______ _____ _____    ______ ____
ROOT
ATOM      1  O   UNL     1      -3.092   0.399  24.824  0.00  0.00    -0.251 OA
ATOM      2  C   UNL     1      -3.909   0.475  24.730  0.00  0.00    +0.323 C 
ATOM      3  N   UNL     1      -4.381  -0.198  24.664  0.00  0.00    -0.190 NA
ATOM     10  N   UNL     1      -4.253   1.224  24.701  0.00  0.00    -0.262 N 
ATOM     11  C   UNL     1      -4.849   1.806  24.640  0.00  0.00    +0.097 C 
ATOM     12  C   UNL     1      -4.295   2.621  24.717  0.00  0.00    +0.043 C 
ATOM     13  C   UNL     1      -3.986   3.373  24.765  0.00  0.00    +0.011 C 
ATOM     14  C   UNL     1      -3.749   2.713  24.782  0.00  0.00    +0.058 C 
ATOM     15  C   UNL     1      -4.298   1.935  24.706  0.00  0.00    +0.101 C 
ATOM     16  C   UNL     1      -2.972   2.228  24.866  0.00  0.00    +0.041 A 
ATOM     17  C   UNL     1      -2.160   2.332  24.962  0.00  0.00    +0.012 A 
ATOM     18  C   UNL     1      -1.663   1.675  25.011  0.00  0.00    +0.006 A 
ATOM     19  C   UNL     1      -1.979   0.914  24.962  0.00  0.00    +0.061 A 
ATOM     20  C   UNL     1      -2.792   0.811  24.865  0.00  0.00    +0.261 A 
ATOM     21  O   UNL     1      -2.859  -0.011  24.845  0.00  0.00    -0.267 OA
ATOM     22  N   UNL     1      -3.288   1.467  24.817  0.00  0.00    -0.299 N 
ATOM     23  C   UNL     1      -3.489   2.106  24.804  0.00  0.00    +0.110 C 
ENDROOT
BRANCH   3   4
ATOM      4  C   UNL     1      -4.037  -0.948  24.693  0.00  0.00    +0.097 C 
ATOM      5  C   UNL     1      -3.854  -1.290  25.421  0.00  0.00    +0.022 C 
ATOM      6  C   UNL     1      -3.510  -2.040  25.449  0.00  0.00    +0.002 C 
ATOM      7  C   UNL     1      -3.350  -2.447  24.750  0.00  0.00    +0.000 C 
ATOM      8  C   UNL     1      -3.533  -2.104  24.022  0.00  0.00    +0.002 C 
ATOM      9  C   UNL     1      -3.876  -1.355  23.993  0.00  0.00    +0.022 C 
ENDBRANCH   3   4
BRANCH  17  24
ATOM     24  C   UNL     1      -1.844   3.093  25.011  0.00  0.00    +0.001 A 
ATOM     25  C   UNL     1      -1.525   3.450  24.340  0.00  0.00    +0.000 A 
ATOM     26  C   UNL     1      -1.209   4.211  24.388  0.00  0.00    +0.000 A 
ATOM     27  C   UNL     1      -1.212   4.614  25.108  0.00  0.00    +0.000 A 
ATOM     28  C   UNL     1      -1.531   4.257  25.779  0.00  0.00    +0.000 A 
ATOM     29  C   UNL     1      -1.847   3.496  25.731  0.00  0.00    +0.000 A 
ENDBRANCH  17  24
TORSDOF 2
ENDMDL
MODEL 3
REMARK VINA RESULT:     -15.7      1.182      2.263
REMARK  Name = 
REMARK  2 active torsions:
REMARK  status: ('A' for Active; 'I' for Inactive)
REMARK    1  A    between atoms: N_3  and  C_4
REMARK    2  A    between atoms: C_17  and  C_24
REMARK                            x       y       z     vdW  Elec       q    Type
REMARK                         _______ _______ _______ _____ _____    ______ ____
ROOT
ATOM      1  O   UNL     1      -3.470   1.498  24.872  0.00  0.00    -0.251 OA
ATOM      2  C   UNL     1      -2.685   1.748  24.811  0.00  0.00    +0.323 C 
ATOM      3  N   UNL     1      -2.504   2.552  24.842  0.00  0.00    -0.190 NA
ATOM     10  N   UNL     1      -2.082   1.192  24.719  0.00  0.00    -0.262 N 
ATOM     11  C   UNL     1      -1.308   0.891  24.625  0.00  0.00    +0.097 C 
ATOM     12  C   UNL     1      -1.511  -0.076  24.587  0.00  0.00    +0.043 C 
ATOM     13  C   UNL     1      -1.510  -0.889  24.537  0.00  0.00    +0.011 C 
ATOM     14  C   UNL     1      -1.981  -0.374  24.614  0.00  0.00    +0.058 C 
ATOM     15  C   UNL     1      -1.769   0.556  24.650  0.00  0.00    +0.101 C 
ATOM     16  C   UNL     1      -2.884  -0.232  24.711  0.00  0.00    +0.041 A 
ATOM     17  C   UNL     1      -3.596  -0.646  24.755  0.00  0.00    +0.012 A 
ATOM     18  C   UNL     1      -4.306  -0.236  24.849  0.00  0.00    +0.006 A 
ATOM     19  C   UNL     1      -4.303   0.588  24.899  0.00  0.00    +0.061 A 
ATOM     20  C   UNL     1      -3.591   1.001  24.854  0.00  0.00    +0.261 A 
ATOM     21  O   UNL     1      -3.842   1.784  24.926  0.00  0.00    -0.267 OA
ATOM     22  N   UNL     1      -2.881   0.591  24.760  0.00  0.00    -0.299 N 
ATOM     23  C   UNL     1      -2.453   0.083  24.688  0.00  0.00    +0.110 C 
ENDROOT
BRANCH   3   4
ATOM      4  C   UNL     1      -3.108   3.107  24.935  0.00  0.00    +0.097 C 
ATOM      5  C   UNL     1      -3.494   3.411  24.271  0.00  0.00    +0.022 C 
ATOM      6  C   UNL     1      -4.097   3.966  24.364  0.00  0.00    +0.002 C 
ATOM      7  C   UNL     1      -4.315   4.217  25.120  0.00  0.00    +0.000 C 
ATOM      8  C   UNL     1      -3.929   3.913  25.782  0.00  0.00    +0.002 C 
ATOM      9  C   UNL     1      -3.326   3.358  25.690  0.00  0.00    +0.022 C 
ENDBRANCH   3   4
BRANCH  17  24
ATOM     24  C   UNL     1      -3.599  -1.469  24.706  0.00  0.00    +0.001 A 
ATOM     25  C   UNL     1      -3.764  -1.839  23.987  0.00  0.00    +0.000 A 
ATOM     26  C   UNL     1      -3.766  -2.663  23.937  0.00  0.00    +0.000 A 
ATOM     27  C   UNL     1      -3.604  -3.117  24.606  0.00  0.00    +0.000 A 
ATOM     28  C   UNL     1      -3.439  -2.747  25.325  0.00  0.00    +0.000 A 
ATOM     29  C   UNL     1      -3.437  -1.924  25.375  0.00  0.00    +0.000 A 
ENDBRANCH  17  24
TORSDOF 2
ENDMDL
