REMARK  Name = 
REMARK  1 active torsions:
REMARK  status: ('A' for Active; 'I' for Inactive)
REMARK    1  A    between atoms: C_24  and  N_27
REMARK                            x       y       z     vdW  Elec       q    Type
REMARK                         _______ _______ _______ _____ _____    ______ ____
ROOT
ATOM      1  O   UNL     1       4.283  -1.785   0.000  0.00  0.00    -0.215 OA
ATOM      2  C   UNL     1       4.131  -0.974   0.000  0.00  0.00    +0.235 C 
ATOM      3  C   UNL     1       4.843  -0.557   0.000  0.00  0.00    +0.242 C 
ATOM      4  O   UNL     1       5.460  -1.105   0.000  0.00  0.00    -0.473 OA
ATOM      5  C   UNL     1       5.129  -1.861   0.000  0.00  0.00    +0.136 A 
ATOM      6  C   UNL     1       5.354  -2.655   0.000  0.00  0.00    +0.030 A 
ATOM      7  C   UNL     1       4.827  -3.346   0.000  0.00  0.00    +0.119 C 
ATOM      8  N   UNL     1       4.019  -3.179   0.000  0.00  0.00    -0.204 NA
ATOM      9  C   UNL     1       3.471  -3.795   0.000  0.00  0.00    +0.174 C 
ATOM     10  C   UNL     1       2.663  -3.629   0.000  0.00  0.00    +0.243 C 
ATOM     11  O   UNL     1       2.114  -4.245   0.000  0.00  0.00    -0.273 OA
ATOM     12  N   UNL     1       2.403  -2.846   0.000  0.00  0.00    -0.278 N 
ATOM     13  C   UNL     1       1.595  -2.679   0.000  0.00  0.00    +0.093 C 
ATOM     14  C   UNL     1       1.335  -1.896   0.000  0.00  0.00    +0.022 C 
ATOM     15  C   UNL     1       1.884  -1.279   0.000  0.00  0.00    +0.018 C 
ATOM     16  C   UNL     1       1.624  -0.496   0.000  0.00  0.00    +0.110 C 
ATOM     17  C   UNL     1       2.172   0.120   0.000  0.00  0.00    +0.317 C 
ATOM     18  O   UNL     1       1.913   0.903   0.000  0.00  0.00    -0.250 OA
ATOM     19  O   UNL     1       2.981  -0.047   0.000  0.00  0.00    -0.449 OA
ATOM     20  C   UNL     1       3.240  -0.830   0.000  0.00  0.00    +0.204 C 
ATOM     21  C   UNL     1       2.692  -1.446   0.000  0.00  0.00    +0.063 C 
ATOM     22  C   UNL     1       2.951  -2.229   0.000  0.00  0.00    +0.097 C 
ATOM     23  C   UNL     1       6.154  -2.856   0.000  0.00  0.00    +0.015 A 
ATOM     24  C   UNL     1       6.729  -2.264   0.000  0.00  0.00    +0.048 A 
ATOM     25  C   UNL     1       6.503  -1.470   0.000  0.00  0.00    +0.018 A 
ATOM     26  C   UNL     1       5.703  -1.269   0.000  0.00  0.00    +0.038 A 
ENDROOT
BRANCH  24  27
ATOM     27  N   UNL     1       7.529  -2.466   0.000  0.00  0.00    -0.303 N 
ATOM     28  C   UNL     1       8.103  -1.874   0.000  0.00  0.00    +0.123 C 
ATOM     29  C   UNL     1       8.903  -2.075   0.000  0.00  0.00    +0.164 C 
ATOM     30  O   UNL     1       9.129  -2.869   0.000  0.00  0.00    -0.350 OA
ATOM     31  C   UNL     1       8.554  -3.461   0.000  0.00  0.00    +0.164 C 
ATOM     32  C   UNL     1       7.754  -3.259   0.000  0.00  0.00    +0.123 C 
ENDBRANCH  24  27
TORSDOF 1
