REMARK  Name = 
REMARK  7 active torsions:
REMARK  status: ('A' for Active; 'I' for Inactive)
REMARK    1  A    between atoms: S_2  and  C_3
REMARK    2  A    between atoms: C_3  and  C_4
REMARK    3  A    between atoms: C_9  and  N_10
REMARK    4  A    between atoms: N_13  and  C_14
REMARK    5  A    between atoms: C_17  and  C_18
REMARK    6  A    between atoms: N_20  and  C_22
REMARK    7  A    between atoms: C_22  and  C_23
REMARK                            x       y       z     vdW  Elec       q    Type
REMARK                         _______ _______ _______ _____ _____    ______ ____
ROOT
ATOM      4  C   UNL     1       0.153  -0.016   0.000  0.00  0.00    +0.237 C 
ATOM      5  O   UNL     1      -0.632  -0.271   0.000  0.00  0.00    -0.274 OA
ATOM      6  N   UNL     1       0.324   0.791   0.000  0.00  0.00    -0.271 N 
ATOM      7  C   UNL     1      -0.228   1.405   0.000  0.00  0.00    +0.096 C 
ATOM      8  C   UNL     1       0.185   2.119   0.000  0.00  0.00    +0.045 C 
ATOM      9  C   UNL     1       0.992   1.948   0.000  0.00  0.00    +0.126 C 
ATOM     17  C   UNL     1       1.078   1.127   0.000  0.00  0.00    +0.172 C 
ENDROOT
BRANCH   9  10
ATOM     10  N   UNL     1       1.605   2.499   0.000  0.00  0.00    -0.187 NA
ATOM     11  C   UNL     1       1.433   3.307   0.000  0.00  0.00    +0.339 C 
ATOM     12  O   UNL     1       2.046   3.858   0.000  0.00  0.00    -0.249 OA
ATOM     13  N   UNL     1       0.649   3.561   0.000  0.00  0.00    -0.189 NA
BRANCH  13  14
ATOM     14  C   UNL     1       0.477   4.368   0.000  0.00  0.00    +0.097 C 
ATOM     15  C   UNL     1      -0.307   4.623   0.000  0.00  0.00    +0.023 C 
ATOM     16  C   UNL     1       1.090   4.920   0.000  0.00  0.00    +0.023 C 
ENDBRANCH  13  14
ENDBRANCH   9  10
BRANCH  17  18
ATOM     18  C   UNL     1       1.793   0.715   0.000  0.00  0.00    +0.246 C 
ATOM     19  O   UNL     1       1.793  -0.111   0.000  0.00  0.00    -0.273 OA
ATOM     20  N   UNL     1       2.507   1.127   0.000  0.00  0.00    -0.268 N 
ATOM     21  C   UNL     1       2.507   1.952   0.000  0.00  0.00    +0.115 C 
BRANCH  20  22
ATOM     22  C   UNL     1       3.221   0.715   0.000  0.00  0.00    +0.183 C 
BRANCH  22  23
ATOM     23  C   UNL     1       3.936   1.127   0.000  0.00  0.00    +0.281 C 
ATOM     24  N   UNL     1       3.936   1.952   0.000  0.00  0.00    -0.086 NA
ATOM     25  O   UNL     1       4.651   0.715   0.000  0.00  0.00    -0.270 OA
ENDBRANCH  22  23
ENDBRANCH  20  22
ENDBRANCH  17  18
BRANCH   4   3
ATOM      3  C   UNL     1       0.766  -0.568   0.000  0.00  0.00    +0.143 C 
BRANCH   3   2
ATOM      1  C   UNL     1      -0.190  -1.629   0.000  0.00  0.00    +0.070 C 
ATOM      2  S   UNL     1       0.595  -1.375   0.000  0.00  0.00    -0.130 S 
ENDBRANCH   3   2
ENDBRANCH   4   3
TORSDOF 7
