MODEL 1
REMARK VINA RESULT:     -10.8      0.000      0.000
REMARK  Name = 
REMARK  5 active torsions:
REMARK  status: ('A' for Active; 'I' for Inactive)
REMARK    1  A    between atoms: C_2  and  C_5
REMARK    2  A    between atoms: C_7  and  C_8
REMARK    3  A    between atoms: C_8  and  C_9
REMARK    4  A    between atoms: C_11  and  N_12
REMARK    5  A    between atoms: N_12  and  S_13
REMARK                            x       y       z     vdW  Elec       q    Type
REMARK                         _______ _______ _______ _____ _____    ______ ____
ROOT
ATOM      9  C   UNL     1      -4.577   1.922  24.963  0.00  0.00    +0.009 C 
ATOM     10  C   UNL     1      -3.821   2.252  24.932  0.00  0.00    +0.020 C 
ATOM     11  C   UNL     1      -4.120   2.961  25.234  0.00  0.00    +0.097 C 
ATOM     17  C   UNL     1      -4.875   2.629  25.264  0.00  0.00    +0.017 C 
ATOM     18  C   UNL     1      -5.341   3.240  25.563  0.00  0.00    +0.001 C 
ATOM     19  C   UNL     1      -5.678   2.472  25.363  0.00  0.00    +0.001 C 
ENDROOT
BRANCH   9   8
ATOM      8  C   UNL     1      -4.900   1.187  24.771  0.00  0.00    +0.049 C 
BRANCH   8   7
ATOM      5  C   UNL     1      -3.830  -0.652  24.595  0.00  0.00    +0.153 A 
ATOM      6  C   UNL     1      -4.418  -0.191  24.945  0.00  0.00    +0.054 A 
ATOM      7  C   UNL     1      -4.404   0.553  24.589  0.00  0.00    +0.100 A 
ATOM     20  N   UNL     1      -3.808   0.552  24.019  0.00  0.00    -0.082 NA
ATOM     21  O   UNL     1      -3.453  -0.192  24.022  0.00  0.00    -0.358 OA
BRANCH   5   2
ATOM      1  C   UNL     1      -3.471  -2.218  24.970  0.00  0.00    +0.008 C 
ATOM      2  C   UNL     1      -3.650  -1.434  24.783  0.00  0.00    +0.054 C 
ATOM      3  C   UNL     1      -3.265  -1.182  25.467  0.00  0.00    +0.008 C 
ATOM      4  C   UNL     1      -4.036  -1.687  24.098  0.00  0.00    +0.008 C 
ENDBRANCH   5   2
ENDBRANCH   8   7
ENDBRANCH   9   8
BRANCH  11  12
ATOM     12  N   UNL     1      -3.797   3.695  25.425  0.00  0.00    -0.083 NA
BRANCH  12  13
ATOM     13  S   UNL     1      -2.989   3.830  25.323  0.00  0.00    +0.059 S 
ATOM     14  C   UNL     1      -2.182   3.964  25.221  0.00  0.00    +0.197 C 
ATOM     15  O   UNL     1      -2.854   3.608  26.106  0.00  0.00    -0.156 OA
ATOM     16  O   UNL     1      -3.125   4.052  24.540  0.00  0.00    -0.156 OA
ENDBRANCH  12  13
ENDBRANCH  11  12
TORSDOF 5
ENDMDL
MODEL 2
REMARK VINA RESULT:     -10.5      1.422      2.016
REMARK  Name = 
REMARK  5 active torsions:
REMARK  status: ('A' for Active; 'I' for Inactive)
REMARK    1  A    between atoms: C_2  and  C_5
REMARK    2  A    between atoms: C_7  and  C_8
REMARK    3  A    between atoms: C_8  and  C_9
REMARK    4  A    between atoms: C_11  and  N_12
REMARK    5  A    between atoms: N_12  and  S_13
REMARK                            x       y       z     vdW  Elec       q    Type
REMARK                         _______ _______ _______ _____ _____    ______ ____
ROOT
ATOM      9  C   UNL     1      -3.652   1.305  24.332  0.00  0.00    +0.009 C 
ATOM     10  C   UNL     1      -4.262   1.411  24.876  0.00  0.00    +0.020 C 
ATOM     11  C   UNL     1      -4.373   2.182  24.600  0.00  0.00    +0.097 C 
ATOM     17  C   UNL     1      -3.763   2.073  24.056  0.00  0.00    +0.017 C 
ATOM     18  C   UNL     1      -3.728   2.796  23.660  0.00  0.00    +0.001 C 
ATOM     19  C   UNL     1      -3.195   2.148  23.462  0.00  0.00    +0.001 C 
ENDROOT
BRANCH   9   8
ATOM      8  C   UNL     1      -3.142   0.684  24.142  0.00  0.00    +0.049 C 
BRANCH   8   7
ATOM      5  C   UNL     1      -3.520  -1.369  24.585  0.00  0.00    +0.153 A 
ATOM      6  C   UNL     1      -3.445  -0.750  24.044  0.00  0.00    +0.054 A 
ATOM      7  C   UNL     1      -3.265  -0.065  24.465  0.00  0.00    +0.100 A 
ATOM     20  N   UNL     1      -3.228  -0.259  25.266  0.00  0.00    -0.082 NA
ATOM     21  O   UNL     1      -3.386  -1.065  25.341  0.00  0.00    -0.358 OA
BRANCH   5   2
ATOM      1  C   UNL     1      -3.875  -2.939  24.223  0.00  0.00    +0.008 C 
ATOM      2  C   UNL     1      -3.698  -2.154  24.404  0.00  0.00    +0.054 C 
ATOM      3  C   UNL     1      -4.272  -1.901  23.869  0.00  0.00    +0.008 C 
ATOM      4  C   UNL     1      -3.123  -2.407  24.939  0.00  0.00    +0.008 C 
ENDBRANCH   5   2
ENDBRANCH   8   7
ENDBRANCH   9   8
BRANCH  11  12
ATOM     12  N   UNL     1      -4.883   2.802  24.789  0.00  0.00    -0.083 NA
BRANCH  12  13
ATOM     13  S   UNL     1      -5.403   2.728  25.426  0.00  0.00    +0.059 S 
ATOM     14  C   UNL     1      -5.922   2.654  26.063  0.00  0.00    +0.197 C 
ATOM     15  O   UNL     1      -4.855   3.103  25.916  0.00  0.00    -0.156 OA
ATOM     16  O   UNL     1      -5.950   2.353  24.936  0.00  0.00    -0.156 OA
ENDBRANCH  12  13
ENDBRANCH  11  12
TORSDOF 5
ENDMDL
MODEL 3
REMARK VINA RESULT:     -10.5      1.887      4.224
REMARK  Name = 
REMARK  5 active torsions:
REMARK  status: ('A' for Active; 'I' for Inactive)
REMARK    1  A    between atoms: C_2  and  C_5
REMARK    2  A    between atoms: C_7  and  C_8
REMARK    3  A    between atoms: C_8  and  C_9
REMARK    4  A    between atoms: C_11  and  N_12
REMARK    5  A    between atoms: N_12  and  S_13
REMARK                            x       y       z     vdW  Elec       q    Type
REMARK                         _______ _______ _______ _____ _____    ______ ____
ROOT
ATOM      9  C   UNL     1      -3.554  -0.871  24.502  0.00  0.00    +0.009 C 
ATOM     10  C   UNL     1      -2.781  -0.643  24.683  0.00  0.00    +0.020 C 
ATOM     11  C   UNL     1      -2.552  -1.436  24.699  0.00  0.00    +0.097 C 
ATOM     17  C   UNL     1      -3.325  -1.663  24.518  0.00  0.00    +0.017 C 
ATOM     18  C   UNL     1      -3.282  -2.486  24.493  0.00  0.00    +0.001 C 
ATOM     19  C   UNL     1      -4.022  -2.068  24.346  0.00  0.00    +0.001 C 
ENDROOT
BRANCH   9   8
ATOM      8  C   UNL     1      -4.262  -0.471  24.362  0.00  0.00    +0.049 C 
BRANCH   8   7
ATOM      5  C   UNL     1      -4.593   1.603  24.741  0.00  0.00    +0.153 A 
ATOM      6  C   UNL     1      -4.743   0.808  24.902  0.00  0.00    +0.054 A 
ATOM      7  C   UNL     1      -4.283   0.353  24.391  0.00  0.00    +0.100 A 
ATOM     20  N   UNL     1      -3.847   0.866  23.914  0.00  0.00    -0.082 NA
ATOM     21  O   UNL     1      -4.039   1.639  24.130  0.00  0.00    -0.358 OA
BRANCH   5   2
ATOM      1  C   UNL     1      -5.276   2.896  25.505  0.00  0.00    +0.008 C 
ATOM      2  C   UNL     1      -4.935   2.249  25.123  0.00  0.00    +0.054 C 
ATOM      3  C   UNL     1      -5.674   1.889  25.071  0.00  0.00    +0.008 C 
ATOM      4  C   UNL     1      -4.194   2.611  25.174  0.00  0.00    +0.008 C 
ENDBRANCH   5   2
ENDBRANCH   8   7
ENDBRANCH   9   8
BRANCH  11  12
ATOM     12  N   UNL     1      -1.844  -1.836  24.839  0.00  0.00    -0.083 NA
BRANCH  12  13
ATOM     13  S   UNL     1      -1.139  -1.413  24.911  0.00  0.00    +0.059 S 
ATOM     14  C   UNL     1      -0.435  -0.990  24.984  0.00  0.00    +0.197 C 
ATOM     15  O   UNL     1      -1.282  -1.314  25.718  0.00  0.00    -0.156 OA
ATOM     16  O   UNL     1      -0.998  -1.512  24.105  0.00  0.00    -0.156 OA
ENDBRANCH  12  13
ENDBRANCH  11  12
TORSDOF 5
ENDMDL
MODEL 4
REMARK VINA RESULT:     -10.2      2.280      3.630
REMARK  Name = 
REMARK  5 active torsions:
REMARK  status: ('A' for Active; 'I' for Inactive)
REMARK    1  A    between atoms: C_2  and  C_5
REMARK    2  A    between atoms: C_7  and  C_8
REMARK    3  A    between atoms: C_8  and  C_9
REMARK    4  A    between atoms: C_11  and  N_12
REMARK    5  A    between atoms: N_12  and  S_13
REMARK                            x       y       z     vdW  Elec       q    Type
REMARK                         _______ _______ _______ _____ _____    ______ ____
ROOT
ATOM      9  C   UNL     1      -2.226   3.839  25.117  0.00  0.00    +0.009 C 
ATOM     10  C   UNL     1      -1.863   3.098  25.112  0.00  0.00    +0.020 C 
ATOM     11  C   UNL     1      -1.122   3.461  25.127  0.00  0.00    +0.097 C 
ATOM     17  C   UNL     1      -1.486   4.202  25.132  0.00  0.00    +0.017 C 
ATOM     18  C   UNL     1      -0.851   4.727  25.149  0.00  0.00    +0.001 C 
ATOM     19  C   UNL     1      -1.666   5.006  25.141  0.00  0.00    +0.001 C 
ENDROOT
BRANCH   9   8
ATOM      8  C   UNL     1      -3.007   4.105  25.109  0.00  0.00    +0.049 C 
BRANCH   8   7
ATOM      5  C   UNL     1      -4.679   2.789  24.951  0.00  0.00    +0.153 A 
ATOM      6  C   UNL     1      -4.177   3.265  25.400  0.00  0.00    +0.054 A 
ATOM      7  C   UNL     1      -3.616   3.593  24.893  0.00  0.00    +0.100 A 
ATOM     20  N   UNL     1      -3.771   3.320  24.130  0.00  0.00    -0.082 NA
ATOM     21  O   UNL     1      -4.428   2.822  24.166  0.00  0.00    -0.358 OA
BRANCH   5   2
ATOM      1  C   UNL     1      -5.960   1.919  25.521  0.00  0.00    +0.008 C 
ATOM      2  C   UNL     1      -5.320   2.355  25.236  0.00  0.00    +0.054 C 
ATOM      3  C   UNL     1      -5.586   3.017  25.649  0.00  0.00    +0.008 C 
ATOM      4  C   UNL     1      -5.053   1.691  24.824  0.00  0.00    +0.008 C 
ENDBRANCH   5   2
ENDBRANCH   8   7
ENDBRANCH   9   8
BRANCH  11  12
ATOM     12  N   UNL     1      -0.341   3.194  25.135  0.00  0.00    -0.083 NA
BRANCH  12  13
ATOM     13  S   UNL     1      -0.182   2.386  25.094  0.00  0.00    +0.059 S 
ATOM     14  C   UNL     1      -0.022   1.577  25.055  0.00  0.00    +0.197 C 
ATOM     15  O   UNL     1      -0.196   2.342  25.918  0.00  0.00    -0.156 OA
ATOM     16  O   UNL     1      -0.167   2.430  24.271  0.00  0.00    -0.156 OA
ENDBRANCH  12  13
ENDBRANCH  11  12
TORSDOF 5
ENDMDL
