MODEL 1
REMARK VINA RESULT:     -12.0      0.000      0.000
REMARK  Name = 
REMARK  8 active torsions:
REMARK  status: ('A' for Active; 'I' for Inactive)
REMARK    1  A    between atoms: O_2  and  C_3
REMARK    2  A    between atoms: C_3  and  C_4
REMARK    3  A    between atoms: C_4  and  N_5
REMARK    4  A    between atoms: N_5  and  C_6
REMARK    5  A    between atoms: C_7  and  C_12
REMARK    6  A    between atoms: C_15  and  C_17
REMARK    7  A    between atoms: N_21  and  C_22
REMARK    8  A    between atoms: C_22  and  C_23
REMARK                            x       y       z     vdW  Elec       q    Type
REMARK                         _______ _______ _______ _____ _____    ______ ____
ROOT
ATOM     12  C   UNL     1      -2.792   3.022  24.518  0.00  0.00    +0.206 A 
ATOM     13  N   UNL     1      -3.109   2.931  23.762  0.00  0.00    -0.056 NA
ATOM     14  O   UNL     1      -3.802   2.487  23.828  0.00  0.00    -0.336 OA
ATOM     15  C   UNL     1      -3.911   2.304  24.625  0.00  0.00    +0.251 A 
ATOM     16  N   UNL     1      -3.287   2.634  25.051  0.00  0.00    -0.190 NA
ENDROOT
BRANCH  12   7
ATOM      6  C   UNL     1      -1.368   3.055  24.632  0.00  0.00    +0.151 A 
ATOM      7  C   UNL     1      -2.100   3.429  24.707  0.00  0.00    +0.072 A 
ATOM      8  C   UNL     1      -2.140   4.210  24.970  0.00  0.00    +0.008 A 
ATOM      9  C   UNL     1      -1.447   4.617  25.158  0.00  0.00    +0.021 A 
ATOM     10  C   UNL     1      -0.715   4.244  25.084  0.00  0.00    +0.100 A 
ATOM     11  N   UNL     1      -0.676   3.463  24.821  0.00  0.00    -0.228 NA
BRANCH   6   5
ATOM      5  N   UNL     1      -1.328   2.274  24.369  0.00  0.00    -0.218 NA
BRANCH   5   4
ATOM      4  C   UNL     1      -0.626   1.847  24.449  0.00  0.00    +0.146 C 
BRANCH   4   3
ATOM      3  C   UNL     1      -0.538   1.124  24.064  0.00  0.00    +0.166 C 
BRANCH   3   2
ATOM      1  C   UNL     1      -0.225  -0.270  24.104  0.00  0.00    +0.174 C 
ATOM      2  O   UNL     1      -0.332   0.450  24.493  0.00  0.00    -0.349 OA
ENDBRANCH   3   2
ENDBRANCH   4   3
ENDBRANCH   5   4
ENDBRANCH   6   5
ENDBRANCH  12   7
BRANCH  15  17
ATOM     17  C   UNL     1      -4.536   1.866  24.941  0.00  0.00    +0.138 C 
ATOM     18  C   UNL     1      -5.173   2.170  25.370  0.00  0.00    +0.027 C 
ATOM     19  C   UNL     1      -5.664   1.541  25.577  0.00  0.00    +0.019 C 
ATOM     20  C   UNL     1      -5.331   0.848  25.276  0.00  0.00    +0.073 C 
ATOM     21  N   UNL     1      -4.635   1.049  24.883  0.00  0.00    -0.263 NA
BRANCH  21  22
ATOM     22  C   UNL     1      -4.125   0.526  24.500  0.00  0.00    +0.101 C 
BRANCH  22  23
ATOM     23  C   UNL     1      -3.916  -0.185  24.862  0.00  0.00    +0.012 A 
ATOM     24  C   UNL     1      -3.653  -0.275  25.639  0.00  0.00    +0.073 A 
ATOM     25  N   UNL     1      -3.508  -1.076  25.768  0.00  0.00    -0.324 N 
ATOM     26  C   UNL     1      -3.236  -1.413  26.471  0.00  0.00    +0.130 C 
ATOM     27  C   UNL     1      -3.681  -1.482  25.072  0.00  0.00    +0.060 A 
ATOM     28  C   UNL     1      -3.934  -0.931  24.512  0.00  0.00    +0.015 A 
ATOM     29  C   UNL     1      -4.147  -1.182  23.755  0.00  0.00    +0.001 A 
ATOM     30  C   UNL     1      -4.108  -1.981  23.558  0.00  0.00    +0.000 A 
ATOM     31  C   UNL     1      -3.856  -2.532  24.118  0.00  0.00    +0.001 A 
ATOM     32  C   UNL     1      -3.642  -2.283  24.875  0.00  0.00    +0.017 A 
ENDBRANCH  22  23
ENDBRANCH  21  22
ENDBRANCH  15  17
TORSDOF 8
ENDMDL
MODEL 2
REMARK VINA RESULT:     -11.6      1.194      3.151
REMARK  Name = 
REMARK  8 active torsions:
REMARK  status: ('A' for Active; 'I' for Inactive)
REMARK    1  A    between atoms: O_2  and  C_3
REMARK    2  A    between atoms: C_3  and  C_4
REMARK    3  A    between atoms: C_4  and  N_5
REMARK    4  A    between atoms: N_5  and  C_6
REMARK    5  A    between atoms: C_7  and  C_12
REMARK    6  A    between atoms: C_15  and  C_17
REMARK    7  A    between atoms: N_21  and  C_22
REMARK    8  A    between atoms: C_22  and  C_23
REMARK                            x       y       z     vdW  Elec       q    Type
REMARK                         _______ _______ _______ _____ _____    ______ ____
ROOT
ATOM     12  C   UNL     1      -1.075   2.820  25.228  0.00  0.00    +0.206 A 
ATOM     13  N   UNL     1      -0.991   2.382  25.923  0.00  0.00    -0.056 NA
ATOM     14  O   UNL     1      -0.762   1.617  25.716  0.00  0.00    -0.336 OA
ATOM     15  C   UNL     1      -0.705   1.582  24.894  0.00  0.00    +0.251 A 
ATOM     16  N   UNL     1      -0.898   2.325  24.592  0.00  0.00    -0.190 NA
ENDROOT
BRANCH  12   7
ATOM      6  C   UNL     1      -2.094   3.822  25.223  0.00  0.00    +0.151 A 
ATOM      7  C   UNL     1      -1.297   3.613  25.179  0.00  0.00    +0.072 A 
ATOM      8  C   UNL     1      -0.721   4.197  25.087  0.00  0.00    +0.008 A 
ATOM      9  C   UNL     1      -0.943   4.990  25.038  0.00  0.00    +0.021 A 
ATOM     10  C   UNL     1      -1.740   5.199  25.082  0.00  0.00    +0.100 A 
ATOM     11  N   UNL     1      -2.315   4.615  25.174  0.00  0.00    -0.228 NA
BRANCH   6   5
ATOM      5  N   UNL     1      -2.669   3.237  25.315  0.00  0.00    -0.218 NA
BRANCH   5   4
ATOM      4  C   UNL     1      -3.468   3.431  25.248  0.00  0.00    +0.146 C 
BRANCH   4   3
ATOM      3  C   UNL     1      -4.044   2.901  25.507  0.00  0.00    +0.166 C 
BRANCH   3   2
ATOM      1  C   UNL     1      -5.452   2.672  25.586  0.00  0.00    +0.174 C 
ATOM      2  O   UNL     1      -4.788   2.893  25.150  0.00  0.00    -0.349 OA
ENDBRANCH   3   2
ENDBRANCH   4   3
ENDBRANCH   5   4
ENDBRANCH   6   5
ENDBRANCH  12   7
BRANCH  15  17
ATOM     17  C   UNL     1      -0.491   0.920  24.450  0.00  0.00    +0.138 C 
ATOM     18  C   UNL     1       0.197   0.838  24.000  0.00  0.00    +0.027 C 
ATOM     19  C   UNL     1       0.186   0.091  23.650  0.00  0.00    +0.019 C 
ATOM     20  C   UNL     1      -0.509  -0.289  23.883  0.00  0.00    +0.073 C 
ATOM     21  N   UNL     1      -0.927   0.223  24.377  0.00  0.00    -0.263 NA
BRANCH  21  22
ATOM     22  C   UNL     1      -1.653   0.066  24.735  0.00  0.00    +0.101 C 
BRANCH  22  23
ATOM     23  C   UNL     1      -2.000  -0.677  24.655  0.00  0.00    +0.012 A 
ATOM     24  C   UNL     1      -1.614  -1.404  24.729  0.00  0.00    +0.073 A 
ATOM     25  N   UNL     1      -2.170  -2.001  24.606  0.00  0.00    -0.324 N 
ATOM     26  C   UNL     1      -2.022  -2.813  24.629  0.00  0.00    +0.130 C 
ATOM     27  C   UNL     1      -2.898  -1.645  24.455  0.00  0.00    +0.060 A 
ATOM     28  C   UNL     1      -2.793  -0.827  24.486  0.00  0.00    +0.015 A 
ATOM     29  C   UNL     1      -3.434  -0.324  24.355  0.00  0.00    +0.001 A 
ATOM     30  C   UNL     1      -4.180  -0.638  24.195  0.00  0.00    +0.000 A 
ATOM     31  C   UNL     1      -4.284  -1.456  24.165  0.00  0.00    +0.001 A 
ATOM     32  C   UNL     1      -3.644  -1.960  24.295  0.00  0.00    +0.017 A 
ENDBRANCH  22  23
ENDBRANCH  21  22
ENDBRANCH  15  17
TORSDOF 8
ENDMDL
MODEL 3
REMARK VINA RESULT:     -11.1      1.175      4.356
REMARK  Name = 
REMARK  8 active torsions:
REMARK  status: ('A' for Active; 'I' for Inactive)
REMARK    1  A    between atoms: O_2  and  C_3
REMARK    2  A    between atoms: C_3  and  C_4
REMARK    3  A    between atoms: C_4  and  N_5
REMARK    4  A    between atoms: N_5  and  C_6
REMARK    5  A    between atoms: C_7  and  C_12
REMARK    6  A    between atoms: C_15  and  C_17
REMARK    7  A    between atoms: N_21  and  C_22
REMARK    8  A    between atoms: C_22  and  C_23
REMARK                            x       y       z     vdW  Elec       q    Type
REMARK                         _______ _______ _______ _____ _____    ______ ____
ROOT
ATOM     12  C   UNL     1      -3.625  -0.484  24.283  0.00  0.00    +0.206 A 
ATOM     13  N   UNL     1      -3.575  -0.098  23.555  0.00  0.00    -0.056 NA
ATOM     14  O   UNL     1      -3.905   0.654  23.644  0.00  0.00    -0.336 OA
ATOM     15  C   UNL     1      -4.158   0.731  24.425  0.00  0.00    +0.251 A 
ATOM     16  N   UNL     1      -3.985   0.027  24.820  0.00  0.00    -0.190 NA
ENDROOT
BRANCH  12   7
ATOM      6  C   UNL     1      -2.555  -1.394  24.547  0.00  0.00    +0.151 A 
ATOM      7  C   UNL     1      -3.360  -1.249  24.443  0.00  0.00    +0.072 A 
ATOM      8  C   UNL     1      -3.902  -1.869  24.500  0.00  0.00    +0.008 A 
ATOM      9  C   UNL     1      -3.638  -2.634  24.660  0.00  0.00    +0.021 A 
ATOM     10  C   UNL     1      -2.832  -2.779  24.764  0.00  0.00    +0.100 A 
ATOM     11  N   UNL     1      -2.291  -2.160  24.708  0.00  0.00    -0.228 NA
BRANCH   6   5
ATOM      5  N   UNL     1      -2.013  -0.774  24.491  0.00  0.00    -0.218 NA
BRANCH   5   4
ATOM      4  C   UNL     1      -1.204  -0.931  24.512  0.00  0.00    +0.146 C 
BRANCH   4   3
ATOM      3  C   UNL     1      -0.663  -0.329  24.353  0.00  0.00    +0.166 C 
BRANCH   3   2
ATOM      1  C   UNL     1       0.457   0.074  23.562  0.00  0.00    +0.174 C 
ATOM      2  O   UNL     1       0.057  -0.506  23.992  0.00  0.00    -0.349 OA
ENDBRANCH   3   2
ENDBRANCH   4   3
ENDBRANCH   5   4
ENDBRANCH   6   5
ENDBRANCH  12   7
BRANCH  15  17
ATOM     17  C   UNL     1      -4.520   1.395  24.755  0.00  0.00    +0.138 C 
ATOM     18  C   UNL     1      -5.312   1.452  24.982  0.00  0.00    +0.027 C 
ATOM     19  C   UNL     1      -5.436   2.211  25.282  0.00  0.00    +0.019 C 
ATOM     20  C   UNL     1      -4.722   2.622  25.240  0.00  0.00    +0.073 C 
ATOM     21  N   UNL     1      -4.156   2.118  24.914  0.00  0.00    -0.263 NA
BRANCH  21  22
ATOM     22  C   UNL     1      -3.365   2.304  24.773  0.00  0.00    +0.101 C 
BRANCH  22  23
ATOM     23  C   UNL     1      -3.031   2.973  25.119  0.00  0.00    +0.012 A 
ATOM     24  C   UNL     1      -3.398   3.471  25.665  0.00  0.00    +0.073 A 
ATOM     25  N   UNL     1      -2.864   4.068  25.865  0.00  0.00    -0.324 N 
ATOM     26  C   UNL     1      -3.003   4.685  26.394  0.00  0.00    +0.130 C 
ATOM     27  C   UNL     1      -2.168   3.938  25.443  0.00  0.00    +0.060 A 
ATOM     28  C   UNL     1      -2.271   3.261  24.982  0.00  0.00    +0.015 A 
ATOM     29  C   UNL     1      -1.658   2.996  24.497  0.00  0.00    +0.001 A 
ATOM     30  C   UNL     1      -0.943   3.407  24.473  0.00  0.00    +0.000 A 
ATOM     31  C   UNL     1      -0.841   4.083  24.933  0.00  0.00    +0.001 A 
ATOM     32  C   UNL     1      -1.452   4.349  25.419  0.00  0.00    +0.017 A 
ENDBRANCH  22  23
ENDBRANCH  21  22
ENDBRANCH  15  17
TORSDOF 8
ENDMDL
MODEL 4
REMARK VINA RESULT:     -10.7      1.386      2.995
REMARK  Name = 
REMARK  8 active torsions:
REMARK  status: ('A' for Active; 'I' for Inactive)
REMARK    1  A    between atoms: O_2  and  C_3
REMARK    2  A    between atoms: C_3  and  C_4
REMARK    3  A    between atoms: C_4  and  N_5
REMARK    4  A    between atoms: N_5  and  C_6
REMARK    5  A    between atoms: C_7  and  C_12
REMARK    6  A    between atoms: C_15  and  C_17
REMARK    7  A    between atoms: N_21  and  C_22
REMARK    8  A    between atoms: C_22  and  C_23
REMARK                            x       y       z     vdW  Elec       q    Type
REMARK                         _______ _______ _______ _____ _____    ______ ____
ROOT
ATOM     12  C   UNL     1      -3.481   2.355  24.314  0.00  0.00    +0.206 A 
ATOM     13  N   UNL     1      -3.433   2.328  23.491  0.00  0.00    -0.056 NA
ATOM     14  O   UNL     1      -2.799   1.840  23.289  0.00  0.00    -0.336 OA
ATOM     15  C   UNL     1      -2.455   1.567  23.987  0.00  0.00    +0.251 A 
ATOM     16  N   UNL     1      -2.877   1.885  24.621  0.00  0.00    -0.190 NA
ENDROOT
BRANCH  12   7
ATOM      6  C   UNL     1      -3.817   3.477  25.133  0.00  0.00    +0.151 A 
ATOM      7  C   UNL     1      -4.037   2.779  24.753  0.00  0.00    +0.072 A 
ATOM      8  C   UNL     1      -4.812   2.503  24.812  0.00  0.00    +0.008 A 
ATOM      9  C   UNL     1      -5.368   2.926  25.251  0.00  0.00    +0.021 A 
ATOM     10  C   UNL     1      -5.148   3.625  25.631  0.00  0.00    +0.100 A 
ATOM     11  N   UNL     1      -4.373   3.900  25.571  0.00  0.00    -0.228 NA
BRANCH   6   5
ATOM      5  N   UNL     1      -3.042   3.753  25.073  0.00  0.00    -0.218 NA
BRANCH   5   4
ATOM      4  C   UNL     1      -2.826   4.459  25.441  0.00  0.00    +0.146 C 
BRANCH   4   3
ATOM      3  C   UNL     1      -2.030   4.627  25.577  0.00  0.00    +0.166 C 
BRANCH   3   2
ATOM      1  C   UNL     1      -0.877   5.179  24.938  0.00  0.00    +0.174 C 
ATOM      2  O   UNL     1      -1.665   5.248  25.176  0.00  0.00    -0.349 OA
ENDBRANCH   3   2
ENDBRANCH   4   3
ENDBRANCH   5   4
ENDBRANCH   6   5
ENDBRANCH  12   7
BRANCH  15  17
ATOM     17  C   UNL     1      -1.804   1.063  24.042  0.00  0.00    +0.138 C 
ATOM     18  C   UNL     1      -1.023   1.259  23.860  0.00  0.00    +0.027 C 
ATOM     19  C   UNL     1      -0.555   0.593  23.994  0.00  0.00    +0.019 C 
ATOM     20  C   UNL     1      -1.047  -0.015  24.260  0.00  0.00    +0.073 C 
ATOM     21  N   UNL     1      -1.818   0.276  24.290  0.00  0.00    -0.263 NA
BRANCH  21  22
ATOM     22  C   UNL     1      -2.487  -0.146  24.525  0.00  0.00    +0.101 C 
BRANCH  22  23
ATOM     23  C   UNL     1      -2.464  -0.969  24.557  0.00  0.00    +0.012 A 
ATOM     24  C   UNL     1      -1.818  -1.428  24.787  0.00  0.00    +0.073 A 
ATOM     25  N   UNL     1      -2.038  -2.221  24.737  0.00  0.00    -0.324 N 
ATOM     26  C   UNL     1      -1.559  -2.870  24.917  0.00  0.00    +0.130 C 
ATOM     27  C   UNL     1      -2.819  -2.253  24.478  0.00  0.00    +0.060 A 
ATOM     28  C   UNL     1      -3.083  -1.479  24.366  0.00  0.00    +0.015 A 
ATOM     29  C   UNL     1      -3.853  -1.340  24.105  0.00  0.00    +0.001 A 
ATOM     30  C   UNL     1      -4.359  -1.973  23.955  0.00  0.00    +0.000 A 
ATOM     31  C   UNL     1      -4.096  -2.747  24.067  0.00  0.00    +0.001 A 
ATOM     32  C   UNL     1      -3.326  -2.888  24.328  0.00  0.00    +0.017 A 
ENDBRANCH  22  23
ENDBRANCH  21  22
ENDBRANCH  15  17
TORSDOF 8
ENDMDL
MODEL 5
REMARK VINA RESULT:     -10.7      1.224      3.753
REMARK  Name = 
REMARK  8 active torsions:
REMARK  status: ('A' for Active; 'I' for Inactive)
REMARK    1  A    between atoms: O_2  and  C_3
REMARK    2  A    between atoms: C_3  and  C_4
REMARK    3  A    between atoms: C_4  and  N_5
REMARK    4  A    between atoms: N_5  and  C_6
REMARK    5  A    between atoms: C_7  and  C_12
REMARK    6  A    between atoms: C_15  and  C_17
REMARK    7  A    between atoms: N_21  and  C_22
REMARK    8  A    between atoms: C_22  and  C_23
REMARK                            x       y       z     vdW  Elec       q    Type
REMARK                         _______ _______ _______ _____ _____    ______ ____
ROOT
ATOM     12  C   UNL     1      -3.671   2.751  24.801  0.00  0.00    +0.206 A 
ATOM     13  N   UNL     1      -3.454   2.902  24.019  0.00  0.00    -0.056 NA
ATOM     14  O   UNL     1      -2.630   2.952  23.989  0.00  0.00    -0.336 OA
ATOM     15  C   UNL     1      -2.340   2.832  24.751  0.00  0.00    +0.251 A 
ATOM     16  N   UNL     1      -2.982   2.708  25.253  0.00  0.00    -0.190 NA
ENDROOT
BRANCH  12   7
ATOM      6  C   UNL     1      -4.823   1.932  25.009  0.00  0.00    +0.151 A 
ATOM      7  C   UNL     1      -4.442   2.660  25.080  0.00  0.00    +0.072 A 
ATOM      8  C   UNL     1      -4.832   3.297  25.430  0.00  0.00    +0.008 A 
ATOM      9  C   UNL     1      -5.602   3.206  25.709  0.00  0.00    +0.021 A 
ATOM     10  C   UNL     1      -5.984   2.478  25.638  0.00  0.00    +0.100 A 
ATOM     11  N   UNL     1      -5.594   1.841  25.288  0.00  0.00    -0.228 NA
BRANCH   6   5
ATOM      5  N   UNL     1      -4.433   1.294  24.658  0.00  0.00    -0.218 NA
BRANCH   5   4
ATOM      4  C   UNL     1      -4.758   0.537  24.702  0.00  0.00    +0.146 C 
BRANCH   4   3
ATOM      3  C   UNL     1      -4.466  -0.065  24.221  0.00  0.00    +0.166 C 
BRANCH   3   2
ATOM      1  C   UNL     1      -4.281  -1.466  24.006  0.00  0.00    +0.174 C 
ATOM      2  O   UNL     1      -4.385  -0.829  24.521  0.00  0.00    -0.349 OA
ENDBRANCH   3   2
ENDBRANCH   4   3
ENDBRANCH   5   4
ENDBRANCH   6   5
ENDBRANCH  12   7
BRANCH  15  17
ATOM     17  C   UNL     1      -1.545   2.836  24.974  0.00  0.00    +0.138 C 
ATOM     18  C   UNL     1      -1.070   3.505  25.067  0.00  0.00    +0.027 C 
ATOM     19  C   UNL     1      -0.318   3.254  25.292  0.00  0.00    +0.019 C 
ATOM     20  C   UNL     1      -0.327   2.430  25.339  0.00  0.00    +0.073 C 
ATOM     21  N   UNL     1      -1.085   2.172  25.143  0.00  0.00    -0.263 NA
BRANCH  21  22
ATOM     22  C   UNL     1      -1.339   1.387  25.119  0.00  0.00    +0.101 C 
BRANCH  22  23
ATOM     23  C   UNL     1      -0.870   0.813  24.760  0.00  0.00    +0.012 A 
ATOM     24  C   UNL     1      -0.367   0.930  24.116  0.00  0.00    +0.073 A 
ATOM     25  N   UNL     1      -0.006   0.209  23.940  0.00  0.00    -0.324 N 
ATOM     26  C   UNL     1       0.539   0.075  23.335  0.00  0.00    +0.130 C 
ATOM     27  C   UNL     1      -0.285  -0.353  24.474  0.00  0.00    +0.060 A 
ATOM     28  C   UNL     1      -0.819   0.020  24.981  0.00  0.00    +0.015 A 
ATOM     29  C   UNL     1      -1.190  -0.411  25.579  0.00  0.00    +0.001 A 
ATOM     30  C   UNL     1      -1.027  -1.214  25.670  0.00  0.00    +0.000 A 
ATOM     31  C   UNL     1      -0.494  -1.587  25.164  0.00  0.00    +0.001 A 
ATOM     32  C   UNL     1      -0.122  -1.157  24.566  0.00  0.00    +0.017 A 
ENDBRANCH  22  23
ENDBRANCH  21  22
ENDBRANCH  15  17
TORSDOF 8
ENDMDL
MODEL 6
REMARK VINA RESULT:     -10.6      1.210      5.326
REMARK  Name = 
REMARK  8 active torsions:
REMARK  status: ('A' for Active; 'I' for Inactive)
REMARK    1  A    between atoms: O_2  and  C_3
REMARK    2  A    between atoms: C_3  and  C_4
REMARK    3  A    between atoms: C_4  and  N_5
REMARK    4  A    between atoms: N_5  and  C_6
REMARK    5  A    between atoms: C_7  and  C_12
REMARK    6  A    between atoms: C_15  and  C_17
REMARK    7  A    between atoms: N_21  and  C_22
REMARK    8  A    between atoms: C_22  and  C_23
REMARK                            x       y       z     vdW  Elec       q    Type
REMARK                         _______ _______ _______ _____ _____    ______ ____
ROOT
ATOM     12  C   UNL     1      -2.187  -0.565  24.982  0.00  0.00    +0.206 A 
ATOM     13  N   UNL     1      -1.956  -0.407  25.759  0.00  0.00    -0.056 NA
ATOM     14  O   UNL     1      -1.337   0.138  25.734  0.00  0.00    -0.336 OA
ATOM     15  C   UNL     1      -1.186   0.316  24.943  0.00  0.00    +0.251 A 
ATOM     16  N   UNL     1      -1.712  -0.118  24.478  0.00  0.00    -0.190 NA
ENDROOT
BRANCH  12   7
ATOM      6  C   UNL     1      -3.564  -0.805  24.682  0.00  0.00    +0.151 A 
ATOM      7  C   UNL     1      -2.789  -1.080  24.752  0.00  0.00    +0.072 A 
ATOM      8  C   UNL     1      -2.616  -1.871  24.591  0.00  0.00    +0.008 A 
ATOM      9  C   UNL     1      -3.218  -2.386  24.361  0.00  0.00    +0.021 A 
ATOM     10  C   UNL     1      -3.992  -2.111  24.291  0.00  0.00    +0.100 A 
ATOM     11  N   UNL     1      -4.165  -1.321  24.451  0.00  0.00    -0.228 NA
BRANCH   6   5
ATOM      5  N   UNL     1      -3.737  -0.014  24.842  0.00  0.00    -0.218 NA
BRANCH   5   4
ATOM      4  C   UNL     1      -4.487   0.286  24.674  0.00  0.00    +0.146 C 
BRANCH   4   3
ATOM      3  C   UNL     1      -4.752   0.968  25.053  0.00  0.00    +0.166 C 
BRANCH   3   2
ATOM      1  C   UNL     1      -5.808   1.932  25.071  0.00  0.00    +0.174 C 
ATOM      2  O   UNL     1      -5.243   1.498  24.654  0.00  0.00    -0.349 OA
ENDBRANCH   3   2
ENDBRANCH   4   3
ENDBRANCH   5   4
ENDBRANCH   6   5
ENDBRANCH  12   7
BRANCH  15  17
ATOM     17  C   UNL     1      -0.611   0.838  24.664  0.00  0.00    +0.138 C 
ATOM     18  C   UNL     1       0.042   0.637  24.201  0.00  0.00    +0.027 C 
ATOM     19  C   UNL     1       0.470   1.327  24.050  0.00  0.00    +0.019 C 
ATOM     20  C   UNL     1       0.081   1.954  24.421  0.00  0.00    +0.073 C 
ATOM     21  N   UNL     1      -0.586   1.652  24.800  0.00  0.00    -0.263 NA
BRANCH  21  22
ATOM     22  C   UNL     1      -1.133   2.087  25.239  0.00  0.00    +0.101 C 
BRANCH  22  23
ATOM     23  C   UNL     1      -1.157   2.908  25.170  0.00  0.00    +0.012 A 
ATOM     24  C   UNL     1      -0.597   3.379  24.788  0.00  0.00    +0.073 A 
ATOM     25  N   UNL     1      -0.838   4.165  24.853  0.00  0.00    -0.324 N 
ATOM     26  C   UNL     1      -0.441   4.821  24.549  0.00  0.00    +0.130 C 
ATOM     27  C   UNL     1      -1.547   4.180  25.274  0.00  0.00    +0.060 A 
ATOM     28  C   UNL     1      -1.744   3.403  25.470  0.00  0.00    +0.015 A 
ATOM     29  C   UNL     1      -2.433   3.247  25.897  0.00  0.00    +0.001 A 
ATOM     30  C   UNL     1      -2.924   3.868  26.127  0.00  0.00    +0.000 A 
ATOM     31  C   UNL     1      -2.727   4.645  25.932  0.00  0.00    +0.001 A 
ATOM     32  C   UNL     1      -2.039   4.801  25.505  0.00  0.00    +0.017 A 
ENDBRANCH  22  23
ENDBRANCH  21  22
ENDBRANCH  15  17
TORSDOF 8
ENDMDL
MODEL 7
REMARK VINA RESULT:     -10.6      1.425      3.844
REMARK  Name = 
REMARK  8 active torsions:
REMARK  status: ('A' for Active; 'I' for Inactive)
REMARK    1  A    between atoms: O_2  and  C_3
REMARK    2  A    between atoms: C_3  and  C_4
REMARK    3  A    between atoms: C_4  and  N_5
REMARK    4  A    between atoms: N_5  and  C_6
REMARK    5  A    between atoms: C_7  and  C_12
REMARK    6  A    between atoms: C_15  and  C_17
REMARK    7  A    between atoms: N_21  and  C_22
REMARK    8  A    between atoms: C_22  and  C_23
REMARK                            x       y       z     vdW  Elec       q    Type
REMARK                         _______ _______ _______ _____ _____    ______ ____
ROOT
ATOM     12  C   UNL     1      -0.563   1.405  24.822  0.00  0.00    +0.206 A 
ATOM     13  N   UNL     1      -0.609   1.383  25.645  0.00  0.00    -0.056 NA
ATOM     14  O   UNL     1      -0.999   2.065  25.897  0.00  0.00    -0.336 OA
ATOM     15  C   UNL     1      -1.194   2.508  25.229  0.00  0.00    +0.251 A 
ATOM     16  N   UNL     1      -0.924   2.101  24.564  0.00  0.00    -0.190 NA
ENDROOT
BRANCH  12   7
ATOM      6  C   UNL     1      -0.534   0.071  24.310  0.00  0.00    +0.151 A 
ATOM      7  C   UNL     1      -0.216   0.832  24.341  0.00  0.00    +0.072 A 
ATOM      8  C   UNL     1       0.450   1.020  23.890  0.00  0.00    +0.008 A 
ATOM      9  C   UNL     1       0.797   0.447  23.409  0.00  0.00    +0.021 A 
ATOM     10  C   UNL     1       0.479  -0.314  23.378  0.00  0.00    +0.100 A 
ATOM     11  N   UNL     1      -0.186  -0.501  23.828  0.00  0.00    -0.228 NA
BRANCH   6   5
ATOM      5  N   UNL     1      -1.199  -0.117  24.760  0.00  0.00    -0.218 NA
BRANCH   5   4
ATOM      4  C   UNL     1      -1.561  -0.853  24.675  0.00  0.00    +0.146 C 
BRANCH   4   3
ATOM      3  C   UNL     1      -2.183  -1.067  25.172  0.00  0.00    +0.166 C 
BRANCH   3   2
ATOM      1  C   UNL     1      -3.267  -1.965  25.417  0.00  0.00    +0.174 C 
ATOM      2  O   UNL     1      -2.791  -1.547  24.888  0.00  0.00    -0.349 OA
ENDBRANCH   3   2
ENDBRANCH   4   3
ENDBRANCH   5   4
ENDBRANCH   6   5
ENDBRANCH  12   7
BRANCH  15  17
ATOM     17  C   UNL     1      -1.589   3.233  25.226  0.00  0.00    +0.138 C 
ATOM     18  C   UNL     1      -1.240   3.976  25.313  0.00  0.00    +0.027 C 
ATOM     19  C   UNL     1      -1.837   4.544  25.276  0.00  0.00    +0.019 C 
ATOM     20  C   UNL     1      -2.555   4.152  25.166  0.00  0.00    +0.073 C 
ATOM     21  N   UNL     1      -2.402   3.342  25.135  0.00  0.00    -0.263 NA
BRANCH  21  22
ATOM     22  C   UNL     1      -2.963   2.746  25.032  0.00  0.00    +0.101 C 
BRANCH  22  23
ATOM     23  C   UNL     1      -3.762   2.907  25.151  0.00  0.00    +0.012 A 
ATOM     24  C   UNL     1      -4.082   3.633  25.377  0.00  0.00    +0.073 A 
ATOM     25  N   UNL     1      -4.901   3.545  25.431  0.00  0.00    -0.324 N 
ATOM     26  C   UNL     1      -5.439   4.135  25.641  0.00  0.00    +0.130 C 
ATOM     27  C   UNL     1      -5.086   2.766  25.239  0.00  0.00    +0.060 A 
ATOM     28  C   UNL     1      -4.383   2.371  25.066  0.00  0.00    +0.015 A 
ATOM     29  C   UNL     1      -4.399   1.574  24.853  0.00  0.00    +0.001 A 
ATOM     30  C   UNL     1      -5.118   1.172  24.813  0.00  0.00    +0.000 A 
ATOM     31  C   UNL     1      -5.821   1.567  24.986  0.00  0.00    +0.001 A 
ATOM     32  C   UNL     1      -5.806   2.363  25.199  0.00  0.00    +0.017 A 
ENDBRANCH  22  23
ENDBRANCH  21  22
ENDBRANCH  15  17
TORSDOF 8
ENDMDL
MODEL 8
REMARK VINA RESULT:     -10.3      1.404      3.663
REMARK  Name = 
REMARK  8 active torsions:
REMARK  status: ('A' for Active; 'I' for Inactive)
REMARK    1  A    between atoms: O_2  and  C_3
REMARK    2  A    between atoms: C_3  and  C_4
REMARK    3  A    between atoms: C_4  and  N_5
REMARK    4  A    between atoms: N_5  and  C_6
REMARK    5  A    between atoms: C_7  and  C_12
REMARK    6  A    between atoms: C_15  and  C_17
REMARK    7  A    between atoms: N_21  and  C_22
REMARK    8  A    between atoms: C_22  and  C_23
REMARK                            x       y       z     vdW  Elec       q    Type
REMARK                         _______ _______ _______ _____ _____    ______ ____
ROOT
ATOM     12  C   UNL     1      -1.127   0.063  24.488  0.00  0.00    +0.206 A 
ATOM     13  N   UNL     1      -1.256   0.035  25.302  0.00  0.00    -0.056 NA
ATOM     14  O   UNL     1      -2.054  -0.135  25.428  0.00  0.00    -0.336 OA
ATOM     15  C   UNL     1      -2.416  -0.212  24.692  0.00  0.00    +0.251 A 
ATOM     16  N   UNL     1      -1.844  -0.090  24.110  0.00  0.00    -0.190 NA
ENDROOT
BRANCH  12   7
ATOM      6  C   UNL     1      -0.102   0.983  24.108  0.00  0.00    +0.151 A 
ATOM      7  C   UNL     1      -0.406   0.217  24.117  0.00  0.00    +0.072 A 
ATOM      8  C   UNL     1       0.010  -0.397  23.755  0.00  0.00    +0.008 A 
ATOM      9  C   UNL     1       0.731  -0.243  23.384  0.00  0.00    +0.021 A 
ATOM     10  C   UNL     1       1.035   0.523  23.375  0.00  0.00    +0.100 A 
ATOM     11  N   UNL     1       0.619   1.136  23.736  0.00  0.00    -0.228 NA
BRANCH   6   5
ATOM      5  N   UNL     1      -0.519   1.597  24.469  0.00  0.00    -0.218 NA
BRANCH   5   4
ATOM      4  C   UNL     1      -0.270   2.378  24.372  0.00  0.00    +0.146 C 
BRANCH   4   3
ATOM      3  C   UNL     1      -0.596   2.975  24.838  0.00  0.00    +0.166 C 
BRANCH   3   2
ATOM      1  C   UNL     1      -0.775   4.372  25.079  0.00  0.00    +0.174 C 
ATOM      2  O   UNL     1      -0.614   3.751  24.560  0.00  0.00    -0.349 OA
ENDBRANCH   3   2
ENDBRANCH   4   3
ENDBRANCH   5   4
ENDBRANCH   6   5
ENDBRANCH  12   7
BRANCH  15  17
ATOM     17  C   UNL     1      -3.213  -0.383  24.559  0.00  0.00    +0.138 C 
ATOM     18  C   UNL     1      -3.532  -1.131  24.418  0.00  0.00    +0.027 C 
ATOM     19  C   UNL     1      -4.346  -1.045  24.315  0.00  0.00    +0.019 C 
ATOM     20  C   UNL     1      -4.530  -0.244  24.393  0.00  0.00    +0.073 C 
ATOM     21  N   UNL     1      -3.830   0.165  24.543  0.00  0.00    -0.263 NA
BRANCH  21  22
ATOM     22  C   UNL     1      -3.759   0.979  24.658  0.00  0.00    +0.101 C 
BRANCH  22  23
ATOM     23  C   UNL     1      -4.390   1.407  24.973  0.00  0.00    +0.012 A 
ATOM     24  C   UNL     1      -5.037   1.092  25.377  0.00  0.00    +0.073 A 
ATOM     25  N   UNL     1      -5.531   1.716  25.592  0.00  0.00    -0.324 N 
ATOM     26  C   UNL     1      -6.242   1.650  26.007  0.00  0.00    +0.130 C 
ATOM     27  C   UNL     1      -5.190   2.416  25.322  0.00  0.00    +0.060 A 
ATOM     28  C   UNL     1      -4.485   2.225  24.939  0.00  0.00    +0.015 A 
ATOM     29  C   UNL     1      -4.021   2.822  24.608  0.00  0.00    +0.001 A 
ATOM     30  C   UNL     1      -4.262   3.609  24.661  0.00  0.00    +0.000 A 
ATOM     31  C   UNL     1      -4.967   3.800  25.044  0.00  0.00    +0.001 A 
ATOM     32  C   UNL     1      -5.432   3.204  25.375  0.00  0.00    +0.017 A 
ENDBRANCH  22  23
ENDBRANCH  21  22
ENDBRANCH  15  17
TORSDOF 8
ENDMDL
MODEL 9
REMARK VINA RESULT:     -10.2      1.284      3.335
REMARK  Name = 
REMARK  8 active torsions:
REMARK  status: ('A' for Active; 'I' for Inactive)
REMARK    1  A    between atoms: O_2  and  C_3
REMARK    2  A    between atoms: C_3  and  C_4
REMARK    3  A    between atoms: C_4  and  N_5
REMARK    4  A    between atoms: N_5  and  C_6
REMARK    5  A    between atoms: C_7  and  C_12
REMARK    6  A    between atoms: C_15  and  C_17
REMARK    7  A    between atoms: N_21  and  C_22
REMARK    8  A    between atoms: C_22  and  C_23
REMARK                            x       y       z     vdW  Elec       q    Type
REMARK                         _______ _______ _______ _____ _____    ______ ____
ROOT
ATOM     12  C   UNL     1      -4.438   1.745  24.627  0.00  0.00    +0.206 A 
ATOM     13  N   UNL     1      -4.205   1.736  23.836  0.00  0.00    -0.056 NA
ATOM     14  O   UNL     1      -3.938   0.975  23.657  0.00  0.00    -0.336 OA
ATOM     15  C   UNL     1      -4.007   0.515  24.339  0.00  0.00    +0.251 A 
ATOM     16  N   UNL     1      -4.316   0.990  24.938  0.00  0.00    -0.190 NA
ENDROOT
BRANCH  12   7
ATOM      6  C   UNL     1      -4.246   3.021  25.239  0.00  0.00    +0.151 A 
ATOM      7  C   UNL     1      -4.741   2.395  25.035  0.00  0.00    +0.072 A 
ATOM      8  C   UNL     1      -5.541   2.417  25.238  0.00  0.00    +0.008 A 
ATOM      9  C   UNL     1      -5.844   3.067  25.646  0.00  0.00    +0.021 A 
ATOM     10  C   UNL     1      -5.348   3.694  25.851  0.00  0.00    +0.100 A 
ATOM     11  N   UNL     1      -4.549   3.671  25.647  0.00  0.00    -0.228 NA
BRANCH   6   5
ATOM      5  N   UNL     1      -3.446   2.999  25.035  0.00  0.00    -0.218 NA
BRANCH   5   4
ATOM      4  C   UNL     1      -2.937   3.592  25.298  0.00  0.00    +0.146 C 
BRANCH   4   3
ATOM      3  C   UNL     1      -2.156   3.612  25.033  0.00  0.00    +0.166 C 
BRANCH   3   2
ATOM      1  C   UNL     1      -0.949   4.376  25.071  0.00  0.00    +0.174 C 
ATOM      2  O   UNL     1      -1.585   4.025  25.462  0.00  0.00    -0.349 OA
ENDBRANCH   3   2
ENDBRANCH   4   3
ENDBRANCH   5   4
ENDBRANCH   6   5
ENDBRANCH  12   7
BRANCH  15  17
ATOM     17  C   UNL     1      -3.802  -0.281  24.409  0.00  0.00    +0.138 C 
ATOM     18  C   UNL     1      -4.313  -0.923  24.317  0.00  0.00    +0.027 C 
ATOM     19  C   UNL     1      -3.878  -1.614  24.435  0.00  0.00    +0.019 C 
ATOM     20  C   UNL     1      -3.098  -1.399  24.600  0.00  0.00    +0.073 C 
ATOM     21  N   UNL     1      -3.052  -0.576  24.584  0.00  0.00    -0.263 NA
BRANCH  21  22
ATOM     22  C   UNL     1      -2.374  -0.126  24.720  0.00  0.00    +0.101 C 
BRANCH  22  23
ATOM     23  C   UNL     1      -1.632  -0.486  24.714  0.00  0.00    +0.012 A 
ATOM     24  C   UNL     1      -1.426  -1.179  25.113  0.00  0.00    +0.073 A 
ATOM     25  N   UNL     1      -0.633  -1.338  24.954  0.00  0.00    -0.324 N 
ATOM     26  C   UNL     1      -0.200  -1.980  25.242  0.00  0.00    +0.130 C 
ATOM     27  C   UNL     1      -0.348  -0.745  24.458  0.00  0.00    +0.060 A 
ATOM     28  C   UNL     1      -0.966  -0.218  24.310  0.00  0.00    +0.015 A 
ATOM     29  C   UNL     1      -0.840   0.438  23.825  0.00  0.00    +0.001 A 
ATOM     30  C   UNL     1      -0.099   0.567  23.489  0.00  0.00    +0.000 A 
ATOM     31  C   UNL     1       0.519   0.041  23.638  0.00  0.00    +0.001 A 
ATOM     32  C   UNL     1       0.395  -0.615  24.122  0.00  0.00    +0.017 A 
ENDBRANCH  22  23
ENDBRANCH  21  22
ENDBRANCH  15  17
TORSDOF 8
ENDMDL
MODEL 10
REMARK VINA RESULT:     -10.1      1.798      3.897
REMARK  Name = 
REMARK  8 active torsions:
REMARK  status: ('A' for Active; 'I' for Inactive)
REMARK    1  A    between atoms: O_2  and  C_3
REMARK    2  A    between atoms: C_3  and  C_4
REMARK    3  A    between atoms: C_4  and  N_5
REMARK    4  A    between atoms: N_5  and  C_6
REMARK    5  A    between atoms: C_7  and  C_12
REMARK    6  A    between atoms: C_15  and  C_17
REMARK    7  A    between atoms: N_21  and  C_22
REMARK    8  A    between atoms: C_22  and  C_23
REMARK                            x       y       z     vdW  Elec       q    Type
REMARK                         _______ _______ _______ _____ _____    ______ ____
ROOT
ATOM     12  C   UNL     1      -1.287   0.785  24.320  0.00  0.00    +0.206 A 
ATOM     13  N   UNL     1      -1.360   1.071  23.549  0.00  0.00    -0.056 NA
ATOM     14  O   UNL     1      -1.568   1.869  23.592  0.00  0.00    -0.336 OA
ATOM     15  C   UNL     1      -1.623   2.075  24.389  0.00  0.00    +0.251 A 
ATOM     16  N   UNL     1      -1.449   1.405  24.839  0.00  0.00    -0.190 NA
ENDROOT
BRANCH  12   7
ATOM      6  C   UNL     1      -0.387  -0.323  24.254  0.00  0.00    +0.151 A 
ATOM      7  C   UNL     1      -1.087   0.014  24.532  0.00  0.00    +0.072 A 
ATOM      8  C   UNL     1      -1.587  -0.421  25.025  0.00  0.00    +0.008 A 
ATOM      9  C   UNL     1      -1.386  -1.192  25.238  0.00  0.00    +0.021 A 
ATOM     10  C   UNL     1      -0.687  -1.529  24.959  0.00  0.00    +0.100 A 
ATOM     11  N   UNL     1      -0.188  -1.095  24.467  0.00  0.00    -0.228 NA
BRANCH   6   5
ATOM      5  N   UNL     1       0.112   0.112  23.761  0.00  0.00    -0.218 NA
BRANCH   5   4
ATOM      4  C   UNL     1       0.781  -0.244  23.434  0.00  0.00    +0.146 C 
BRANCH   4   3
ATOM      3  C   UNL     1       1.360   0.219  23.074  0.00  0.00    +0.166 C 
BRANCH   3   2
ATOM      1  C   UNL     1       2.646   0.160  22.455  0.00  0.00    +0.174 C 
ATOM      2  O   UNL     1       1.872  -0.117  22.521  0.00  0.00    -0.349 OA
ENDBRANCH   3   2
ENDBRANCH   4   3
ENDBRANCH   5   4
ENDBRANCH   6   5
ENDBRANCH  12   7
BRANCH  15  17
ATOM     17  C   UNL     1      -1.817   2.820  24.685  0.00  0.00    +0.138 C 
ATOM     18  C   UNL     1      -1.288   3.369  25.003  0.00  0.00    +0.027 C 
ATOM     19  C   UNL     1      -1.718   4.036  25.229  0.00  0.00    +0.019 C 
ATOM     20  C   UNL     1      -2.513   3.899  25.052  0.00  0.00    +0.073 C 
ATOM     21  N   UNL     1      -2.574   3.148  24.716  0.00  0.00    -0.263 NA
BRANCH  21  22
ATOM     22  C   UNL     1      -3.269   2.788  24.457  0.00  0.00    +0.101 C 
BRANCH  22  23
ATOM     23  C   UNL     1      -3.991   2.992  24.798  0.00  0.00    +0.012 A 
ATOM     24  C   UNL     1      -4.217   3.749  25.039  0.00  0.00    +0.073 A 
ATOM     25  N   UNL     1      -4.980   3.701  25.348  0.00  0.00    -0.324 N 
ATOM     26  C   UNL     1      -5.420   4.328  25.654  0.00  0.00    +0.130 C 
ATOM     27  C   UNL     1      -5.226   2.915  25.298  0.00  0.00    +0.060 A 
ATOM     28  C   UNL     1      -4.615   2.478  24.958  0.00  0.00    +0.015 A 
ATOM     29  C   UNL     1      -4.707   1.666  24.838  0.00  0.00    +0.001 A 
ATOM     30  C   UNL     1      -5.408   1.293  25.058  0.00  0.00    +0.000 A 
ATOM     31  C   UNL     1      -6.019   1.731  25.398  0.00  0.00    +0.001 A 
ATOM     32  C   UNL     1      -5.929   2.542  25.518  0.00  0.00    +0.017 A 
ENDBRANCH  22  23
ENDBRANCH  21  22
ENDBRANCH  15  17
TORSDOF 8
ENDMDL
