MODEL 1
REMARK VINA RESULT:     -11.8      0.000      0.000
REMARK  Name = 
REMARK  5 active torsions:
REMARK  status: ('A' for Active; 'I' for Inactive)
REMARK    1  A    between atoms: N_7  and  C_10
REMARK    2  A    between atoms: C_12  and  C_16
REMARK    3  A    between atoms: C_19  and  C_21
REMARK    4  A    between atoms: N_25  and  C_26
REMARK    5  A    between atoms: C_26  and  C_27
REMARK                            x       y       z     vdW  Elec       q    Type
REMARK                         _______ _______ _______ _____ _____    ______ ____
ROOT
ATOM     16  C   UNL     1      -0.290   1.924  24.938  0.00  0.00    +0.203 A 
ATOM     17  N   UNL     1       0.094   2.150  25.633  0.00  0.00    -0.056 NA
ATOM     18  O   UNL     1      -0.141   2.919  25.815  0.00  0.00    -0.336 OA
ATOM     19  C   UNL     1      -0.671   3.169  25.234  0.00  0.00    +0.251 A 
ATOM     20  N   UNL     1      -0.762   2.553  24.692  0.00  0.00    -0.190 NA
ENDROOT
BRANCH  16  12
ATOM     10  C   UNL     1      -0.717  -0.110  24.274  0.00  0.00    +0.132 A 
ATOM     11  C   UNL     1      -0.793   0.617  24.655  0.00  0.00    +0.037 A 
ATOM     12  C   UNL     1      -0.214   1.196  24.557  0.00  0.00    +0.043 A 
ATOM     13  C   UNL     1       0.442   1.048  24.078  0.00  0.00    +0.024 A 
ATOM     14  C   UNL     1       0.518   0.320  23.697  0.00  0.00    +0.100 A 
ATOM     15  N   UNL     1      -0.062  -0.260  23.795  0.00  0.00    -0.229 NA
BRANCH  10   7
ATOM      1  C   UNL     1      -3.825  -2.250  24.511  0.00  0.00    +0.095 C 
ATOM      2  C   UNL     1      -3.034  -2.428  24.665  0.00  0.00    +0.226 C 
ATOM      3  O   UNL     1      -2.823  -3.184  24.916  0.00  0.00    -0.275 OA
ATOM      4  N   UNL     1      -2.455  -1.848  24.567  0.00  0.00    -0.276 N 
ATOM      5  C   UNL     1      -1.664  -2.025  24.720  0.00  0.00    +0.115 C 
ATOM      6  C   UNL     1      -1.085  -1.447  24.623  0.00  0.00    +0.114 C 
ATOM      7  N   UNL     1      -1.297  -0.690  24.372  0.00  0.00    -0.290 N 
ATOM      8  C   UNL     1      -2.088  -0.513  24.218  0.00  0.00    +0.114 C 
ATOM      9  C   UNL     1      -2.667  -1.092  24.316  0.00  0.00    +0.115 C 
ENDBRANCH  10   7
ENDBRANCH  16  12
BRANCH  19  21
ATOM     21  C   UNL     1      -1.043   3.904  25.200  0.00  0.00    +0.138 C 
ATOM     22  C   UNL     1      -0.703   4.608  24.936  0.00  0.00    +0.027 C 
ATOM     23  C   UNL     1      -1.270   5.204  24.997  0.00  0.00    +0.019 C 
ATOM     24  C   UNL     1      -1.962   4.868  25.298  0.00  0.00    +0.073 C 
ATOM     25  N   UNL     1      -1.821   4.064  25.423  0.00  0.00    -0.261 NA
BRANCH  25  26
ATOM     26  C   UNL     1      -2.363   3.518  25.720  0.00  0.00    +0.119 C 
BRANCH  26  27
ATOM     27  C   UNL     1      -3.168   3.612  25.569  0.00  0.00    +0.075 A 
ATOM     28  N   UNL     1      -3.475   3.415  24.829  0.00  0.00    -0.247 NA
ATOM     29  C   UNL     1      -4.281   3.509  24.677  0.00  0.00    +0.098 A 
ATOM     30  C   UNL     1      -4.779   3.799  25.267  0.00  0.00    +0.021 A 
ATOM     31  C   UNL     1      -4.473   3.996  26.007  0.00  0.00    +0.003 A 
ATOM     32  C   UNL     1      -3.668   3.902  26.158  0.00  0.00    +0.016 A 
ENDBRANCH  26  27
ENDBRANCH  25  26
ENDBRANCH  19  21
TORSDOF 5
ENDMDL
MODEL 2
REMARK VINA RESULT:     -11.6      1.322      4.781
REMARK  Name = 
REMARK  5 active torsions:
REMARK  status: ('A' for Active; 'I' for Inactive)
REMARK    1  A    between atoms: N_7  and  C_10
REMARK    2  A    between atoms: C_12  and  C_16
REMARK    3  A    between atoms: C_19  and  C_21
REMARK    4  A    between atoms: N_25  and  C_26
REMARK    5  A    between atoms: C_26  and  C_27
REMARK                            x       y       z     vdW  Elec       q    Type
REMARK                         _______ _______ _______ _____ _____    ______ ____
ROOT
ATOM     16  C   UNL     1      -0.567   2.610  24.912  0.00  0.00    +0.203 A 
ATOM     17  N   UNL     1       0.146   2.535  25.321  0.00  0.00    -0.056 NA
ATOM     18  O   UNL     1       0.530   1.860  25.043  0.00  0.00    -0.336 OA
ATOM     19  C   UNL     1       0.055   1.517  24.462  0.00  0.00    +0.251 A 
ATOM     20  N   UNL     1      -0.623   1.981  24.381  0.00  0.00    -0.190 NA
ENDROOT
BRANCH  16  12
ATOM     10  C   UNL     1      -2.480   3.617  25.208  0.00  0.00    +0.132 A 
ATOM     11  C   UNL     1      -1.922   3.018  25.104  0.00  0.00    +0.037 A 
ATOM     12  C   UNL     1      -1.125   3.209  25.016  0.00  0.00    +0.043 A 
ATOM     13  C   UNL     1      -0.884   3.998  25.031  0.00  0.00    +0.024 A 
ATOM     14  C   UNL     1      -1.442   4.597  25.134  0.00  0.00    +0.100 A 
ATOM     15  N   UNL     1      -2.241   4.406  25.223  0.00  0.00    -0.229 NA
BRANCH  10   7
ATOM      1  C   UNL     1      -6.027   2.318  25.049  0.00  0.00    +0.095 C 
ATOM      2  C   UNL     1      -5.671   2.856  25.564  0.00  0.00    +0.226 C 
ATOM      3  O   UNL     1      -6.113   3.203  26.167  0.00  0.00    -0.275 OA
ATOM      4  N   UNL     1      -4.873   3.046  25.474  0.00  0.00    -0.276 N 
ATOM      5  C   UNL     1      -4.517   3.584  25.989  0.00  0.00    +0.115 C 
ATOM      6  C   UNL     1      -3.720   3.774  25.901  0.00  0.00    +0.114 C 
ATOM      7  N   UNL     1      -3.278   3.426  25.297  0.00  0.00    -0.290 N 
ATOM      8  C   UNL     1      -3.634   2.889  24.782  0.00  0.00    +0.114 C 
ATOM      9  C   UNL     1      -4.431   2.699  24.871  0.00  0.00    +0.115 C 
ENDBRANCH  10   7
ENDBRANCH  16  12
BRANCH  19  21
ATOM     21  C   UNL     1       0.227   0.832  24.037  0.00  0.00    +0.138 C 
ATOM     22  C   UNL     1       0.716   0.783  23.374  0.00  0.00    +0.027 C 
ATOM     23  C   UNL     1       0.731  -0.004  23.126  0.00  0.00    +0.019 C 
ATOM     24  C   UNL     1       0.252  -0.441  23.636  0.00  0.00    +0.073 C 
ATOM     25  N   UNL     1      -0.060   0.076  24.199  0.00  0.00    -0.261 NA
BRANCH  25  26
ATOM     26  C   UNL     1      -0.569  -0.128  24.815  0.00  0.00    +0.119 C 
BRANCH  26  27
ATOM     27  C   UNL     1      -0.986  -0.839  24.788  0.00  0.00    +0.075 A 
ATOM     28  N   UNL     1      -1.728  -0.869  24.428  0.00  0.00    -0.247 NA
ATOM     29  C   UNL     1      -2.145  -1.581  24.401  0.00  0.00    +0.098 A 
ATOM     30  C   UNL     1      -1.820  -2.262  24.733  0.00  0.00    +0.021 A 
ATOM     31  C   UNL     1      -1.078  -2.232  25.093  0.00  0.00    +0.003 A 
ATOM     32  C   UNL     1      -0.661  -1.521  25.120  0.00  0.00    +0.016 A 
ENDBRANCH  26  27
ENDBRANCH  25  26
ENDBRANCH  19  21
TORSDOF 5
ENDMDL
MODEL 3
REMARK VINA RESULT:     -11.5      1.488      5.931
REMARK  Name = 
REMARK  5 active torsions:
REMARK  status: ('A' for Active; 'I' for Inactive)
REMARK    1  A    between atoms: N_7  and  C_10
REMARK    2  A    between atoms: C_12  and  C_16
REMARK    3  A    between atoms: C_19  and  C_21
REMARK    4  A    between atoms: N_25  and  C_26
REMARK    5  A    between atoms: C_26  and  C_27
REMARK                            x       y       z     vdW  Elec       q    Type
REMARK                         _______ _______ _______ _____ _____    ______ ____
ROOT
ATOM     16  C   UNL     1      -4.354   0.585  25.094  0.00  0.00    +0.203 A 
ATOM     17  N   UNL     1      -4.638   0.171  25.749  0.00  0.00    -0.056 NA
ATOM     18  O   UNL     1      -4.402  -0.617  25.674  0.00  0.00    -0.336 OA
ATOM     19  C   UNL     1      -3.974  -0.689  24.973  0.00  0.00    +0.251 A 
ATOM     20  N   UNL     1      -3.944   0.054  24.615  0.00  0.00    -0.190 NA
ENDROOT
BRANCH  16  12
ATOM     10  C   UNL     1      -3.931   2.711  24.844  0.00  0.00    +0.132 A 
ATOM     11  C   UNL     1      -3.823   1.907  24.994  0.00  0.00    +0.037 A 
ATOM     12  C   UNL     1      -4.462   1.389  24.945  0.00  0.00    +0.043 A 
ATOM     13  C   UNL     1      -5.211   1.674  24.747  0.00  0.00    +0.024 A 
ATOM     14  C   UNL     1      -5.319   2.479  24.598  0.00  0.00    +0.100 A 
ATOM     15  N   UNL     1      -4.678   2.997  24.647  0.00  0.00    -0.229 NA
BRANCH  10   7
ATOM      1  C   UNL     1      -0.640   4.569  24.723  0.00  0.00    +0.095 C 
ATOM      2  C   UNL     1      -1.371   4.785  25.039  0.00  0.00    +0.226 C 
ATOM      3  O   UNL     1      -1.462   5.518  25.404  0.00  0.00    -0.275 OA
ATOM      4  N   UNL     1      -2.011   4.266  24.990  0.00  0.00    -0.276 N 
ATOM      5  C   UNL     1      -2.741   4.482  25.307  0.00  0.00    +0.115 C 
ATOM      6  C   UNL     1      -3.382   3.964  25.258  0.00  0.00    +0.114 C 
ATOM      7  N   UNL     1      -3.290   3.230  24.893  0.00  0.00    -0.290 N 
ATOM      8  C   UNL     1      -2.559   3.014  24.577  0.00  0.00    +0.114 C 
ATOM      9  C   UNL     1      -1.920   3.532  24.626  0.00  0.00    +0.115 C 
ENDBRANCH  10   7
ENDBRANCH  16  12
BRANCH  19  21
ATOM     21  C   UNL     1      -3.635  -1.382  24.681  0.00  0.00    +0.138 C 
ATOM     22  C   UNL     1      -4.015  -1.951  24.220  0.00  0.00    +0.027 C 
ATOM     23  C   UNL     1      -3.471  -2.548  24.052  0.00  0.00    +0.019 C 
ATOM     24  C   UNL     1      -2.755  -2.349  24.411  0.00  0.00    +0.073 C 
ATOM     25  N   UNL     1      -2.856  -1.628  24.800  0.00  0.00    -0.261 NA
BRANCH  25  26
ATOM     26  C   UNL     1      -2.280  -1.225  25.231  0.00  0.00    +0.119 C 
BRANCH  26  27
ATOM     27  C   UNL     1      -1.488  -1.277  25.010  0.00  0.00    +0.075 A 
ATOM     28  N   UNL     1      -1.183  -0.764  24.440  0.00  0.00    -0.247 NA
ATOM     29  C   UNL     1      -0.390  -0.816  24.219  0.00  0.00    +0.098 A 
ATOM     30  C   UNL     1       0.099  -1.382  24.568  0.00  0.00    +0.021 A 
ATOM     31  C   UNL     1      -0.205  -1.895  25.138  0.00  0.00    +0.003 A 
ATOM     32  C   UNL     1      -0.998  -1.842  25.359  0.00  0.00    +0.016 A 
ENDBRANCH  26  27
ENDBRANCH  25  26
ENDBRANCH  19  21
TORSDOF 5
ENDMDL
MODEL 4
REMARK VINA RESULT:     -11.5      1.607      3.558
REMARK  Name = 
REMARK  5 active torsions:
REMARK  status: ('A' for Active; 'I' for Inactive)
REMARK    1  A    between atoms: N_7  and  C_10
REMARK    2  A    between atoms: C_12  and  C_16
REMARK    3  A    between atoms: C_19  and  C_21
REMARK    4  A    between atoms: N_25  and  C_26
REMARK    5  A    between atoms: C_26  and  C_27
REMARK                            x       y       z     vdW  Elec       q    Type
REMARK                         _______ _______ _______ _____ _____    ______ ____
ROOT
ATOM     16  C   UNL     1      -4.092   2.861  24.689  0.00  0.00    +0.203 A 
ATOM     17  N   UNL     1      -4.253   3.463  24.148  0.00  0.00    -0.056 NA
ATOM     18  O   UNL     1      -3.621   3.993  24.161  0.00  0.00    -0.336 OA
ATOM     19  C   UNL     1      -3.070   3.719  24.710  0.00  0.00    +0.251 A 
ATOM     20  N   UNL     1      -3.361   3.019  25.036  0.00  0.00    -0.190 NA
ENDROOT
BRANCH  16  12
ATOM     10  C   UNL     1      -4.763   0.802  24.959  0.00  0.00    +0.132 A 
ATOM     11  C   UNL     1      -4.277   1.448  24.795  0.00  0.00    +0.037 A 
ATOM     12  C   UNL     1      -4.577   2.214  24.853  0.00  0.00    +0.043 A 
ATOM     13  C   UNL     1      -5.363   2.334  25.076  0.00  0.00    +0.024 A 
ATOM     14  C   UNL     1      -5.848   1.688  25.240  0.00  0.00    +0.100 A 
ATOM     15  N   UNL     1      -5.548   0.921  25.182  0.00  0.00    -0.229 NA
BRANCH  10   7
ATOM      1  C   UNL     1      -3.669  -2.697  24.034  0.00  0.00    +0.095 C 
ATOM      2  C   UNL     1      -3.562  -2.264  24.728  0.00  0.00    +0.226 C 
ATOM      3  O   UNL     1      -3.156  -2.597  25.363  0.00  0.00    -0.275 OA
ATOM      4  N   UNL     1      -3.863  -1.497  24.785  0.00  0.00    -0.276 N 
ATOM      5  C   UNL     1      -3.756  -1.064  25.479  0.00  0.00    +0.115 C 
ATOM      6  C   UNL     1      -4.056  -0.298  25.538  0.00  0.00    +0.114 C 
ATOM      7  N   UNL     1      -4.462   0.035  24.901  0.00  0.00    -0.290 N 
ATOM      8  C   UNL     1      -4.569  -0.399  24.207  0.00  0.00    +0.114 C 
ATOM      9  C   UNL     1      -4.269  -1.164  24.150  0.00  0.00    +0.115 C 
ENDBRANCH  10   7
ENDBRANCH  16  12
BRANCH  19  21
ATOM     21  C   UNL     1      -2.353   4.081  24.900  0.00  0.00    +0.138 C 
ATOM     22  C   UNL     1      -2.263   4.802  25.291  0.00  0.00    +0.027 C 
ATOM     23  C   UNL     1      -1.455   4.952  25.365  0.00  0.00    +0.019 C 
ATOM     24  C   UNL     1      -1.046   4.324  25.020  0.00  0.00    +0.073 C 
ATOM     25  N   UNL     1      -1.601   3.785  24.733  0.00  0.00    -0.261 NA
BRANCH  25  26
ATOM     26  C   UNL     1      -1.434   3.076  24.347  0.00  0.00    +0.119 C 
BRANCH  26  27
ATOM     27  C   UNL     1      -0.747   2.658  24.530  0.00  0.00    +0.075 A 
ATOM     28  N   UNL     1      -0.693   2.244  25.241  0.00  0.00    -0.247 NA
ATOM     29  C   UNL     1      -0.005   1.827  25.425  0.00  0.00    +0.098 A 
ATOM     30  C   UNL     1       0.629   1.823  24.896  0.00  0.00    +0.021 A 
ATOM     31  C   UNL     1       0.574   2.237  24.185  0.00  0.00    +0.003 A 
ATOM     32  C   UNL     1      -0.113   2.655  24.001  0.00  0.00    +0.016 A 
ENDBRANCH  26  27
ENDBRANCH  25  26
ENDBRANCH  19  21
TORSDOF 5
ENDMDL
MODEL 5
REMARK VINA RESULT:      -9.9      1.896      4.249
REMARK  Name = 
REMARK  5 active torsions:
REMARK  status: ('A' for Active; 'I' for Inactive)
REMARK    1  A    between atoms: N_7  and  C_10
REMARK    2  A    between atoms: C_12  and  C_16
REMARK    3  A    between atoms: C_19  and  C_21
REMARK    4  A    between atoms: N_25  and  C_26
REMARK    5  A    between atoms: C_26  and  C_27
REMARK                            x       y       z     vdW  Elec       q    Type
REMARK                         _______ _______ _______ _____ _____    ______ ____
ROOT
ATOM     16  C   UNL     1      -2.973   3.253  24.885  0.00  0.00    +0.203 A 
ATOM     17  N   UNL     1      -3.520   3.810  24.616  0.00  0.00    -0.056 NA
ATOM     18  O   UNL     1      -4.275   3.488  24.704  0.00  0.00    -0.336 OA
ATOM     19  C   UNL     1      -4.195   2.734  25.027  0.00  0.00    +0.251 A 
ATOM     20  N   UNL     1      -3.390   2.589  25.139  0.00  0.00    -0.190 NA
ENDROOT
BRANCH  16  12
ATOM     10  C   UNL     1      -0.847   2.848  24.605  0.00  0.00    +0.132 A 
ATOM     11  C   UNL     1      -1.667   2.755  24.593  0.00  0.00    +0.037 A 
ATOM     12  C   UNL     1      -2.153   3.346  24.898  0.00  0.00    +0.043 A 
ATOM     13  C   UNL     1      -1.821   4.032  25.215  0.00  0.00    +0.024 A 
ATOM     14  C   UNL     1      -1.002   4.125  25.228  0.00  0.00    +0.100 A 
ATOM     15  N   UNL     1      -0.514   3.532  24.923  0.00  0.00    -0.229 NA
BRANCH  10   7
ATOM      1  C   UNL     1       0.786  -0.259  23.201  0.00  0.00    +0.095 C 
ATOM      2  C   UNL     1       1.102   0.480  23.386  0.00  0.00    +0.226 C 
ATOM      3  O   UNL     1       1.904   0.628  23.267  0.00  0.00    -0.275 OA
ATOM      4  N   UNL     1       0.614   1.072  23.691  0.00  0.00    -0.276 N 
ATOM      5  C   UNL     1       0.930   1.811  23.877  0.00  0.00    +0.115 C 
ATOM      6  C   UNL     1       0.443   2.403  24.181  0.00  0.00    +0.114 C 
ATOM      7  N   UNL     1      -0.360   2.255  24.300  0.00  0.00    -0.290 N 
ATOM      8  C   UNL     1      -0.675   1.516  24.115  0.00  0.00    +0.114 C 
ATOM      9  C   UNL     1      -0.188   0.925  23.810  0.00  0.00    +0.115 C 
ENDBRANCH  10   7
ENDBRANCH  16  12
BRANCH  19  21
ATOM     21  C   UNL     1      -4.810   2.215  25.208  0.00  0.00    +0.138 C 
ATOM     22  C   UNL     1      -5.488   2.399  25.641  0.00  0.00    +0.027 C 
ATOM     23  C   UNL     1      -5.953   1.719  25.687  0.00  0.00    +0.019 C 
ATOM     24  C   UNL     1      -5.562   1.114  25.284  0.00  0.00    +0.073 C 
ATOM     25  N   UNL     1      -4.856   1.421  24.987  0.00  0.00    -0.261 NA
BRANCH  25  26
ATOM     26  C   UNL     1      -4.294   1.007  24.547  0.00  0.00    +0.119 C 
BRANCH  26  27
ATOM     27  C   UNL     1      -4.204   0.194  24.654  0.00  0.00    +0.075 A 
ATOM     28  N   UNL     1      -3.877  -0.097  25.353  0.00  0.00    -0.247 NA
ATOM     29  C   UNL     1      -3.787  -0.911  25.459  0.00  0.00    +0.098 A 
ATOM     30  C   UNL     1      -4.025  -1.432  24.866  0.00  0.00    +0.021 A 
ATOM     31  C   UNL     1      -4.352  -1.141  24.167  0.00  0.00    +0.003 A 
ATOM     32  C   UNL     1      -4.442  -0.329  24.061  0.00  0.00    +0.016 A 
ENDBRANCH  26  27
ENDBRANCH  25  26
ENDBRANCH  19  21
TORSDOF 5
ENDMDL
MODEL 6
REMARK VINA RESULT:      -9.8      1.638      3.748
REMARK  Name = 
REMARK  5 active torsions:
REMARK  status: ('A' for Active; 'I' for Inactive)
REMARK    1  A    between atoms: N_7  and  C_10
REMARK    2  A    between atoms: C_12  and  C_16
REMARK    3  A    between atoms: C_19  and  C_21
REMARK    4  A    between atoms: N_25  and  C_26
REMARK    5  A    between atoms: C_26  and  C_27
REMARK                            x       y       z     vdW  Elec       q    Type
REMARK                         _______ _______ _______ _____ _____    ______ ____
ROOT
ATOM     16  C   UNL     1      -3.658  -0.212  24.772  0.00  0.00    +0.203 A 
ATOM     17  N   UNL     1      -4.305  -0.412  24.300  0.00  0.00    -0.056 NA
ATOM     18  O   UNL     1      -4.884   0.167  24.403  0.00  0.00    -0.336 OA
ATOM     19  C   UNL     1      -4.596   0.724  24.939  0.00  0.00    +0.251 A 
ATOM     20  N   UNL     1      -3.838   0.490  25.167  0.00  0.00    -0.190 NA
ENDROOT
BRANCH  16  12
ATOM     10  C   UNL     1      -1.555  -0.764  24.586  0.00  0.00    +0.132 A 
ATOM     11  C   UNL     1      -2.258  -0.336  24.520  0.00  0.00    +0.037 A 
ATOM     12  C   UNL     1      -2.955  -0.639  24.838  0.00  0.00    +0.043 A 
ATOM     13  C   UNL     1      -2.952  -1.370  25.222  0.00  0.00    +0.024 A 
ATOM     14  C   UNL     1      -2.249  -1.797  25.287  0.00  0.00    +0.100 A 
ATOM     15  N   UNL     1      -1.550  -1.494  24.969  0.00  0.00    -0.229 NA
BRANCH  10   7
ATOM      1  C   UNL     1       1.687  -0.007  22.794  0.00  0.00    +0.095 C 
ATOM      2  C   UNL     1       1.238   0.449  23.314  0.00  0.00    +0.226 C 
ATOM      3  O   UNL     1       1.488   1.208  23.517  0.00  0.00    -0.275 OA
ATOM      4  N   UNL     1       0.540   0.145  23.632  0.00  0.00    -0.276 N 
ATOM      5  C   UNL     1       0.091   0.602  24.152  0.00  0.00    +0.115 C 
ATOM      6  C   UNL     1      -0.607   0.299  24.470  0.00  0.00    +0.114 C 
ATOM      7  N   UNL     1      -0.856  -0.460  24.267  0.00  0.00    -0.290 N 
ATOM      8  C   UNL     1      -0.407  -0.917  23.747  0.00  0.00    +0.114 C 
ATOM      9  C   UNL     1       0.290  -0.614  23.429  0.00  0.00    +0.115 C 
ENDBRANCH  10   7
ENDBRANCH  16  12
BRANCH  19  21
ATOM     21  C   UNL     1      -4.994   1.397  25.201  0.00  0.00    +0.138 C 
ATOM     22  C   UNL     1      -5.691   1.407  25.643  0.00  0.00    +0.027 C 
ATOM     23  C   UNL     1      -5.893   2.194  25.782  0.00  0.00    +0.019 C 
ATOM     24  C   UNL     1      -5.322   2.671  25.426  0.00  0.00    +0.073 C 
ATOM     25  N   UNL     1      -4.766   2.178  25.067  0.00  0.00    -0.261 NA
BRANCH  25  26
ATOM     26  C   UNL     1      -4.100   2.424  24.647  0.00  0.00    +0.119 C 
BRANCH  26  27
ATOM     27  C   UNL     1      -3.731   3.136  24.839  0.00  0.00    +0.075 A 
ATOM     28  N   UNL     1      -3.238   3.181  25.498  0.00  0.00    -0.247 NA
ATOM     29  C   UNL     1      -2.869   3.894  25.691  0.00  0.00    +0.098 A 
ATOM     30  C   UNL     1      -2.993   4.562  25.222  0.00  0.00    +0.021 A 
ATOM     31  C   UNL     1      -3.487   4.517  24.563  0.00  0.00    +0.003 A 
ATOM     32  C   UNL     1      -3.855   3.805  24.371  0.00  0.00    +0.016 A 
ENDBRANCH  26  27
ENDBRANCH  25  26
ENDBRANCH  19  21
TORSDOF 5
ENDMDL
MODEL 7
REMARK VINA RESULT:      -9.6      1.947      3.488
REMARK  Name = 
REMARK  5 active torsions:
REMARK  status: ('A' for Active; 'I' for Inactive)
REMARK    1  A    between atoms: N_7  and  C_10
REMARK    2  A    between atoms: C_12  and  C_16
REMARK    3  A    between atoms: C_19  and  C_21
REMARK    4  A    between atoms: N_25  and  C_26
REMARK    5  A    between atoms: C_26  and  C_27
REMARK                            x       y       z     vdW  Elec       q    Type
REMARK                         _______ _______ _______ _____ _____    ______ ____
ROOT
ATOM     16  C   UNL     1      -1.431   1.547  24.052  0.00  0.00    +0.203 A 
ATOM     17  N   UNL     1      -1.730   1.976  23.413  0.00  0.00    -0.056 NA
ATOM     18  O   UNL     1      -2.175   2.602  23.713  0.00  0.00    -0.336 OA
ATOM     19  C   UNL     1      -2.152   2.561  24.536  0.00  0.00    +0.251 A 
ATOM     20  N   UNL     1      -1.692   1.908  24.746  0.00  0.00    -0.190 NA
ENDROOT
BRANCH  16  12
ATOM     10  C   UNL     1       0.276   0.254  23.633  0.00  0.00    +0.132 A 
ATOM     11  C   UNL     1      -0.199   0.926  23.681  0.00  0.00    +0.037 A 
ATOM     12  C   UNL     1      -0.956   0.874  24.005  0.00  0.00    +0.043 A 
ATOM     13  C   UNL     1      -1.237   0.150  24.282  0.00  0.00    +0.024 A 
ATOM     14  C   UNL     1      -0.762  -0.523  24.235  0.00  0.00    +0.100 A 
ATOM     15  N   UNL     1      -0.004  -0.471  23.910  0.00  0.00    -0.229 NA
BRANCH  10   7
ATOM      1  C   UNL     1       3.873   0.939  22.692  0.00  0.00    +0.095 C 
ATOM      2  C   UNL     1       3.303   0.462  22.335  0.00  0.00    +0.226 C 
ATOM      3  O   UNL     1       3.490   0.036  21.654  0.00  0.00    -0.275 OA
ATOM      4  N   UNL     1       2.546   0.410  22.660  0.00  0.00    -0.276 N 
ATOM      5  C   UNL     1       1.976  -0.068  22.303  0.00  0.00    +0.115 C 
ATOM      6  C   UNL     1       1.220  -0.120  22.627  0.00  0.00    +0.114 C 
ATOM      7  N   UNL     1       1.034   0.306  23.309  0.00  0.00    -0.290 N 
ATOM      8  C   UNL     1       1.604   0.784  23.665  0.00  0.00    +0.114 C 
ATOM      9  C   UNL     1       2.360   0.836  23.341  0.00  0.00    +0.115 C 
ENDBRANCH  10   7
ENDBRANCH  16  12
BRANCH  19  21
ATOM     21  C   UNL     1      -2.523   3.080  25.059  0.00  0.00    +0.138 C 
ATOM     22  C   UNL     1      -2.145   3.593  25.583  0.00  0.00    +0.027 C 
ATOM     23  C   UNL     1      -2.725   4.007  25.998  0.00  0.00    +0.019 C 
ATOM     24  C   UNL     1      -3.463   3.751  25.730  0.00  0.00    +0.073 C 
ATOM     25  N   UNL     1      -3.337   3.177  25.149  0.00  0.00    -0.261 NA
BRANCH  25  26
ATOM     26  C   UNL     1      -3.924   2.773  24.733  0.00  0.00    +0.119 C 
BRANCH  26  27
ATOM     27  C   UNL     1      -4.643   2.599  25.097  0.00  0.00    +0.075 A 
ATOM     28  N   UNL     1      -4.808   1.827  25.337  0.00  0.00    -0.247 NA
ATOM     29  C   UNL     1      -5.527   1.653  25.701  0.00  0.00    +0.098 A 
ATOM     30  C   UNL     1      -6.082   2.251  25.826  0.00  0.00    +0.021 A 
ATOM     31  C   UNL     1      -5.916   3.023  25.587  0.00  0.00    +0.003 A 
ATOM     32  C   UNL     1      -5.198   3.197  25.223  0.00  0.00    +0.016 A 
ENDBRANCH  26  27
ENDBRANCH  25  26
ENDBRANCH  19  21
TORSDOF 5
ENDMDL
MODEL 8
REMARK VINA RESULT:      -8.1     15.525     17.473
REMARK  Name = 
REMARK  5 active torsions:
REMARK  status: ('A' for Active; 'I' for Inactive)
REMARK    1  A    between atoms: N_7  and  C_10
REMARK    2  A    between atoms: C_12  and  C_16
REMARK    3  A    between atoms: C_19  and  C_21
REMARK    4  A    between atoms: N_25  and  C_26
REMARK    5  A    between atoms: C_26  and  C_27
REMARK                            x       y       z     vdW  Elec       q    Type
REMARK                         _______ _______ _______ _____ _____    ______ ____
ROOT
ATOM     16  C   UNL     1      14.364   8.106  18.810  0.00  0.00    +0.203 A 
ATOM     17  N   UNL     1      14.846   8.773  18.737  0.00  0.00    -0.056 NA
ATOM     18  O   UNL     1      14.811   9.027  17.953  0.00  0.00    -0.336 OA
ATOM     19  C   UNL     1      14.310   8.518  17.541  0.00  0.00    +0.251 A 
ATOM     20  N   UNL     1      14.033   7.949  18.071  0.00  0.00    -0.190 NA
ENDROOT
BRANCH  16  12
ATOM     10  C   UNL     1      13.420   7.354  20.627  0.00  0.00    +0.132 A 
ATOM     11  C   UNL     1      13.547   7.787  19.937  0.00  0.00    +0.037 A 
ATOM     12  C   UNL     1      14.237   7.673  19.501  0.00  0.00    +0.043 A 
ATOM     13  C   UNL     1      14.801   7.127  19.754  0.00  0.00    +0.024 A 
ATOM     14  C   UNL     1      14.674   6.694  20.445  0.00  0.00    +0.100 A 
ATOM     15  N   UNL     1      13.983   6.808  20.882  0.00  0.00    -0.229 NA
BRANCH  10   7
ATOM      1  C   UNL     1      10.613   8.416  22.927  0.00  0.00    +0.095 C 
ATOM      2  C   UNL     1      10.656   7.806  22.374  0.00  0.00    +0.226 C 
ATOM      3  O   UNL     1      10.008   7.310  22.256  0.00  0.00    -0.275 OA
ATOM      4  N   UNL     1      11.347   7.694  21.937  0.00  0.00    -0.276 N 
ATOM      5  C   UNL     1      11.390   7.084  21.383  0.00  0.00    +0.115 C 
ATOM      6  C   UNL     1      12.081   6.970  20.946  0.00  0.00    +0.114 C 
ATOM      7  N   UNL     1      12.728   7.467  21.064  0.00  0.00    -0.290 N 
ATOM      8  C   UNL     1      12.686   8.077  21.618  0.00  0.00    +0.114 C 
ATOM      9  C   UNL     1      11.995   8.190  22.054  0.00  0.00    +0.115 C 
ENDBRANCH  10   7
ENDBRANCH  16  12
BRANCH  19  21
ATOM     21  C   UNL     1      14.117   8.569  16.741  0.00  0.00    +0.138 C 
ATOM     22  C   UNL     1      14.610   8.365  16.110  0.00  0.00    +0.027 C 
ATOM     23  C   UNL     1      14.196   8.502  15.410  0.00  0.00    +0.019 C 
ATOM     24  C   UNL     1      13.448   8.790  15.607  0.00  0.00    +0.073 C 
ATOM     25  N   UNL     1      13.400   8.831  16.430  0.00  0.00    -0.261 NA
BRANCH  25  26
ATOM     26  C   UNL     1      12.748   9.089  16.864  0.00  0.00    +0.119 C 
BRANCH  26  27
ATOM     27  C   UNL     1      11.985   8.967  16.577  0.00  0.00    +0.075 A 
ATOM     28  N   UNL     1      11.820   9.094  15.779  0.00  0.00    -0.247 NA
ATOM     29  C   UNL     1      11.056   8.971  15.491  0.00  0.00    +0.098 A 
ATOM     30  C   UNL     1      10.458   8.721  16.002  0.00  0.00    +0.021 A 
ATOM     31  C   UNL     1      10.624   8.594  16.799  0.00  0.00    +0.003 A 
ATOM     32  C   UNL     1      11.387   8.717  17.087  0.00  0.00    +0.016 A 
ENDBRANCH  26  27
ENDBRANCH  25  26
ENDBRANCH  19  21
TORSDOF 5
ENDMDL
