MODEL 1
REMARK VINA RESULT:     -11.5      0.000      0.000
REMARK  Name = 
REMARK  7 active torsions:
REMARK  status: ('A' for Active; 'I' for Inactive)
REMARK    1  A    between atoms: C_2  and  C_4
REMARK    2  A    between atoms: C_4  and  C_5
REMARK    3  A    between atoms: C_4  and  N_15
REMARK    4  A    between atoms: C_5  and  C_6
REMARK    5  A    between atoms: C_16  and  C_18
REMARK    6  A    between atoms: C_24  and  C_26
REMARK    7  A    between atoms: C_32  and  C_34
REMARK                            x       y       z     vdW  Elec       q    Type
REMARK                         _______ _______ _______ _____ _____    ______ ____
ROOT
ATOM     18  C   UNL     1      -1.429   1.013  24.475  0.00  0.00    +0.174 C 
ATOM     19  C   UNL     1      -1.020   0.391  24.119  0.00  0.00    +0.123 C 
ATOM     20  N   UNL     1      -0.264   0.515  23.814  0.00  0.00    -0.276 N 
ATOM     21  C   UNL     1       0.084   1.261  23.864  0.00  0.00    +0.115 C 
ATOM     22  C   UNL     1      -0.325   1.884  24.219  0.00  0.00    +0.115 C 
ATOM     23  N   UNL     1      -1.080   1.760  24.525  0.00  0.00    -0.270 N 
ATOM     24  C   UNL     1      -1.489   2.383  24.880  0.00  0.00    +0.226 C 
ATOM     25  O   UNL     1      -2.246   2.259  25.185  0.00  0.00    -0.275 OA
ATOM     32  C   UNL     1       0.145  -0.108  23.459  0.00  0.00    +0.225 C 
ATOM     33  O   UNL     1      -0.203  -0.854  23.409  0.00  0.00    -0.275 OA
ENDROOT
BRANCH  24  26
ATOM     26  C   UNL     1      -1.141   3.129  24.930  0.00  0.00    +0.077 C 
ATOM     27  C   UNL     1      -1.309   3.702  24.360  0.00  0.00    +0.009 C 
ATOM     28  C   UNL     1      -0.961   4.448  24.410  0.00  0.00    +0.000 C 
ATOM     29  C   UNL     1      -0.446   4.622  25.030  0.00  0.00    +0.000 C 
ATOM     30  C   UNL     1      -0.278   4.050  25.600  0.00  0.00    +0.000 C 
ATOM     31  C   UNL     1      -0.626   3.303  25.550  0.00  0.00    +0.009 C 
ENDBRANCH  24  26
BRANCH  32  34
ATOM     34  C   UNL     1       0.901   0.016  23.154  0.00  0.00    +0.080 C 
ATOM     35  C   UNL     1       1.515   0.245  23.655  0.00  0.00    +0.028 C 
ATOM     36  C   UNL     1       2.272   0.369  23.349  0.00  0.00    +0.089 C 
ATOM     37  N   UNL     1       2.414   0.264  22.543  0.00  0.00    -0.218 NA
ATOM     38  C   UNL     1       1.799   0.036  22.043  0.00  0.00    +0.089 C 
ATOM     39  C   UNL     1       1.043  -0.088  22.348  0.00  0.00    +0.028 C 
ENDBRANCH  32  34
BRANCH  18  16
ATOM     15  N   UNL     1      -2.789   0.616  24.289  0.00  0.00    -0.196 NA
ATOM     16  C   UNL     1      -2.185   0.890  24.780  0.00  0.00    +0.262 C 
ATOM     17  O   UNL     1      -2.338   1.040  25.576  0.00  0.00    -0.271 OA
BRANCH  15   4
ATOM      4  C   UNL     1      -3.545   0.493  24.594  0.00  0.00    +0.179 C 
BRANCH   4   2
ATOM      1  N   UNL     1      -4.602   1.277  25.150  0.00  0.00    -0.086 NA
ATOM      2  C   UNL     1      -4.123   1.076  24.511  0.00  0.00    +0.281 C 
ATOM      3  O   UNL     1      -4.221   1.458  23.785  0.00  0.00    -0.270 OA
ENDBRANCH   4   2
BRANCH   4   5
ATOM      5  C   UNL     1      -3.724  -0.213  24.982  0.00  0.00    +0.059 C 
BRANCH   5   6
ATOM      6  C   UNL     1      -3.906  -0.889  24.547  0.00  0.00    +0.001 A 
ATOM      7  C   UNL     1      -4.302  -0.908  23.823  0.00  0.00    +0.095 A 
ATOM      8  N   UNL     1      -4.365  -1.696  23.588  0.00  0.00    -0.244 NA
ATOM      9  C   UNL     1      -4.008  -2.164  24.165  0.00  0.00    +0.081 A 
ATOM     10  C   UNL     1      -3.724  -1.665  24.757  0.00  0.00    +0.015 A 
ATOM     11  C   UNL     1      -3.336  -1.983  25.413  0.00  0.00    +0.001 A 
ATOM     12  C   UNL     1      -3.232  -2.799  25.475  0.00  0.00    +0.000 A 
ATOM     13  C   UNL     1      -3.516  -3.297  24.882  0.00  0.00    +0.002 A 
ATOM     14  C   UNL     1      -3.904  -2.980  24.227  0.00  0.00    +0.019 A 
ENDBRANCH   5   6
ENDBRANCH   4   5
ENDBRANCH  15   4
ENDBRANCH  18  16
TORSDOF 7
ENDMDL
MODEL 2
REMARK VINA RESULT:     -11.4      1.458      5.995
REMARK  Name = 
REMARK  7 active torsions:
REMARK  status: ('A' for Active; 'I' for Inactive)
REMARK    1  A    between atoms: C_2  and  C_4
REMARK    2  A    between atoms: C_4  and  C_5
REMARK    3  A    between atoms: C_4  and  N_15
REMARK    4  A    between atoms: C_5  and  C_6
REMARK    5  A    between atoms: C_16  and  C_18
REMARK    6  A    between atoms: C_24  and  C_26
REMARK    7  A    between atoms: C_32  and  C_34
REMARK                            x       y       z     vdW  Elec       q    Type
REMARK                         _______ _______ _______ _____ _____    ______ ____
ROOT
ATOM     18  C   UNL     1      -2.967   0.646  24.551  0.00  0.00    +0.174 C 
ATOM     19  C   UNL     1      -3.370   1.335  24.761  0.00  0.00    +0.123 C 
ATOM     20  N   UNL     1      -4.173   1.304  24.947  0.00  0.00    -0.276 N 
ATOM     21  C   UNL     1      -4.574   0.583  24.923  0.00  0.00    +0.115 C 
ATOM     22  C   UNL     1      -4.172  -0.106  24.713  0.00  0.00    +0.115 C 
ATOM     23  N   UNL     1      -3.369  -0.075  24.527  0.00  0.00    -0.270 N 
ATOM     24  C   UNL     1      -2.967  -0.764  24.317  0.00  0.00    +0.226 C 
ATOM     25  O   UNL     1      -2.163  -0.732  24.131  0.00  0.00    -0.275 OA
ATOM     32  C   UNL     1      -4.575   1.993  25.156  0.00  0.00    +0.225 C 
ATOM     33  O   UNL     1      -4.174   2.713  25.180  0.00  0.00    -0.275 OA
ENDROOT
BRANCH  24  26
ATOM     26  C   UNL     1      -3.368  -1.484  24.293  0.00  0.00    +0.077 C 
ATOM     27  C   UNL     1      -3.247  -2.044  24.888  0.00  0.00    +0.009 C 
ATOM     28  C   UNL     1      -3.648  -2.764  24.864  0.00  0.00    +0.000 C 
ATOM     29  C   UNL     1      -4.170  -2.925  24.245  0.00  0.00    +0.000 C 
ATOM     30  C   UNL     1      -4.290  -2.367  23.651  0.00  0.00    +0.000 C 
ATOM     31  C   UNL     1      -3.889  -1.646  23.675  0.00  0.00    +0.009 C 
ENDBRANCH  24  26
BRANCH  32  34
ATOM     34  C   UNL     1      -5.378   1.961  25.342  0.00  0.00    +0.080 C 
ATOM     35  C   UNL     1      -5.618   1.939  26.131  0.00  0.00    +0.028 C 
ATOM     36  C   UNL     1      -6.422   1.908  26.317  0.00  0.00    +0.089 C 
ATOM     37  N   UNL     1      -6.984   1.899  25.714  0.00  0.00    -0.218 NA
ATOM     38  C   UNL     1      -6.744   1.921  24.926  0.00  0.00    +0.089 C 
ATOM     39  C   UNL     1      -5.941   1.952  24.739  0.00  0.00    +0.028 C 
ENDBRANCH  32  34
BRANCH  18  16
ATOM     15  N   UNL     1      -1.619   0.930  24.930  0.00  0.00    -0.196 NA
ATOM     16  C   UNL     1      -2.165   0.677  24.365  0.00  0.00    +0.262 C 
ATOM     17  O   UNL     1      -1.907   0.456  23.613  0.00  0.00    -0.271 OA
BRANCH  15   4
ATOM      4  C   UNL     1      -0.817   0.961  24.744  0.00  0.00    +0.179 C 
BRANCH   4   2
ATOM      1  N   UNL     1       0.146   0.041  24.224  0.00  0.00    -0.086 NA
ATOM      2  C   UNL     1      -0.346   0.289  24.837  0.00  0.00    +0.281 C 
ATOM      3  O   UNL     1      -0.368  -0.134  25.546  0.00  0.00    -0.270 OA
ENDBRANCH   4   2
BRANCH   4   5
ATOM      5  C   UNL     1      -0.484   1.663  24.465  0.00  0.00    +0.059 C 
BRANCH   5   6
ATOM      6  C   UNL     1      -0.396   2.307  24.971  0.00  0.00    +0.001 A 
ATOM      7  C   UNL     1      -0.194   2.273  25.771  0.00  0.00    +0.095 A 
ATOM      8  N   UNL     1      -0.168   3.044  26.061  0.00  0.00    -0.244 NA
ATOM      9  C   UNL     1      -0.354   3.556  25.442  0.00  0.00    +0.081 A 
ATOM     10  C   UNL     1      -0.495   3.100  24.768  0.00  0.00    +0.015 A 
ATOM     11  C   UNL     1      -0.695   3.468  24.057  0.00  0.00    +0.001 A 
ATOM     12  C   UNL     1      -0.754   4.289  24.019  0.00  0.00    +0.000 A 
ATOM     13  C   UNL     1      -0.613   4.744  24.692  0.00  0.00    +0.002 A 
ATOM     14  C   UNL     1      -0.413   4.378  25.404  0.00  0.00    +0.019 A 
ENDBRANCH   5   6
ENDBRANCH   4   5
ENDBRANCH  15   4
ENDBRANCH  18  16
TORSDOF 7
ENDMDL
MODEL 3
REMARK VINA RESULT:     -11.2      1.443      4.452
REMARK  Name = 
REMARK  7 active torsions:
REMARK  status: ('A' for Active; 'I' for Inactive)
REMARK    1  A    between atoms: C_2  and  C_4
REMARK    2  A    between atoms: C_4  and  C_5
REMARK    3  A    between atoms: C_4  and  N_15
REMARK    4  A    between atoms: C_5  and  C_6
REMARK    5  A    between atoms: C_16  and  C_18
REMARK    6  A    between atoms: C_24  and  C_26
REMARK    7  A    between atoms: C_32  and  C_34
REMARK                            x       y       z     vdW  Elec       q    Type
REMARK                         _______ _______ _______ _____ _____    ______ ____
ROOT
ATOM     18  C   UNL     1      -2.769   0.519  24.667  0.00  0.00    +0.174 C 
ATOM     19  C   UNL     1      -2.053   0.881  24.472  0.00  0.00    +0.123 C 
ATOM     20  N   UNL     1      -1.434   0.432  24.163  0.00  0.00    -0.276 N 
ATOM     21  C   UNL     1      -1.530  -0.379  24.048  0.00  0.00    +0.115 C 
ATOM     22  C   UNL     1      -2.246  -0.741  24.242  0.00  0.00    +0.115 C 
ATOM     23  N   UNL     1      -2.865  -0.293  24.551  0.00  0.00    -0.270 N 
ATOM     24  C   UNL     1      -3.580  -0.655  24.746  0.00  0.00    +0.226 C 
ATOM     25  O   UNL     1      -4.200  -0.205  25.055  0.00  0.00    -0.275 OA
ATOM     32  C   UNL     1      -0.719   0.794  23.969  0.00  0.00    +0.225 C 
ATOM     33  O   UNL     1      -0.623   1.606  24.084  0.00  0.00    -0.275 OA
ENDROOT
BRANCH  24  26
ATOM     26  C   UNL     1      -3.676  -1.466  24.631  0.00  0.00    +0.077 C 
ATOM     27  C   UNL     1      -3.392  -1.999  25.193  0.00  0.00    +0.009 C 
ATOM     28  C   UNL     1      -3.488  -2.810  25.078  0.00  0.00    +0.000 C 
ATOM     29  C   UNL     1      -3.869  -3.088  24.401  0.00  0.00    +0.000 C 
ATOM     30  C   UNL     1      -4.153  -2.556  23.839  0.00  0.00    +0.000 C 
ATOM     31  C   UNL     1      -4.057  -1.745  23.954  0.00  0.00    +0.009 C 
ENDBRANCH  24  26
BRANCH  32  34
ATOM     34  C   UNL     1      -0.100   0.345  23.659  0.00  0.00    +0.080 C 
ATOM     35  C   UNL     1       0.335  -0.153  24.153  0.00  0.00    +0.028 C 
ATOM     36  C   UNL     1       0.954  -0.603  23.843  0.00  0.00    +0.089 C 
ATOM     37  N   UNL     1       1.139  -0.553  23.041  0.00  0.00    -0.218 NA
ATOM     38  C   UNL     1       0.704  -0.054  22.548  0.00  0.00    +0.089 C 
ATOM     39  C   UNL     1       0.085   0.395  22.857  0.00  0.00    +0.028 C 
ENDBRANCH  32  34
BRANCH  18  16
ATOM     15  N   UNL     1      -3.653   1.638  24.574  0.00  0.00    -0.196 NA
ATOM     16  C   UNL     1      -3.388   0.968  24.976  0.00  0.00    +0.262 C 
ATOM     17  O   UNL     1      -3.742   0.747  25.687  0.00  0.00    -0.271 OA
BRANCH  15   4
ATOM      4  C   UNL     1      -4.272   2.086  24.883  0.00  0.00    +0.179 C 
BRANCH   4   2
ATOM      1  N   UNL     1      -5.599   1.801  25.331  0.00  0.00    -0.086 NA
ATOM      2  C   UNL     1      -5.054   1.879  24.718  0.00  0.00    +0.281 C 
ATOM      3  O   UNL     1      -5.289   1.749  23.937  0.00  0.00    -0.270 OA
ENDBRANCH   4   2
BRANCH   4   5
ATOM      5  C   UNL     1      -4.111   2.742  25.357  0.00  0.00    +0.059 C 
BRANCH   5   6
ATOM      6  C   UNL     1      -3.788   3.423  25.023  0.00  0.00    +0.001 A 
ATOM      7  C   UNL     1      -4.030   3.781  24.320  0.00  0.00    +0.095 A 
ATOM      8  N   UNL     1      -3.558   4.445  24.196  0.00  0.00    -0.244 NA
ATOM      9  C   UNL     1      -3.024   4.499  24.821  0.00  0.00    +0.081 A 
ATOM     10  C   UNL     1      -3.166   3.867  25.333  0.00  0.00    +0.015 A 
ATOM     11  C   UNL     1      -2.710   3.779  26.015  0.00  0.00    +0.001 A 
ATOM     12  C   UNL     1      -2.112   4.321  26.185  0.00  0.00    +0.000 A 
ATOM     13  C   UNL     1      -1.971   4.953  25.674  0.00  0.00    +0.002 A 
ATOM     14  C   UNL     1      -2.426   5.042  24.992  0.00  0.00    +0.019 A 
ENDBRANCH   5   6
ENDBRANCH   4   5
ENDBRANCH  15   4
ENDBRANCH  18  16
TORSDOF 7
ENDMDL
MODEL 4
REMARK VINA RESULT:     -11.0      1.663      4.721
REMARK  Name = 
REMARK  7 active torsions:
REMARK  status: ('A' for Active; 'I' for Inactive)
REMARK    1  A    between atoms: C_2  and  C_4
REMARK    2  A    between atoms: C_4  and  C_5
REMARK    3  A    between atoms: C_4  and  N_15
REMARK    4  A    between atoms: C_5  and  C_6
REMARK    5  A    between atoms: C_16  and  C_18
REMARK    6  A    between atoms: C_24  and  C_26
REMARK    7  A    between atoms: C_32  and  C_34
REMARK                            x       y       z     vdW  Elec       q    Type
REMARK                         _______ _______ _______ _____ _____    ______ ____
ROOT
ATOM     18  C   UNL     1      -1.773   1.012  24.447  0.00  0.00    +0.174 C 
ATOM     19  C   UNL     1      -2.474   0.667  24.714  0.00  0.00    +0.123 C 
ATOM     20  N   UNL     1      -2.588  -0.147  24.641  0.00  0.00    -0.276 N 
ATOM     21  C   UNL     1      -2.001  -0.617  24.301  0.00  0.00    +0.115 C 
ATOM     22  C   UNL     1      -1.300  -0.272  24.034  0.00  0.00    +0.115 C 
ATOM     23  N   UNL     1      -1.186   0.541  24.107  0.00  0.00    -0.270 N 
ATOM     24  C   UNL     1      -0.486   0.885  23.841  0.00  0.00    +0.226 C 
ATOM     25  O   UNL     1      -0.372   1.700  23.914  0.00  0.00    -0.275 OA
ATOM     32  C   UNL     1      -3.289  -0.491  24.908  0.00  0.00    +0.225 C 
ATOM     33  O   UNL     1      -3.876  -0.021  25.247  0.00  0.00    -0.275 OA
ENDROOT
BRANCH  24  26
ATOM     26  C   UNL     1       0.101   0.416  23.501  0.00  0.00    +0.077 C 
ATOM     27  C   UNL     1       0.694   0.090  23.974  0.00  0.00    +0.009 C 
ATOM     28  C   UNL     1       1.281  -0.380  23.634  0.00  0.00    +0.000 C 
ATOM     29  C   UNL     1       1.275  -0.524  22.822  0.00  0.00    +0.000 C 
ATOM     30  C   UNL     1       0.683  -0.198  22.349  0.00  0.00    +0.000 C 
ATOM     31  C   UNL     1       0.096   0.272  22.689  0.00  0.00    +0.009 C 
ENDBRANCH  24  26
BRANCH  32  34
ATOM     34  C   UNL     1      -3.403  -1.305  24.835  0.00  0.00    +0.080 C 
ATOM     35  C   UNL     1      -3.156  -1.811  25.437  0.00  0.00    +0.028 C 
ATOM     36  C   UNL     1      -3.270  -2.625  25.364  0.00  0.00    +0.089 C 
ATOM     37  N   UNL     1      -3.630  -2.932  24.689  0.00  0.00    -0.218 NA
ATOM     38  C   UNL     1      -3.877  -2.425  24.086  0.00  0.00    +0.089 C 
ATOM     39  C   UNL     1      -3.763  -1.612  24.159  0.00  0.00    +0.028 C 
ENDBRANCH  32  34
BRANCH  18  16
ATOM     15  N   UNL     1      -1.818   2.202  25.236  0.00  0.00    -0.196 NA
ATOM     16  C   UNL     1      -1.659   1.825  24.520  0.00  0.00    +0.262 C 
ATOM     17  O   UNL     1      -1.386   2.262  23.876  0.00  0.00    -0.271 OA
BRANCH  15   4
ATOM      4  C   UNL     1      -1.705   3.015  25.309  0.00  0.00    +0.179 C 
BRANCH   4   2
ATOM      1  N   UNL     1      -0.614   3.938  25.266  0.00  0.00    -0.086 NA
ATOM      2  C   UNL     1      -1.000   3.305  25.627  0.00  0.00    +0.281 C 
ATOM      3  O   UNL     1      -0.683   2.961  26.307  0.00  0.00    -0.270 OA
ENDBRANCH   4   2
BRANCH   4   5
ATOM      5  C   UNL     1      -2.294   3.538  25.065  0.00  0.00    +0.059 C 
BRANCH   5   6
ATOM      6  C   UNL     1      -2.938   3.693  25.555  0.00  0.00    +0.001 A 
ATOM      7  C   UNL     1      -2.905   3.858  26.364  0.00  0.00    +0.095 A 
ATOM      8  N   UNL     1      -3.675   3.976  26.632  0.00  0.00    -0.244 NA
ATOM      9  C   UNL     1      -4.185   3.884  25.991  0.00  0.00    +0.081 A 
ATOM     10  C   UNL     1      -3.730   3.709  25.325  0.00  0.00    +0.015 A 
ATOM     11  C   UNL     1      -4.096   3.587  24.596  0.00  0.00    +0.001 A 
ATOM     12  C   UNL     1      -4.916   3.640  24.531  0.00  0.00    +0.000 A 
ATOM     13  C   UNL     1      -5.371   3.815  25.197  0.00  0.00    +0.002 A 
ATOM     14  C   UNL     1      -5.007   3.937  25.926  0.00  0.00    +0.019 A 
ENDBRANCH   5   6
ENDBRANCH   4   5
ENDBRANCH  15   4
ENDBRANCH  18  16
TORSDOF 7
ENDMDL
MODEL 5
REMARK VINA RESULT:     -10.9      1.621      3.675
REMARK  Name = 
REMARK  7 active torsions:
REMARK  status: ('A' for Active; 'I' for Inactive)
REMARK    1  A    between atoms: C_2  and  C_4
REMARK    2  A    between atoms: C_4  and  C_5
REMARK    3  A    between atoms: C_4  and  N_15
REMARK    4  A    between atoms: C_5  and  C_6
REMARK    5  A    between atoms: C_16  and  C_18
REMARK    6  A    between atoms: C_24  and  C_26
REMARK    7  A    between atoms: C_32  and  C_34
REMARK                            x       y       z     vdW  Elec       q    Type
REMARK                         _______ _______ _______ _____ _____    ______ ____
ROOT
ATOM     18  C   UNL     1      -0.533   0.922  24.708  0.00  0.00    +0.174 C 
ATOM     19  C   UNL     1       0.125   1.232  24.318  0.00  0.00    +0.123 C 
ATOM     20  N   UNL     1       0.584   0.746  23.834  0.00  0.00    -0.276 N 
ATOM     21  C   UNL     1       0.386  -0.049  23.740  0.00  0.00    +0.115 C 
ATOM     22  C   UNL     1      -0.272  -0.359  24.130  0.00  0.00    +0.115 C 
ATOM     23  N   UNL     1      -0.731   0.126  24.614  0.00  0.00    -0.270 N 
ATOM     24  C   UNL     1      -1.389  -0.183  25.004  0.00  0.00    +0.226 C 
ATOM     25  O   UNL     1      -1.848   0.303  25.488  0.00  0.00    -0.275 OA
ATOM     32  C   UNL     1       1.242   1.056  23.444  0.00  0.00    +0.225 C 
ATOM     33  O   UNL     1       1.440   1.851  23.538  0.00  0.00    -0.275 OA
ENDROOT
BRANCH  24  26
ATOM     26  C   UNL     1      -1.588  -0.978  24.910  0.00  0.00    +0.077 C 
ATOM     27  C   UNL     1      -2.235  -1.190  24.444  0.00  0.00    +0.009 C 
ATOM     28  C   UNL     1      -2.434  -1.985  24.350  0.00  0.00    +0.000 C 
ATOM     29  C   UNL     1      -1.985  -2.569  24.723  0.00  0.00    +0.000 C 
ATOM     30  C   UNL     1      -1.338  -2.358  25.188  0.00  0.00    +0.000 C 
ATOM     31  C   UNL     1      -1.139  -1.563  25.282  0.00  0.00    +0.009 C 
ENDBRANCH  24  26
BRANCH  32  34
ATOM     34  C   UNL     1       1.701   0.570  22.960  0.00  0.00    +0.080 C 
ATOM     35  C   UNL     1       2.505   0.475  23.116  0.00  0.00    +0.028 C 
ATOM     36  C   UNL     1       2.965  -0.011  22.632  0.00  0.00    +0.089 C 
ATOM     37  N   UNL     1       2.619  -0.401  21.992  0.00  0.00    -0.218 NA
ATOM     38  C   UNL     1       1.815  -0.304  21.836  0.00  0.00    +0.089 C 
ATOM     39  C   UNL     1       1.356   0.181  22.320  0.00  0.00    +0.028 C 
ENDBRANCH  32  34
BRANCH  18  16
ATOM     15  N   UNL     1      -1.383   2.059  24.871  0.00  0.00    -0.196 NA
ATOM     16  C   UNL     1      -0.992   1.407  25.192  0.00  0.00    +0.262 C 
ATOM     17  O   UNL     1      -1.060   1.241  25.997  0.00  0.00    -0.271 OA
BRANCH  15   4
ATOM      4  C   UNL     1      -1.842   2.544  25.355  0.00  0.00    +0.179 C 
BRANCH   4   2
ATOM      1  N   UNL     1      -1.051   3.730  25.257  0.00  0.00    -0.086 NA
ATOM      2  C   UNL     1      -1.506   3.211  25.706  0.00  0.00    +0.281 C 
ATOM      3  O   UNL     1      -1.628   3.358  26.510  0.00  0.00    -0.270 OA
ENDBRANCH   4   2
BRANCH   4   5
ATOM      5  C   UNL     1      -2.636   2.363  25.487  0.00  0.00    +0.059 C 
BRANCH   5   6
ATOM      6  C   UNL     1      -3.212   2.618  24.956  0.00  0.00    +0.001 A 
ATOM      7  C   UNL     1      -3.094   3.134  24.323  0.00  0.00    +0.095 A 
ATOM      8  N   UNL     1      -3.816   3.237  23.939  0.00  0.00    -0.244 NA
ATOM      9  C   UNL     1      -4.381   2.785  24.334  0.00  0.00    +0.081 A 
ATOM     10  C   UNL     1      -4.008   2.402  24.962  0.00  0.00    +0.015 A 
ATOM     11  C   UNL     1      -4.442   1.906  25.459  0.00  0.00    +0.001 A 
ATOM     12  C   UNL     1      -5.248   1.793  25.328  0.00  0.00    +0.000 A 
ATOM     13  C   UNL     1      -5.621   2.176  24.700  0.00  0.00    +0.002 A 
ATOM     14  C   UNL     1      -5.188   2.672  24.203  0.00  0.00    +0.019 A 
ENDBRANCH   5   6
ENDBRANCH   4   5
ENDBRANCH  15   4
ENDBRANCH  18  16
TORSDOF 7
ENDMDL
MODEL 6
REMARK VINA RESULT:     -10.8      1.749      4.040
REMARK  Name = 
REMARK  7 active torsions:
REMARK  status: ('A' for Active; 'I' for Inactive)
REMARK    1  A    between atoms: C_2  and  C_4
REMARK    2  A    between atoms: C_4  and  C_5
REMARK    3  A    between atoms: C_4  and  N_15
REMARK    4  A    between atoms: C_5  and  C_6
REMARK    5  A    between atoms: C_16  and  C_18
REMARK    6  A    between atoms: C_24  and  C_26
REMARK    7  A    between atoms: C_32  and  C_34
REMARK                            x       y       z     vdW  Elec       q    Type
REMARK                         _______ _______ _______ _____ _____    ______ ____
ROOT
ATOM     18  C   UNL     1      -2.530   1.437  24.717  0.00  0.00    +0.174 C 
ATOM     19  C   UNL     1      -3.339   1.338  24.846  0.00  0.00    +0.123 C 
ATOM     20  N   UNL     1      -3.808   1.986  25.049  0.00  0.00    -0.276 N 
ATOM     21  C   UNL     1      -3.467   2.734  25.122  0.00  0.00    +0.115 C 
ATOM     22  C   UNL     1      -2.658   2.834  24.992  0.00  0.00    +0.115 C 
ATOM     23  N   UNL     1      -2.190   2.186  24.790  0.00  0.00    -0.270 N 
ATOM     24  C   UNL     1      -1.381   2.285  24.661  0.00  0.00    +0.226 C 
ATOM     25  O   UNL     1      -0.913   1.637  24.458  0.00  0.00    -0.275 OA
ATOM     32  C   UNL     1      -4.616   1.886  25.178  0.00  0.00    +0.225 C 
ATOM     33  O   UNL     1      -4.956   1.138  25.105  0.00  0.00    -0.275 OA
ENDROOT
BRANCH  24  26
ATOM     26  C   UNL     1      -1.041   3.033  24.734  0.00  0.00    +0.077 C 
ATOM     27  C   UNL     1      -0.917   3.498  24.063  0.00  0.00    +0.009 C 
ATOM     28  C   UNL     1      -0.577   4.246  24.136  0.00  0.00    +0.000 C 
ATOM     29  C   UNL     1      -0.361   4.529  24.880  0.00  0.00    +0.000 C 
ATOM     30  C   UNL     1      -0.484   4.065  25.550  0.00  0.00    +0.000 C 
ATOM     31  C   UNL     1      -0.824   3.317  25.477  0.00  0.00    +0.009 C 
ENDBRANCH  24  26
BRANCH  32  34
ATOM     34  C   UNL     1      -5.085   2.535  25.380  0.00  0.00    +0.080 C 
ATOM     35  C   UNL     1      -5.441   2.570  26.124  0.00  0.00    +0.028 C 
ATOM     36  C   UNL     1      -5.909   3.218  26.326  0.00  0.00    +0.089 C 
ATOM     37  N   UNL     1      -6.021   3.831  25.785  0.00  0.00    -0.218 NA
ATOM     38  C   UNL     1      -5.665   3.795  25.042  0.00  0.00    +0.089 C 
ATOM     39  C   UNL     1      -5.197   3.148  24.840  0.00  0.00    +0.028 C 
ENDBRANCH  32  34
BRANCH  18  16
ATOM     15  N   UNL     1      -2.055   0.119  24.995  0.00  0.00    -0.196 NA
ATOM     16  C   UNL     1      -2.062   0.790  24.515  0.00  0.00    +0.262 C 
ATOM     17  O   UNL     1      -1.600   0.812  23.831  0.00  0.00    -0.271 OA
BRANCH  15   4
ATOM      4  C   UNL     1      -1.586  -0.529  24.793  0.00  0.00    +0.179 C 
BRANCH   4   2
ATOM      1  N   UNL     1      -0.186  -0.766  24.631  0.00  0.00    -0.086 NA
ATOM      2  C   UNL     1      -0.832  -0.610  25.119  0.00  0.00    +0.281 C 
ATOM      3  O   UNL     1      -0.726  -0.533  25.934  0.00  0.00    -0.270 OA
ENDBRANCH   4   2
BRANCH   4   5
ATOM      5  C   UNL     1      -1.871  -1.096  24.265  0.00  0.00    +0.059 C 
BRANCH   5   6
ATOM      6  C   UNL     1      -2.298  -1.743  24.546  0.00  0.00    +0.001 A 
ATOM      7  C   UNL     1      -2.074  -2.240  25.165  0.00  0.00    +0.095 A 
ATOM      8  N   UNL     1      -2.662  -2.811  25.259  0.00  0.00    -0.244 NA
ATOM      9  C   UNL     1      -3.248  -2.668  24.697  0.00  0.00    +0.081 A 
ATOM     10  C   UNL     1      -3.023  -2.008  24.256  0.00  0.00    +0.015 A 
ATOM     11  C   UNL     1      -3.509  -1.733  23.648  0.00  0.00    +0.001 A 
ATOM     12  C   UNL     1      -4.218  -2.118  23.481  0.00  0.00    +0.000 A 
ATOM     13  C   UNL     1      -4.443  -2.778  23.921  0.00  0.00    +0.002 A 
ATOM     14  C   UNL     1      -3.959  -3.054  24.529  0.00  0.00    +0.019 A 
ENDBRANCH   5   6
ENDBRANCH   4   5
ENDBRANCH  15   4
ENDBRANCH  18  16
TORSDOF 7
ENDMDL
MODEL 7
REMARK VINA RESULT:     -10.6      1.727      4.707
REMARK  Name = 
REMARK  7 active torsions:
REMARK  status: ('A' for Active; 'I' for Inactive)
REMARK    1  A    between atoms: C_2  and  C_4
REMARK    2  A    between atoms: C_4  and  C_5
REMARK    3  A    between atoms: C_4  and  N_15
REMARK    4  A    between atoms: C_5  and  C_6
REMARK    5  A    between atoms: C_16  and  C_18
REMARK    6  A    between atoms: C_24  and  C_26
REMARK    7  A    between atoms: C_32  and  C_34
REMARK                            x       y       z     vdW  Elec       q    Type
REMARK                         _______ _______ _______ _____ _____    ______ ____
ROOT
ATOM     18  C   UNL     1      -2.025   1.081  25.086  0.00  0.00    +0.174 C 
ATOM     19  C   UNL     1      -2.774   0.735  25.086  0.00  0.00    +0.123 C 
ATOM     20  N   UNL     1      -3.449   1.210  25.073  0.00  0.00    -0.276 N 
ATOM     21  C   UNL     1      -3.375   2.031  25.061  0.00  0.00    +0.115 C 
ATOM     22  C   UNL     1      -2.625   2.378  25.061  0.00  0.00    +0.115 C 
ATOM     23  N   UNL     1      -1.951   1.903  25.074  0.00  0.00    -0.270 N 
ATOM     24  C   UNL     1      -1.202   2.249  25.075  0.00  0.00    +0.226 C 
ATOM     25  O   UNL     1      -0.528   1.774  25.087  0.00  0.00    -0.275 OA
ATOM     32  C   UNL     1      -4.197   0.863  25.073  0.00  0.00    +0.225 C 
ATOM     33  O   UNL     1      -4.272   0.042  25.085  0.00  0.00    -0.275 OA
ENDROOT
BRANCH  24  26
ATOM     26  C   UNL     1      -1.128   3.071  25.062  0.00  0.00    +0.077 C 
ATOM     27  C   UNL     1      -0.876   3.452  24.375  0.00  0.00    +0.009 C 
ATOM     28  C   UNL     1      -0.802   4.273  24.363  0.00  0.00    +0.000 C 
ATOM     29  C   UNL     1      -0.979   4.713  25.037  0.00  0.00    +0.000 C 
ATOM     30  C   UNL     1      -1.231   4.333  25.724  0.00  0.00    +0.000 C 
ATOM     31  C   UNL     1      -1.305   3.511  25.736  0.00  0.00    +0.009 C 
ENDBRANCH  24  26
BRANCH  32  34
ATOM     34  C   UNL     1      -4.872   1.338  25.060  0.00  0.00    +0.080 C 
ATOM     35  C   UNL     1      -5.266   1.513  25.763  0.00  0.00    +0.028 C 
ATOM     36  C   UNL     1      -5.941   1.988  25.750  0.00  0.00    +0.089 C 
ATOM     37  N   UNL     1      -6.220   2.289  25.035  0.00  0.00    -0.218 NA
ATOM     38  C   UNL     1      -5.825   2.114  24.332  0.00  0.00    +0.089 C 
ATOM     39  C   UNL     1      -5.151   1.639  24.344  0.00  0.00    +0.028 C 
ENDBRANCH  32  34
BRANCH  18  16
ATOM     15  N   UNL     1      -1.210   0.073  24.486  0.00  0.00    -0.196 NA
ATOM     16  C   UNL     1      -1.351   0.606  25.099  0.00  0.00    +0.262 C 
ATOM     17  O   UNL     1      -0.818   0.665  25.726  0.00  0.00    -0.271 OA
BRANCH  15   4
ATOM      4  C   UNL     1      -0.536  -0.402  24.499  0.00  0.00    +0.179 C 
BRANCH   4   2
ATOM      1  N   UNL     1      -1.163  -1.686  24.503  0.00  0.00    -0.086 NA
ATOM      2  C   UNL     1      -0.581  -1.174  24.785  0.00  0.00    +0.281 C 
ATOM      3  O   UNL     1      -0.043  -1.434  25.355  0.00  0.00    -0.270 OA
ENDBRANCH   4   2
BRANCH   4   5
ATOM      5  C   UNL     1       0.184  -0.105  24.225  0.00  0.00    +0.059 C 
BRANCH   5   6
ATOM      6  C   UNL     1       0.411  -0.228  23.442  0.00  0.00    +0.001 A 
ATOM      7  C   UNL     1      -0.062  -0.543  22.844  0.00  0.00    +0.095 A 
ATOM      8  N   UNL     1       0.386  -0.568  22.152  0.00  0.00    -0.244 NA
ATOM      9  C   UNL     1       1.135  -0.269  22.322  0.00  0.00    +0.081 A 
ATOM     10  C   UNL     1       1.151  -0.059  23.119  0.00  0.00    +0.015 A 
ATOM     11  C   UNL     1       1.837   0.260  23.448  0.00  0.00    +0.001 A 
ATOM     12  C   UNL     1       2.507   0.368  22.980  0.00  0.00    +0.000 A 
ATOM     13  C   UNL     1       2.491   0.158  22.182  0.00  0.00    +0.002 A 
ATOM     14  C   UNL     1       1.806  -0.160  21.853  0.00  0.00    +0.019 A 
ENDBRANCH   5   6
ENDBRANCH   4   5
ENDBRANCH  15   4
ENDBRANCH  18  16
TORSDOF 7
ENDMDL
MODEL 8
REMARK VINA RESULT:     -10.6      1.136      2.230
REMARK  Name = 
REMARK  7 active torsions:
REMARK  status: ('A' for Active; 'I' for Inactive)
REMARK    1  A    between atoms: C_2  and  C_4
REMARK    2  A    between atoms: C_4  and  C_5
REMARK    3  A    between atoms: C_4  and  N_15
REMARK    4  A    between atoms: C_5  and  C_6
REMARK    5  A    between atoms: C_16  and  C_18
REMARK    6  A    between atoms: C_24  and  C_26
REMARK    7  A    between atoms: C_32  and  C_34
REMARK                            x       y       z     vdW  Elec       q    Type
REMARK                         _______ _______ _______ _____ _____    ______ ____
ROOT
ATOM     18  C   UNL     1      -1.016   0.406  24.780  0.00  0.00    +0.174 C 
ATOM     19  C   UNL     1      -0.602  -0.167  24.354  0.00  0.00    +0.123 C 
ATOM     20  N   UNL     1       0.038   0.052  23.882  0.00  0.00    -0.276 N 
ATOM     21  C   UNL     1       0.265   0.844  23.835  0.00  0.00    +0.115 C 
ATOM     22  C   UNL     1      -0.149   1.417  24.260  0.00  0.00    +0.115 C 
ATOM     23  N   UNL     1      -0.789   1.199  24.732  0.00  0.00    -0.270 N 
ATOM     24  C   UNL     1      -1.203   1.772  25.158  0.00  0.00    +0.226 C 
ATOM     25  O   UNL     1      -1.843   1.553  25.630  0.00  0.00    -0.275 OA
ATOM     32  C   UNL     1       0.452  -0.522  23.457  0.00  0.00    +0.225 C 
ATOM     33  O   UNL     1       0.225  -1.314  23.504  0.00  0.00    -0.275 OA
ENDROOT
BRANCH  24  26
ATOM     26  C   UNL     1      -0.976   2.564  25.110  0.00  0.00    +0.077 C 
ATOM     27  C   UNL     1      -0.402   2.860  25.624  0.00  0.00    +0.009 C 
ATOM     28  C   UNL     1      -0.175   3.652  25.577  0.00  0.00    +0.000 C 
ATOM     29  C   UNL     1      -0.523   4.147  25.016  0.00  0.00    +0.000 C 
ATOM     30  C   UNL     1      -1.097   3.852  24.503  0.00  0.00    +0.000 C 
ATOM     31  C   UNL     1      -1.323   3.060  24.550  0.00  0.00    +0.009 C 
ENDBRANCH  24  26
BRANCH  32  34
ATOM     34  C   UNL     1       1.092  -0.303  22.985  0.00  0.00    +0.080 C 
ATOM     35  C   UNL     1       1.014  -0.295  22.163  0.00  0.00    +0.028 C 
ATOM     36  C   UNL     1       1.655  -0.076  21.691  0.00  0.00    +0.089 C 
ATOM     37  N   UNL     1       2.372   0.134  22.040  0.00  0.00    -0.218 NA
ATOM     38  C   UNL     1       2.449   0.125  22.862  0.00  0.00    +0.089 C 
ATOM     39  C   UNL     1       1.809  -0.093  23.334  0.00  0.00    +0.028 C 
ENDBRANCH  32  34
BRANCH  18  16
ATOM     15  N   UNL     1      -2.339  -0.119  24.906  0.00  0.00    -0.196 NA
ATOM     16  C   UNL     1      -1.656   0.188  25.252  0.00  0.00    +0.262 C 
ATOM     17  O   UNL     1      -1.613   0.277  26.071  0.00  0.00    -0.271 OA
BRANCH  15   4
ATOM      4  C   UNL     1      -2.979  -0.337  25.378  0.00  0.00    +0.179 C 
BRANCH   4   2
ATOM      1  N   UNL     1      -2.964  -1.740  25.107  0.00  0.00    -0.086 NA
ATOM      2  C   UNL     1      -3.051  -1.117  25.639  0.00  0.00    +0.281 C 
ATOM      3  O   UNL     1      -3.211  -1.271  26.434  0.00  0.00    -0.270 OA
ENDBRANCH   4   2
BRANCH   4   5
ATOM      5  C   UNL     1      -3.546   0.224  25.589  0.00  0.00    +0.059 C 
BRANCH   5   6
ATOM      6  C   UNL     1      -4.187   0.370  25.091  0.00  0.00    +0.001 A 
ATOM      7  C   UNL     1      -4.402  -0.079  24.432  0.00  0.00    +0.095 A 
ATOM      8  N   UNL     1      -5.074   0.264  24.099  0.00  0.00    -0.244 NA
ATOM      9  C   UNL     1      -5.274   0.924  24.550  0.00  0.00    +0.081 A 
ATOM     10  C   UNL     1      -4.726   0.989  25.164  0.00  0.00    +0.015 A 
ATOM     11  C   UNL     1      -4.790   1.605  25.709  0.00  0.00    +0.001 A 
ATOM     12  C   UNL     1      -5.400   2.156  25.641  0.00  0.00    +0.000 A 
ATOM     13  C   UNL     1      -5.948   2.090  25.028  0.00  0.00    +0.002 A 
ATOM     14  C   UNL     1      -5.886   1.475  24.482  0.00  0.00    +0.019 A 
ENDBRANCH   5   6
ENDBRANCH   4   5
ENDBRANCH  15   4
ENDBRANCH  18  16
TORSDOF 7
ENDMDL
MODEL 9
REMARK VINA RESULT:     -10.6      1.469      4.814
REMARK  Name = 
REMARK  7 active torsions:
REMARK  status: ('A' for Active; 'I' for Inactive)
REMARK    1  A    between atoms: C_2  and  C_4
REMARK    2  A    between atoms: C_4  and  C_5
REMARK    3  A    between atoms: C_4  and  N_15
REMARK    4  A    between atoms: C_5  and  C_6
REMARK    5  A    between atoms: C_16  and  C_18
REMARK    6  A    between atoms: C_24  and  C_26
REMARK    7  A    between atoms: C_32  and  C_34
REMARK                            x       y       z     vdW  Elec       q    Type
REMARK                         _______ _______ _______ _____ _____    ______ ____
ROOT
ATOM     18  C   UNL     1      -2.831   0.745  23.844  0.00  0.00    +0.174 C 
ATOM     19  C   UNL     1      -3.431   0.227  24.071  0.00  0.00    +0.123 C 
ATOM     20  N   UNL     1      -3.247  -0.545  24.299  0.00  0.00    -0.276 N 
ATOM     21  C   UNL     1      -2.461  -0.798  24.298  0.00  0.00    +0.115 C 
ATOM     22  C   UNL     1      -1.861  -0.279  24.071  0.00  0.00    +0.115 C 
ATOM     23  N   UNL     1      -2.045   0.491  23.844  0.00  0.00    -0.270 N 
ATOM     24  C   UNL     1      -1.445   1.010  23.616  0.00  0.00    +0.226 C 
ATOM     25  O   UNL     1      -1.630   1.781  23.389  0.00  0.00    -0.275 OA
ATOM     32  C   UNL     1      -3.847  -1.062  24.526  0.00  0.00    +0.225 C 
ATOM     33  O   UNL     1      -4.632  -0.809  24.526  0.00  0.00    -0.275 OA
ENDROOT
BRANCH  24  26
ATOM     26  C   UNL     1      -0.660   0.757  23.616  0.00  0.00    +0.077 C 
ATOM     27  C   UNL     1      -0.383   0.272  23.008  0.00  0.00    +0.009 C 
ATOM     28  C   UNL     1       0.402   0.019  23.008  0.00  0.00    +0.000 C 
ATOM     29  C   UNL     1       0.910   0.250  23.616  0.00  0.00    +0.000 C 
ATOM     30  C   UNL     1       0.633   0.734  24.223  0.00  0.00    +0.000 C 
ATOM     31  C   UNL     1      -0.152   0.987  24.224  0.00  0.00    +0.009 C 
ENDBRANCH  24  26
BRANCH  32  34
ATOM     34  C   UNL     1      -3.663  -1.834  24.753  0.00  0.00    +0.080 C 
ATOM     35  C   UNL     1      -3.420  -1.988  25.526  0.00  0.00    +0.028 C 
ATOM     36  C   UNL     1      -3.235  -2.760  25.754  0.00  0.00    +0.089 C 
ATOM     37  N   UNL     1      -3.293  -3.376  25.208  0.00  0.00    -0.218 NA
ATOM     38  C   UNL     1      -3.536  -3.220  24.435  0.00  0.00    +0.089 C 
ATOM     39  C   UNL     1      -3.721  -2.450  24.208  0.00  0.00    +0.028 C 
ENDBRANCH  32  34
BRANCH  18  16
ATOM     15  N   UNL     1      -3.349   2.039  24.161  0.00  0.00    -0.196 NA
ATOM     16  C   UNL     1      -3.015   1.516  23.616  0.00  0.00    +0.262 C 
ATOM     17  O   UNL     1      -2.866   1.765  22.844  0.00  0.00    -0.271 OA
BRANCH  15   4
ATOM      4  C   UNL     1      -3.533   2.810  23.933  0.00  0.00    +0.179 C 
BRANCH   4   2
ATOM      1  N   UNL     1      -4.947   2.747  24.132  0.00  0.00    -0.086 NA
ATOM      2  C   UNL     1      -4.299   2.995  23.687  0.00  0.00    +0.281 C 
ATOM      3  O   UNL     1      -4.415   3.428  22.994  0.00  0.00    -0.270 OA
ENDBRANCH   4   2
BRANCH   4   5
ATOM      5  C   UNL     1      -2.953   3.396  23.952  0.00  0.00    +0.059 C 
BRANCH   5   6
ATOM      6  C   UNL     1      -2.788   3.792  24.656  0.00  0.00    +0.001 A 
ATOM      7  C   UNL     1      -3.239   3.761  25.347  0.00  0.00    +0.095 A 
ATOM      8  N   UNL     1      -2.874   4.239  25.911  0.00  0.00    -0.244 NA
ATOM      9  C   UNL     1      -2.198   4.565  25.570  0.00  0.00    +0.081 A 
ATOM     10  C   UNL     1      -2.146   4.289  24.794  0.00  0.00    +0.015 A 
ATOM     11  C   UNL     1      -1.518   4.527  24.314  0.00  0.00    +0.001 A 
ATOM     12  C   UNL     1      -0.944   5.040  24.608  0.00  0.00    +0.000 A 
ATOM     13  C   UNL     1      -0.997   5.316  25.384  0.00  0.00    +0.002 A 
ATOM     14  C   UNL     1      -1.624   5.079  25.865  0.00  0.00    +0.019 A 
ENDBRANCH   5   6
ENDBRANCH   4   5
ENDBRANCH  15   4
ENDBRANCH  18  16
TORSDOF 7
ENDMDL
MODEL 10
REMARK VINA RESULT:      -9.7      1.709      4.899
REMARK  Name = 
REMARK  7 active torsions:
REMARK  status: ('A' for Active; 'I' for Inactive)
REMARK    1  A    between atoms: C_2  and  C_4
REMARK    2  A    between atoms: C_4  and  C_5
REMARK    3  A    between atoms: C_4  and  N_15
REMARK    4  A    between atoms: C_5  and  C_6
REMARK    5  A    between atoms: C_16  and  C_18
REMARK    6  A    between atoms: C_24  and  C_26
REMARK    7  A    between atoms: C_32  and  C_34
REMARK                            x       y       z     vdW  Elec       q    Type
REMARK                         _______ _______ _______ _____ _____    ______ ____
ROOT
ATOM     18  C   UNL     1      -3.345   0.918  24.111  0.00  0.00    +0.174 C 
ATOM     19  C   UNL     1      -2.971   0.193  23.990  0.00  0.00    +0.123 C 
ATOM     20  N   UNL     1      -3.318  -0.502  24.271  0.00  0.00    -0.276 N 
ATOM     21  C   UNL     1      -4.038  -0.471  24.672  0.00  0.00    +0.115 C 
ATOM     22  C   UNL     1      -4.411   0.255  24.793  0.00  0.00    +0.115 C 
ATOM     23  N   UNL     1      -4.065   0.949  24.513  0.00  0.00    -0.270 N 
ATOM     24  C   UNL     1      -4.439   1.675  24.634  0.00  0.00    +0.226 C 
ATOM     25  O   UNL     1      -4.092   2.369  24.354  0.00  0.00    -0.275 OA
ATOM     32  C   UNL     1      -2.944  -1.227  24.149  0.00  0.00    +0.225 C 
ATOM     33  O   UNL     1      -2.224  -1.258  23.748  0.00  0.00    -0.275 OA
ENDROOT
BRANCH  24  26
ATOM     26  C   UNL     1      -5.159   1.706  25.036  0.00  0.00    +0.077 C 
ATOM     27  C   UNL     1      -5.867   1.639  24.618  0.00  0.00    +0.009 C 
ATOM     28  C   UNL     1      -6.587   1.670  25.020  0.00  0.00    +0.000 C 
ATOM     29  C   UNL     1      -6.598   1.768  25.839  0.00  0.00    +0.000 C 
ATOM     30  C   UNL     1      -5.891   1.835  26.256  0.00  0.00    +0.000 C 
ATOM     31  C   UNL     1      -5.171   1.804  25.855  0.00  0.00    +0.009 C 
ENDBRANCH  24  26
BRANCH  32  34
ATOM     34  C   UNL     1      -3.290  -1.922  24.430  0.00  0.00    +0.080 C 
ATOM     35  C   UNL     1      -3.094  -2.207  25.179  0.00  0.00    +0.028 C 
ATOM     36  C   UNL     1      -3.440  -2.902  25.459  0.00  0.00    +0.089 C 
ATOM     37  N   UNL     1      -3.983  -3.310  24.991  0.00  0.00    -0.218 NA
ATOM     38  C   UNL     1      -4.179  -3.024  24.242  0.00  0.00    +0.089 C 
ATOM     39  C   UNL     1      -3.833  -2.330  23.962  0.00  0.00    +0.028 C 
ENDBRANCH  32  34
BRANCH  18  16
ATOM     15  N   UNL     1      -2.178   1.670  23.771  0.00  0.00    -0.196 NA
ATOM     16  C   UNL     1      -2.999   1.612  23.831  0.00  0.00    +0.262 C 
ATOM     17  O   UNL     1      -3.474   2.250  23.611  0.00  0.00    -0.271 OA
BRANCH  15   4
ATOM      4  C   UNL     1      -1.832   2.364  23.491  0.00  0.00    +0.179 C 
BRANCH   4   2
ATOM      1  N   UNL     1      -2.067   3.306  22.443  0.00  0.00    -0.086 NA
ATOM      2  C   UNL     1      -1.866   2.545  22.686  0.00  0.00    +0.281 C 
ATOM      3  O   UNL     1      -1.699   1.963  22.125  0.00  0.00    -0.270 OA
ENDBRANCH   4   2
BRANCH   4   5
ATOM      5  C   UNL     1      -1.452   2.876  24.014  0.00  0.00    +0.059 C 
BRANCH   5   6
ATOM      6  C   UNL     1      -0.763   2.638  24.398  0.00  0.00    +0.001 A 
ATOM      7  C   UNL     1      -0.120   2.254  24.048  0.00  0.00    +0.095 A 
ATOM      8  N   UNL     1       0.445   2.120  24.633  0.00  0.00    -0.244 NA
ATOM      9  C   UNL     1       0.153   2.420  25.344  0.00  0.00    +0.081 A 
ATOM     10  C   UNL     1      -0.593   2.740  25.198  0.00  0.00    +0.015 A 
ATOM     11  C   UNL     1      -1.021   3.083  25.814  0.00  0.00    +0.001 A 
ATOM     12  C   UNL     1      -0.704   3.106  26.575  0.00  0.00    +0.000 A 
ATOM     13  C   UNL     1       0.042   2.787  26.720  0.00  0.00    +0.002 A 
ATOM     14  C   UNL     1       0.471   2.443  26.105  0.00  0.00    +0.019 A 
ENDBRANCH   5   6
ENDBRANCH   4   5
ENDBRANCH  15   4
ENDBRANCH  18  16
TORSDOF 7
ENDMDL
