REMARK  Name = 
REMARK  6 active torsions:
REMARK  status: ('A' for Active; 'I' for Inactive)
REMARK    1  A    between atoms: C_2  and  N_4
REMARK    2  A    between atoms: C_5  and  C_7
REMARK    3  A    between atoms: C_7  and  C_8
REMARK    4  A    between atoms: C_10  and  C_11
REMARK    5  A    between atoms: C_11  and  N_12
REMARK    6  A    between atoms: C_13  and  C_15
REMARK                            x       y       z     vdW  Elec       q    Type
REMARK                         _______ _______ _______ _____ _____    ______ ____
ROOT
ATOM      8  C   UNL     1       4.245  -2.408   0.000  0.00  0.00    +0.157 C 
ATOM      9  O   UNL     1       4.999  -2.073   0.000  0.00  0.00    -0.351 OA
ATOM     10  C   UNL     1       5.551  -2.686   0.000  0.00  0.00    +0.170 C 
ATOM     18  C   UNL     1       5.138  -3.400   0.000  0.00  0.00    +0.213 C 
ATOM     19  O   UNL     1       5.474  -4.154   0.000  0.00  0.00    -0.218 OA
ATOM     20  C   UNL     1       4.331  -3.229   0.000  0.00  0.00    +0.212 C 
ATOM     21  O   UNL     1       3.718  -3.781   0.000  0.00  0.00    -0.218 OA
ENDROOT
BRANCH   8   7
ATOM      7  C   UNL     1       3.530  -1.996   0.000  0.00  0.00    +0.119 C 
BRANCH   7   5
ATOM      4  N   UNL     1       2.102  -1.996   0.000  0.00  0.00    -0.207 NA
ATOM      5  C   UNL     1       2.816  -2.408   0.000  0.00  0.00    +0.244 C 
ATOM      6  O   UNL     1       2.816  -3.233   0.000  0.00  0.00    -0.273 OA
BRANCH   4   2
ATOM      1  C   UNL     1       0.672  -1.996   0.000  0.00  0.00    +0.023 C 
ATOM      2  C   UNL     1       1.387  -2.408   0.000  0.00  0.00    +0.095 C 
ATOM      3  C   UNL     1       1.387  -3.233   0.000  0.00  0.00    +0.023 C 
ENDBRANCH   4   2
ENDBRANCH   7   5
ENDBRANCH   8   7
BRANCH  10  11
ATOM     11  C   UNL     1       6.371  -2.599   0.000  0.00  0.00    +0.147 C 
BRANCH  11  12
ATOM     12  N   UNL     1       6.856  -3.267   0.000  0.00  0.00    -0.203 NA
ATOM     13  C   UNL     1       7.676  -3.181   0.000  0.00  0.00    +0.241 C 
ATOM     14  O   UNL     1       8.012  -2.427   0.000  0.00  0.00    -0.273 OA
BRANCH  13  15
ATOM     15  C   UNL     1       8.161  -3.848   0.000  0.00  0.00    +0.078 C 
ATOM     16  C   UNL     1       8.915  -4.184   0.000  0.00  0.00    +0.010 C 
ATOM     17  C   UNL     1       8.248  -4.669   0.000  0.00  0.00    +0.010 C 
ENDBRANCH  13  15
ENDBRANCH  11  12
ENDBRANCH  10  11
TORSDOF 6
