REMARK  Name = 
REMARK  8 active torsions:
REMARK  status: ('A' for Active; 'I' for Inactive)
REMARK    1  A    between atoms: C_2  and  O_3
REMARK    2  A    between atoms: O_3  and  C_4
REMARK    3  A    between atoms: C_4  and  C_5
REMARK    4  A    between atoms: C_5  and  N_6
REMARK    5  A    between atoms: C_7  and  C_13
REMARK    6  A    between atoms: C_13  and  C_15
REMARK    7  A    between atoms: C_18  and  N_19
REMARK    8  A    between atoms: C_20  and  C_22
REMARK                            x       y       z     vdW  Elec       q    Type
REMARK                         _______ _______ _______ _____ _____    ______ ____
ROOT
ATOM     13  C   UNL     1       2.858  -3.300   0.000  0.00  0.00    +0.195 C 
ATOM     14  O   UNL     1       2.143  -2.888   0.000  0.00  0.00    -0.216 OA
ENDROOT
BRANCH  13   7
ATOM      6  N   UNL     1       2.143  -4.537   0.000  0.00  0.00    -0.271 N 
ATOM      7  C   UNL     1       2.858  -4.125   0.000  0.00  0.00    +0.139 C 
ATOM      8  C   UNL     1       3.572  -4.537   0.000  0.00  0.00    +0.165 C 
ATOM      9  O   UNL     1       3.572  -5.362   0.000  0.00  0.00    -0.343 OA
ATOM     10  C   UNL     1       2.858  -5.775   0.000  0.00  0.00    +0.227 C 
ATOM     11  C   UNL     1       2.143  -5.362   0.000  0.00  0.00    +0.256 C 
ATOM     12  O   UNL     1       1.429  -5.775   0.000  0.00  0.00    -0.272 OA
BRANCH   6   5
ATOM      5  C   UNL     1       1.429  -4.125   0.000  0.00  0.00    +0.126 C 
BRANCH   5   4
ATOM      4  C   UNL     1       0.715  -4.537   0.000  0.00  0.00    +0.164 C 
BRANCH   4   3
ATOM      3  O   UNL     1       0.000  -4.125   0.000  0.00  0.00    -0.352 OA
BRANCH   3   2
ATOM      1  C   UNL     1      -1.429  -4.125   0.000  0.00  0.00    +0.035 C 
ATOM      2  C   UNL     1      -0.715  -4.537   0.000  0.00  0.00    +0.142 C 
ENDBRANCH   3   2
ENDBRANCH   4   3
ENDBRANCH   5   4
ENDBRANCH   6   5
ENDBRANCH  13   7
BRANCH  13  15
ATOM     15  C   UNL     1       3.572  -2.888   0.000  0.00  0.00    +0.010 A 
ATOM     16  C   UNL     1       3.572  -2.062   0.000  0.00  0.00    -0.000 A 
ATOM     17  C   UNL     1       4.287  -1.650   0.000  0.00  0.00    +0.016 A 
ATOM     18  C   UNL     1       5.001  -2.062   0.000  0.00  0.00    +0.073 A 
ATOM     27  C   UNL     1       5.001  -2.888   0.000  0.00  0.00    +0.016 A 
ATOM     28  C   UNL     1       4.287  -3.300   0.000  0.00  0.00    -0.000 A 
BRANCH  18  19
ATOM     19  N   UNL     1       5.716  -1.650   0.000  0.00  0.00    -0.179 NA
ATOM     20  C   UNL     1       5.716  -0.825   0.000  0.00  0.00    +0.245 C 
ATOM     21  O   UNL     1       5.001  -0.412   0.000  0.00  0.00    -0.273 OA
BRANCH  20  22
ATOM     22  C   UNL     1       6.430  -0.412   0.000  0.00  0.00    +0.079 C 
ATOM     23  C   UNL     1       6.516   0.408   0.000  0.00  0.00    +0.009 C 
ATOM     24  C   UNL     1       7.323   0.580   0.000  0.00  0.00    +0.001 C 
ATOM     25  C   UNL     1       7.736  -0.135   0.000  0.00  0.00    +0.001 C 
ATOM     26  C   UNL     1       7.184  -0.748   0.000  0.00  0.00    +0.009 C 
ENDBRANCH  20  22
ENDBRANCH  18  19
ENDBRANCH  13  15
TORSDOF 8
