MODEL 1
REMARK VINA RESULT:     -15.3      0.000      0.000
REMARK  Name = 
REMARK  4 active torsions:
REMARK  status: ('A' for Active; 'I' for Inactive)
REMARK    1  A    between atoms: O_2  and  C_3
REMARK    2  A    between atoms: C_6  and  S_9
REMARK    3  A    between atoms: S_9  and  N_12
REMARK    4  A    between atoms: C_19  and  C_26
REMARK                            x       y       z     vdW  Elec       q    Type
REMARK                         _______ _______ _______ _____ _____    ______ ____
ROOT
ATOM     12  N   UNL     1      -4.753   2.795  25.162  0.00  0.00    -0.155 NA
ATOM     13  C   UNL     1      -5.570   2.623  25.180  0.00  0.00    +0.098 C 
ATOM     14  C   UNL     1      -5.537   1.646  25.033  0.00  0.00    +0.041 C 
ATOM     15  C   UNL     1      -5.679   0.852  24.922  0.00  0.00    +0.011 C 
ATOM     16  C   UNL     1      -5.123   1.280  24.956  0.00  0.00    +0.056 C 
ATOM     17  C   UNL     1      -5.172   2.223  25.099  0.00  0.00    +0.102 C 
ATOM     18  C   UNL     1      -4.206   1.276  24.906  0.00  0.00    +0.041 A 
ATOM     19  C   UNL     1      -3.573   0.759  24.795  0.00  0.00    +0.012 A 
ATOM     20  C   UNL     1      -2.800   1.047  24.797  0.00  0.00    +0.006 A 
ATOM     21  C   UNL     1      -2.660   1.853  24.909  0.00  0.00    +0.061 A 
ATOM     22  C   UNL     1      -3.293   2.370  25.020  0.00  0.00    +0.261 A 
ATOM     23  O   UNL     1      -3.153   3.175  25.133  0.00  0.00    -0.267 OA
ATOM     24  N   UNL     1      -4.066   2.081  25.019  0.00  0.00    -0.299 N 
ATOM     25  C   UNL     1      -4.578   1.652  24.982  0.00  0.00    +0.110 C 
ENDROOT
BRANCH  19  26
ATOM     26  C   UNL     1      -3.713  -0.047  24.683  0.00  0.00    +0.001 A 
ATOM     27  C   UNL     1      -3.861  -0.338  23.925  0.00  0.00    +0.000 A 
ATOM     28  C   UNL     1      -4.000  -1.143  23.813  0.00  0.00    +0.000 A 
ATOM     29  C   UNL     1      -3.993  -1.657  24.457  0.00  0.00    +0.000 A 
ATOM     30  C   UNL     1      -3.845  -1.366  25.215  0.00  0.00    +0.000 A 
ATOM     31  C   UNL     1      -3.705  -0.561  25.327  0.00  0.00    +0.000 A 
ENDBRANCH  19  26
BRANCH  12   9
ATOM      9  S   UNL     1      -4.060   3.242  25.192  0.00  0.00    +0.063 S 
ATOM     10  O   UNL     1      -4.095   3.351  24.374  0.00  0.00    -0.153 OA
ATOM     11  O   UNL     1      -4.025   3.134  26.009  0.00  0.00    -0.153 OA
BRANCH   9   6
ATOM      3  C   UNL     1      -1.982   4.583  25.279  0.00  0.00    +0.139 A 
ATOM      4  C   UNL     1      -2.352   4.444  24.556  0.00  0.00    +0.038 A 
ATOM      5  C   UNL     1      -3.045   3.996  24.527  0.00  0.00    +0.023 A 
ATOM      6  C   UNL     1      -3.367   3.690  25.221  0.00  0.00    +0.122 A 
ATOM      7  C   UNL     1      -2.997   3.829  25.945  0.00  0.00    +0.023 A 
ATOM      8  C   UNL     1      -2.303   4.276  25.974  0.00  0.00    +0.038 A 
BRANCH   3   2
ATOM      1  C   UNL     1      -0.708   4.929  24.732  0.00  0.00    +0.252 C 
ATOM      2  O   UNL     1      -1.288   5.030  25.309  0.00  0.00    -0.471 OA
ENDBRANCH   3   2
ENDBRANCH   9   6
ENDBRANCH  12   9
TORSDOF 4
ENDMDL
MODEL 2
REMARK VINA RESULT:     -14.8      1.601      4.193
REMARK  Name = 
REMARK  4 active torsions:
REMARK  status: ('A' for Active; 'I' for Inactive)
REMARK    1  A    between atoms: O_2  and  C_3
REMARK    2  A    between atoms: C_6  and  S_9
REMARK    3  A    between atoms: S_9  and  N_12
REMARK    4  A    between atoms: C_19  and  C_26
REMARK                            x       y       z     vdW  Elec       q    Type
REMARK                         _______ _______ _______ _____ _____    ______ ____
ROOT
ATOM     12  N   UNL     1      -4.462   1.487  24.565  0.00  0.00    -0.155 NA
ATOM     13  C   UNL     1      -4.959   2.146  24.432  0.00  0.00    +0.098 C 
ATOM     14  C   UNL     1      -4.296   2.874  24.518  0.00  0.00    +0.041 C 
ATOM     15  C   UNL     1      -3.883   3.575  24.558  0.00  0.00    +0.011 C 
ATOM     16  C   UNL     1      -3.749   2.889  24.623  0.00  0.00    +0.056 C 
ATOM     17  C   UNL     1      -4.401   2.196  24.537  0.00  0.00    +0.102 C 
ATOM     18  C   UNL     1      -3.062   2.301  24.789  0.00  0.00    +0.041 A 
ATOM     19  C   UNL     1      -2.252   2.291  24.945  0.00  0.00    +0.012 A 
ATOM     20  C   UNL     1      -1.864   1.572  25.061  0.00  0.00    +0.006 A 
ATOM     21  C   UNL     1      -2.285   0.864  25.019  0.00  0.00    +0.061 A 
ATOM     22  C   UNL     1      -3.095   0.875  24.863  0.00  0.00    +0.261 A 
ATOM     23  O   UNL     1      -3.516   0.166  24.822  0.00  0.00    -0.267 OA
ATOM     24  N   UNL     1      -3.483   1.593  24.747  0.00  0.00    -0.299 N 
ATOM     25  C   UNL     1      -3.585   2.252  24.691  0.00  0.00    +0.110 C 
ENDROOT
BRANCH  19  26
ATOM     26  C   UNL     1      -1.830   2.999  24.986  0.00  0.00    +0.001 A 
ATOM     27  C   UNL     1      -1.826   3.436  25.686  0.00  0.00    +0.000 A 
ATOM     28  C   UNL     1      -1.404   4.144  25.727  0.00  0.00    +0.000 A 
ATOM     29  C   UNL     1      -0.987   4.415  25.069  0.00  0.00    +0.000 A 
ATOM     30  C   UNL     1      -0.992   3.978  24.369  0.00  0.00    +0.000 A 
ATOM     31  C   UNL     1      -1.413   3.270  24.328  0.00  0.00    +0.000 A 
ENDBRANCH  19  26
BRANCH  12   9
ATOM      9  S   UNL     1      -4.237   0.698  24.653  0.00  0.00    +0.063 S 
ATOM     10  O   UNL     1      -4.444   0.728  25.451  0.00  0.00    -0.153 OA
ATOM     11  O   UNL     1      -4.030   0.668  23.854  0.00  0.00    -0.153 OA
BRANCH   9   6
ATOM      3  C   UNL     1      -3.562  -1.668  24.916  0.00  0.00    +0.139 A 
ATOM      4  C   UNL     1      -3.611  -1.335  24.164  0.00  0.00    +0.038 A 
ATOM      5  C   UNL     1      -3.836  -0.546  24.076  0.00  0.00    +0.023 A 
ATOM      6  C   UNL     1      -4.012  -0.091  24.741  0.00  0.00    +0.122 A 
ATOM      7  C   UNL     1      -3.962  -0.424  25.493  0.00  0.00    +0.023 A 
ATOM      8  C   UNL     1      -3.737  -1.213  25.581  0.00  0.00    +0.038 A 
BRANCH   3   2
ATOM      1  C   UNL     1      -3.553  -3.014  24.435  0.00  0.00    +0.252 C 
ATOM      2  O   UNL     1      -3.337  -2.457  25.004  0.00  0.00    -0.471 OA
ENDBRANCH   3   2
ENDBRANCH   9   6
ENDBRANCH  12   9
TORSDOF 4
ENDMDL
MODEL 3
REMARK VINA RESULT:     -14.5      1.589      2.655
REMARK  Name = 
REMARK  4 active torsions:
REMARK  status: ('A' for Active; 'I' for Inactive)
REMARK    1  A    between atoms: O_2  and  C_3
REMARK    2  A    between atoms: C_6  and  S_9
REMARK    3  A    between atoms: S_9  and  N_12
REMARK    4  A    between atoms: C_19  and  C_26
REMARK                            x       y       z     vdW  Elec       q    Type
REMARK                         _______ _______ _______ _____ _____    ______ ____
ROOT
ATOM     12  N   UNL     1      -1.974   1.306  24.475  0.00  0.00    -0.155 NA
ATOM     13  C   UNL     1      -1.216   0.980  24.342  0.00  0.00    +0.098 C 
ATOM     14  C   UNL     1      -1.442   0.018  24.375  0.00  0.00    +0.041 C 
ATOM     15  C   UNL     1      -1.462  -0.796  24.374  0.00  0.00    +0.011 C 
ATOM     16  C   UNL     1      -1.915  -0.266  24.455  0.00  0.00    +0.056 C 
ATOM     17  C   UNL     1      -1.681   0.659  24.421  0.00  0.00    +0.102 C 
ATOM     18  C   UNL     1      -2.805  -0.096  24.610  0.00  0.00    +0.041 A 
ATOM     19  C   UNL     1      -3.520  -0.488  24.732  0.00  0.00    +0.012 A 
ATOM     20  C   UNL     1      -4.212  -0.055  24.854  0.00  0.00    +0.006 A 
ATOM     21  C   UNL     1      -4.188   0.770  24.855  0.00  0.00    +0.061 A 
ATOM     22  C   UNL     1      -3.472   1.162  24.734  0.00  0.00    +0.261 A 
ATOM     23  O   UNL     1      -3.448   1.986  24.735  0.00  0.00    -0.267 OA
ATOM     24  N   UNL     1      -2.781   0.729  24.611  0.00  0.00    -0.299 N 
ATOM     25  C   UNL     1      -2.370   0.206  24.537  0.00  0.00    +0.110 C 
ENDROOT
BRANCH  19  26
ATOM     26  C   UNL     1      -3.544  -1.313  24.731  0.00  0.00    +0.001 A 
ATOM     27  C   UNL     1      -3.733  -1.719  24.038  0.00  0.00    +0.000 A 
ATOM     28  C   UNL     1      -3.757  -2.544  24.037  0.00  0.00    +0.000 A 
ATOM     29  C   UNL     1      -3.592  -2.962  24.728  0.00  0.00    +0.000 A 
ATOM     30  C   UNL     1      -3.403  -2.556  25.421  0.00  0.00    +0.000 A 
ATOM     31  C   UNL     1      -3.379  -1.731  25.422  0.00  0.00    +0.000 A 
ENDBRANCH  19  26
BRANCH  12   9
ATOM      9  S   UNL     1      -2.557   1.881  24.580  0.00  0.00    +0.063 S 
ATOM     10  O   UNL     1      -2.704   1.879  23.768  0.00  0.00    -0.153 OA
ATOM     11  O   UNL     1      -2.409   1.883  25.392  0.00  0.00    -0.153 OA
BRANCH   9   6
ATOM      3  C   UNL     1      -4.304   3.605  24.894  0.00  0.00    +0.139 A 
ATOM      4  C   UNL     1      -3.869   3.337  25.541  0.00  0.00    +0.038 A 
ATOM      5  C   UNL     1      -3.286   2.762  25.436  0.00  0.00    +0.023 A 
ATOM      6  C   UNL     1      -3.140   2.456  24.685  0.00  0.00    +0.122 A 
ATOM      7  C   UNL     1      -3.575   2.724  24.038  0.00  0.00    +0.023 A 
ATOM      8  C   UNL     1      -4.158   3.298  24.142  0.00  0.00    +0.038 A 
BRANCH   3   2
ATOM      1  C   UNL     1      -5.520   4.037  25.508  0.00  0.00    +0.252 C 
ATOM      2  O   UNL     1      -4.887   4.180  24.998  0.00  0.00    -0.471 OA
ENDBRANCH   3   2
ENDBRANCH   9   6
ENDBRANCH  12   9
TORSDOF 4
ENDMDL
