MODEL 1
REMARK VINA RESULT:      -9.8      0.000      0.000
REMARK  Name = 
REMARK  5 active torsions:
REMARK  status: ('A' for Active; 'I' for Inactive)
REMARK    1  A    between atoms: C_5  and  N_8
REMARK    2  A    between atoms: N_8  and  C_9
REMARK    3  A    between atoms: C_12  and  C_13
REMARK    4  A    between atoms: C_13  and  N_14
REMARK    5  A    between atoms: N_17  and  C_18
REMARK                            x       y       z     vdW  Elec       q    Type
REMARK                         _______ _______ _______ _____ _____    ______ ____
ROOT
ATOM      9  C   UNL     1      -4.115   0.115  24.342  0.00  0.00    +0.135 C 
ATOM     10  C   UNL     1      -3.441   0.161  23.869  0.00  0.00    +0.162 C 
ATOM     11  O   UNL     1      -3.170   0.940  23.886  0.00  0.00    -0.350 OA
ATOM     12  C   UNL     1      -3.676   1.376  24.369  0.00  0.00    +0.169 C 
ATOM     24  C   UNL     1      -4.261   0.866  24.652  0.00  0.00    +0.199 C 
ATOM     25  O   UNL     1      -4.881   1.072  25.155  0.00  0.00    -0.219 OA
ENDROOT
BRANCH   9   8
ATOM      8  N   UNL     1      -4.565  -0.562  24.483  0.00  0.00    -0.216 NA
BRANCH   8   5
ATOM      1  C   UNL     1      -3.102  -3.518  24.591  0.00  0.00    +0.090 C 
ATOM      2  N   UNL     1      -3.468  -2.779  24.564  0.00  0.00    -0.271 NA
ATOM      3  C   UNL     1      -3.405  -2.264  25.206  0.00  0.00    +0.074 C 
ATOM      4  C   UNL     1      -3.771  -1.525  25.178  0.00  0.00    +0.035 C 
ATOM      5  C   UNL     1      -4.199  -1.301  24.510  0.00  0.00    +0.076 C 
ATOM      6  C   UNL     1      -4.262  -1.817  23.869  0.00  0.00    +0.035 C 
ATOM      7  C   UNL     1      -3.897  -2.556  23.895  0.00  0.00    +0.074 C 
ENDBRANCH   8   5
ENDBRANCH   9   8
BRANCH  12  13
ATOM     13  C   UNL     1      -3.610   2.181  24.540  0.00  0.00    +0.149 C 
BRANCH  13  14
ATOM     14  N   UNL     1      -2.999   2.450  25.024  0.00  0.00    -0.184 NA
ATOM     15  C   UNL     1      -2.641   3.177  24.868  0.00  0.00    +0.344 C 
ATOM     16  O   UNL     1      -2.895   3.634  24.231  0.00  0.00    -0.249 OA
ATOM     17  N   UNL     1      -2.029   3.447  25.352  0.00  0.00    -0.161 NA
BRANCH  17  18
ATOM     18  C   UNL     1      -1.671   4.174  25.197  0.00  0.00    +0.075 A 
ATOM     19  C   UNL     1      -0.920   4.199  24.856  0.00  0.00    +0.017 A 
ATOM     20  C   UNL     1      -0.562   4.926  24.700  0.00  0.00    +0.001 A 
ATOM     21  C   UNL     1      -0.955   5.627  24.885  0.00  0.00    +0.000 A 
ATOM     22  C   UNL     1      -1.705   5.602  25.226  0.00  0.00    +0.001 A 
ATOM     23  C   UNL     1      -2.064   4.875  25.381  0.00  0.00    +0.017 A 
ENDBRANCH  17  18
ENDBRANCH  13  14
ENDBRANCH  12  13
TORSDOF 5
ENDMDL
MODEL 2
REMARK VINA RESULT:      -9.4      1.679      6.146
REMARK  Name = 
REMARK  5 active torsions:
REMARK  status: ('A' for Active; 'I' for Inactive)
REMARK    1  A    between atoms: C_5  and  N_8
REMARK    2  A    between atoms: N_8  and  C_9
REMARK    3  A    between atoms: C_12  and  C_13
REMARK    4  A    between atoms: C_13  and  N_14
REMARK    5  A    between atoms: N_17  and  C_18
REMARK                            x       y       z     vdW  Elec       q    Type
REMARK                         _______ _______ _______ _____ _____    ______ ____
ROOT
ATOM      9  C   UNL     1      -0.736   2.311  24.893  0.00  0.00    +0.135 C 
ATOM     10  C   UNL     1      -0.976   2.304  24.104  0.00  0.00    +0.162 C 
ATOM     11  O   UNL     1      -1.251   1.546  23.927  0.00  0.00    -0.350 OA
ATOM     12  C   UNL     1      -1.181   1.085  24.607  0.00  0.00    +0.169 C 
ATOM     24  C   UNL     1      -0.863   1.557  25.205  0.00  0.00    +0.199 C 
ATOM     25  O   UNL     1      -0.701   1.317  25.977  0.00  0.00    -0.219 OA
ENDROOT
BRANCH   9   8
ATOM      8  N   UNL     1      -0.425   2.956  25.301  0.00  0.00    -0.216 NA
BRANCH   8   5
ATOM      1  C   UNL     1      -1.881   5.909  25.068  0.00  0.00    +0.090 C 
ATOM      2  N   UNL     1      -1.517   5.171  25.126  0.00  0.00    -0.271 NA
ATOM      3  C   UNL     1      -0.810   5.026  24.725  0.00  0.00    +0.074 C 
ATOM      4  C   UNL     1      -0.447   4.288  24.783  0.00  0.00    +0.035 C 
ATOM      5  C   UNL     1      -0.789   3.695  25.242  0.00  0.00    +0.076 C 
ATOM      6  C   UNL     1      -1.495   3.840  25.644  0.00  0.00    +0.035 C 
ATOM      7  C   UNL     1      -1.859   4.577  25.586  0.00  0.00    +0.074 C 
ENDBRANCH   8   5
ENDBRANCH   9   8
BRANCH  12  13
ATOM     13  C   UNL     1      -1.393   0.290  24.677  0.00  0.00    +0.149 C 
BRANCH  13  14
ATOM     14  N   UNL     1      -2.178   0.084  24.821  0.00  0.00    -0.184 NA
ATOM     15  C   UNL     1      -2.449  -0.669  24.621  0.00  0.00    +0.344 C 
ATOM     16  O   UNL     1      -1.935  -1.215  24.280  0.00  0.00    -0.249 OA
ATOM     17  N   UNL     1      -3.236  -0.876  24.765  0.00  0.00    -0.161 NA
BRANCH  17  18
ATOM     18  C   UNL     1      -3.506  -1.629  24.566  0.00  0.00    +0.075 A 
ATOM     19  C   UNL     1      -3.995  -1.731  23.908  0.00  0.00    +0.017 A 
ATOM     20  C   UNL     1      -4.266  -2.484  23.709  0.00  0.00    +0.001 A 
ATOM     21  C   UNL     1      -4.049  -3.135  24.166  0.00  0.00    +0.000 A 
ATOM     22  C   UNL     1      -3.561  -3.033  24.823  0.00  0.00    +0.001 A 
ATOM     23  C   UNL     1      -3.290  -2.280  25.023  0.00  0.00    +0.017 A 
ENDBRANCH  17  18
ENDBRANCH  13  14
ENDBRANCH  12  13
TORSDOF 5
ENDMDL
MODEL 3
REMARK VINA RESULT:      -9.2      1.884      2.261
REMARK  Name = 
REMARK  5 active torsions:
REMARK  status: ('A' for Active; 'I' for Inactive)
REMARK    1  A    between atoms: C_5  and  N_8
REMARK    2  A    between atoms: N_8  and  C_9
REMARK    3  A    between atoms: C_12  and  C_13
REMARK    4  A    between atoms: C_13  and  N_14
REMARK    5  A    between atoms: N_17  and  C_18
REMARK                            x       y       z     vdW  Elec       q    Type
REMARK                         _______ _______ _______ _____ _____    ______ ____
ROOT
ATOM      9  C   UNL     1      -1.119  -0.943  25.057  0.00  0.00    +0.135 C 
ATOM     10  C   UNL     1      -0.859  -0.804  24.287  0.00  0.00    +0.162 C 
ATOM     11  O   UNL     1      -0.623  -0.015  24.235  0.00  0.00    -0.350 OA
ATOM     12  C   UNL     1      -0.738   0.334  24.973  0.00  0.00    +0.169 C 
ATOM     24  C   UNL     1      -1.044  -0.239  25.482  0.00  0.00    +0.199 C 
ATOM     25  O   UNL     1      -1.241  -0.128  26.276  0.00  0.00    -0.219 OA
ENDROOT
BRANCH   9   8
ATOM      8  N   UNL     1      -1.403  -1.659  25.352  0.00  0.00    -0.216 NA
BRANCH   8   5
ATOM      1  C   UNL     1      -4.098  -3.030  24.028  0.00  0.00    +0.090 C 
ATOM      2  N   UNL     1      -3.424  -2.688  24.359  0.00  0.00    -0.271 NA
ATOM      3  C   UNL     1      -2.675  -2.908  24.092  0.00  0.00    +0.074 C 
ATOM      4  C   UNL     1      -2.002  -2.565  24.423  0.00  0.00    +0.035 C 
ATOM      5  C   UNL     1      -2.077  -2.002  25.021  0.00  0.00    +0.076 C 
ATOM      6  C   UNL     1      -2.827  -1.781  25.288  0.00  0.00    +0.035 C 
ATOM      7  C   UNL     1      -3.500  -2.124  24.957  0.00  0.00    +0.074 C 
ENDBRANCH   8   5
ENDBRANCH   9   8
BRANCH  12  13
ATOM     13  C   UNL     1      -0.575   1.119  25.170  0.00  0.00    +0.149 C 
BRANCH  13  14
ATOM     14  N   UNL     1      -0.762   1.723  24.640  0.00  0.00    -0.184 NA
ATOM     15  C   UNL     1      -0.888   2.489  24.918  0.00  0.00    +0.344 C 
ATOM     16  O   UNL     1      -0.826   2.651  25.724  0.00  0.00    -0.249 OA
ATOM     17  N   UNL     1      -1.076   3.095  24.389  0.00  0.00    -0.161 NA
BRANCH  17  18
ATOM     18  C   UNL     1      -1.201   3.861  24.667  0.00  0.00    +0.075 A 
ATOM     19  C   UNL     1      -0.609   4.431  24.587  0.00  0.00    +0.017 A 
ATOM     20  C   UNL     1      -0.735   5.197  24.865  0.00  0.00    +0.001 A 
ATOM     21  C   UNL     1      -1.450   5.394  25.222  0.00  0.00    +0.000 A 
ATOM     22  C   UNL     1      -2.042   4.825  25.303  0.00  0.00    +0.001 A 
ATOM     23  C   UNL     1      -1.917   4.058  25.025  0.00  0.00    +0.017 A 
ENDBRANCH  17  18
ENDBRANCH  13  14
ENDBRANCH  12  13
TORSDOF 5
ENDMDL
MODEL 4
REMARK VINA RESULT:      -9.0      0.993      5.816
REMARK  Name = 
REMARK  5 active torsions:
REMARK  status: ('A' for Active; 'I' for Inactive)
REMARK    1  A    between atoms: C_5  and  N_8
REMARK    2  A    between atoms: N_8  and  C_9
REMARK    3  A    between atoms: C_12  and  C_13
REMARK    4  A    between atoms: C_13  and  N_14
REMARK    5  A    between atoms: N_17  and  C_18
REMARK                            x       y       z     vdW  Elec       q    Type
REMARK                         _______ _______ _______ _____ _____    ______ ____
ROOT
ATOM      9  C   UNL     1      -3.574   3.200  24.869  0.00  0.00    +0.135 C 
ATOM     10  C   UNL     1      -3.519   3.147  24.048  0.00  0.00    +0.162 C 
ATOM     11  O   UNL     1      -3.788   2.401  23.821  0.00  0.00    -0.350 OA
ATOM     12  C   UNL     1      -4.010   1.993  24.502  0.00  0.00    +0.169 C 
ATOM     24  C   UNL     1      -3.878   2.486  25.150  0.00  0.00    +0.199 C 
ATOM     25  O   UNL     1      -4.024   2.298  25.940  0.00  0.00    -0.219 OA
ENDROOT
BRANCH   9   8
ATOM      8  N   UNL     1      -3.363   3.851  25.330  0.00  0.00    -0.216 NA
BRANCH   8   5
ATOM      1  C   UNL     1      -0.379   5.217  24.982  0.00  0.00    +0.090 C 
ATOM      2  N   UNL     1      -1.125   4.875  25.069  0.00  0.00    -0.271 NA
ATOM      3  C   UNL     1      -1.203   4.142  25.440  0.00  0.00    +0.074 C 
ATOM      4  C   UNL     1      -1.949   3.801  25.526  0.00  0.00    +0.035 C 
ATOM      5  C   UNL     1      -2.617   4.192  25.243  0.00  0.00    +0.076 C 
ATOM      6  C   UNL     1      -2.539   4.926  24.872  0.00  0.00    +0.035 C 
ATOM      7  C   UNL     1      -1.794   5.267  24.785  0.00  0.00    +0.074 C 
ENDBRANCH   8   5
ENDBRANCH   9   8
BRANCH  12  13
ATOM     13  C   UNL     1      -4.312   1.224  24.530  0.00  0.00    +0.149 C 
BRANCH  13  14
ATOM     14  N   UNL     1      -3.992   0.639  24.045  0.00  0.00    -0.184 NA
ATOM     15  C   UNL     1      -4.002  -0.149  24.291  0.00  0.00    +0.344 C 
ATOM     16  O   UNL     1      -4.331  -0.350  25.019  0.00  0.00    -0.249 OA
ATOM     17  N   UNL     1      -3.682  -0.736  23.806  0.00  0.00    -0.161 NA
BRANCH  17  18
ATOM     18  C   UNL     1      -3.692  -1.523  24.051  0.00  0.00    +0.075 A 
ATOM     19  C   UNL     1      -3.115  -1.800  24.573  0.00  0.00    +0.017 A 
ATOM     20  C   UNL     1      -3.125  -2.587  24.819  0.00  0.00    +0.001 A 
ATOM     21  C   UNL     1      -3.711  -3.098  24.543  0.00  0.00    +0.000 A 
ATOM     22  C   UNL     1      -4.287  -2.822  24.022  0.00  0.00    +0.001 A 
ATOM     23  C   UNL     1      -4.277  -2.034  23.776  0.00  0.00    +0.017 A 
ENDBRANCH  17  18
ENDBRANCH  13  14
ENDBRANCH  12  13
TORSDOF 5
ENDMDL
MODEL 5
REMARK VINA RESULT:      -6.5     17.923     19.709
REMARK  Name = 
REMARK  5 active torsions:
REMARK  status: ('A' for Active; 'I' for Inactive)
REMARK    1  A    between atoms: C_5  and  N_8
REMARK    2  A    between atoms: N_8  and  C_9
REMARK    3  A    between atoms: C_12  and  C_13
REMARK    4  A    between atoms: C_13  and  N_14
REMARK    5  A    between atoms: N_17  and  C_18
REMARK                            x       y       z     vdW  Elec       q    Type
REMARK                         _______ _______ _______ _____ _____    ______ ____
ROOT
ATOM      9  C   UNL     1      14.968   7.058  19.881  0.00  0.00    +0.135 C 
ATOM     10  C   UNL     1      15.507   7.043  19.256  0.00  0.00    +0.162 C 
ATOM     11  O   UNL     1      15.082   7.098  18.551  0.00  0.00    -0.350 OA
ATOM     12  C   UNL     1      14.281   7.147  18.740  0.00  0.00    +0.169 C 
ATOM     24  C   UNL     1      14.210   7.123  19.562  0.00  0.00    +0.199 C 
ATOM     25  O   UNL     1      13.504   7.157  19.988  0.00  0.00    -0.219 OA
ENDROOT
BRANCH   9   8
ATOM      8  N   UNL     1      15.153   7.016  20.683  0.00  0.00    -0.216 NA
BRANCH   8   5
ATOM      1  C   UNL     1      17.405   9.061  21.963  0.00  0.00    +0.090 C 
ATOM      2  N   UNL     1      16.843   8.550  21.643  0.00  0.00    -0.271 NA
ATOM      3  C   UNL     1      17.054   7.779  21.438  0.00  0.00    +0.074 C 
ATOM      4  C   UNL     1      16.491   7.268  21.118  0.00  0.00    +0.035 C 
ATOM      5  C   UNL     1      15.717   7.527  21.003  0.00  0.00    +0.076 C 
ATOM      6  C   UNL     1      15.505   8.298  21.209  0.00  0.00    +0.035 C 
ATOM      7  C   UNL     1      16.068   8.810  21.528  0.00  0.00    +0.074 C 
ENDBRANCH   8   5
ENDBRANCH   9   8
BRANCH  12  13
ATOM     13  C   UNL     1      13.659   7.210  18.200  0.00  0.00    +0.149 C 
BRANCH  13  14
ATOM     14  N   UNL     1      13.313   7.945  18.055  0.00  0.00    -0.184 NA
ATOM     15  C   UNL     1      12.691   8.008  17.517  0.00  0.00    +0.344 C 
ATOM     16  O   UNL     1      12.416   7.337  17.125  0.00  0.00    -0.249 OA
ATOM     17  N   UNL     1      12.345   8.743  17.371  0.00  0.00    -0.161 NA
BRANCH  17  18
ATOM     18  C   UNL     1      11.723   8.805  16.833  0.00  0.00    +0.075 A 
ATOM     19  C   UNL     1      11.874   9.031  16.053  0.00  0.00    +0.017 A 
ATOM     20  C   UNL     1      11.252   9.094  15.515  0.00  0.00    +0.001 A 
ATOM     21  C   UNL     1      10.481   8.931  15.755  0.00  0.00    +0.000 A 
ATOM     22  C   UNL     1      10.329   8.705  16.533  0.00  0.00    +0.001 A 
ATOM     23  C   UNL     1      10.951   8.642  17.073  0.00  0.00    +0.017 A 
ENDBRANCH  17  18
ENDBRANCH  13  14
ENDBRANCH  12  13
TORSDOF 5
ENDMDL
MODEL 6
REMARK VINA RESULT:      -6.0     17.498     19.146
REMARK  Name = 
REMARK  5 active torsions:
REMARK  status: ('A' for Active; 'I' for Inactive)
REMARK    1  A    between atoms: C_5  and  N_8
REMARK    2  A    between atoms: N_8  and  C_9
REMARK    3  A    between atoms: C_12  and  C_13
REMARK    4  A    between atoms: C_13  and  N_14
REMARK    5  A    between atoms: N_17  and  C_18
REMARK                            x       y       z     vdW  Elec       q    Type
REMARK                         _______ _______ _______ _____ _____    ______ ____
ROOT
ATOM      9  C   UNL     1      11.780   8.051  18.406  0.00  0.00    +0.135 C 
ATOM     10  C   UNL     1      11.905   7.285  18.128  0.00  0.00    +0.162 C 
ATOM     11  O   UNL     1      12.530   6.957  18.554  0.00  0.00    -0.350 OA
ATOM     12  C   UNL     1      12.792   7.521  19.096  0.00  0.00    +0.169 C 
ATOM     24  C   UNL     1      12.328   8.198  19.005  0.00  0.00    +0.199 C 
ATOM     25  O   UNL     1      12.401   8.897  19.437  0.00  0.00    -0.219 OA
ENDROOT
BRANCH   9   8
ATOM      8  N   UNL     1      11.208   8.580  18.134  0.00  0.00    -0.216 NA
BRANCH   8   5
ATOM      1  C   UNL     1      10.847   9.094  14.894  0.00  0.00    +0.090 C 
ATOM      2  N   UNL     1      10.937   8.965  15.704  0.00  0.00    -0.271 NA
ATOM      3  C   UNL     1      11.677   9.060  16.057  0.00  0.00    +0.074 C 
ATOM      4  C   UNL     1      11.766   8.931  16.867  0.00  0.00    +0.035 C 
ATOM      5  C   UNL     1      11.118   8.708  17.324  0.00  0.00    +0.076 C 
ATOM      6  C   UNL     1      10.378   8.614  16.971  0.00  0.00    +0.035 C 
ATOM      7  C   UNL     1      10.287   8.742  16.161  0.00  0.00    +0.074 C 
ENDBRANCH   8   5
ENDBRANCH   9   8
BRANCH  12  13
ATOM     13  C   UNL     1      13.410   7.425  19.636  0.00  0.00    +0.149 C 
BRANCH  13  14
ATOM     14  N   UNL     1      14.191   7.438  19.373  0.00  0.00    -0.184 NA
ATOM     15  C   UNL     1      14.799   7.206  19.880  0.00  0.00    +0.344 C 
ATOM     16  O   UNL     1      14.626   6.962  20.648  0.00  0.00    -0.249 OA
ATOM     17  N   UNL     1      15.582   7.218  19.618  0.00  0.00    -0.161 NA
BRANCH  17  18
ATOM     18  C   UNL     1      16.190   6.987  20.125  0.00  0.00    +0.075 A 
ATOM     19  C   UNL     1      16.242   7.312  20.882  0.00  0.00    +0.017 A 
ATOM     20  C   UNL     1      16.850   7.080  21.389  0.00  0.00    +0.001 A 
ATOM     21  C   UNL     1      17.405   6.525  21.140  0.00  0.00    +0.000 A 
ATOM     22  C   UNL     1      17.354   6.200  20.384  0.00  0.00    +0.001 A 
ATOM     23  C   UNL     1      16.746   6.431  19.876  0.00  0.00    +0.017 A 
ENDBRANCH  17  18
ENDBRANCH  13  14
ENDBRANCH  12  13
TORSDOF 5
ENDMDL
