REMARK  Name = 
REMARK  6 active torsions:
REMARK  status: ('A' for Active; 'I' for Inactive)
REMARK    1  A    between atoms: O_2  and  C_3
REMARK    2  A    between atoms: C_6  and  C_9
REMARK    3  A    between atoms: C_12  and  C_14
REMARK    4  A    between atoms: C_16  and  N_20
REMARK    5  A    between atoms: N_20  and  C_21
REMARK    6  A    between atoms: C_21  and  C_22
REMARK                            x       y       z     vdW  Elec       q    Type
REMARK                         _______ _______ _______ _____ _____    ______ ____
ROOT
ATOM     14  C   UNL     1      -0.778  -6.215   0.000  0.00  0.00    +0.139 C 
ATOM     15  C   UNL     1      -0.523  -7.000   0.000  0.00  0.00    +0.044 C 
ATOM     16  C   UNL     1      -1.191  -7.484   0.000  0.00  0.00    +0.091 C 
ATOM     17  C   UNL     1      -1.858  -7.000   0.000  0.00  0.00    +0.090 C 
ATOM     18  N   UNL     1      -1.603  -6.215   0.000  0.00  0.00    -0.264 NA
ATOM     19  C   UNL     1      -2.088  -5.548   0.000  0.00  0.00    +0.090 C 
ENDROOT
BRANCH  14  12
ATOM      9  C   UNL     1       0.119  -4.278   0.000  0.00  0.00    +0.203 A 
ATOM     10  N   UNL     1       0.786  -4.763   0.000  0.00  0.00    -0.056 NA
ATOM     11  O   UNL     1       0.531  -5.548   0.000  0.00  0.00    -0.336 OA
ATOM     12  C   UNL     1      -0.293  -5.548   0.000  0.00  0.00    +0.251 A 
ATOM     13  N   UNL     1      -0.548  -4.763   0.000  0.00  0.00    -0.190 NA
BRANCH   9   6
ATOM      3  C   UNL     1       0.119  -1.803   0.000  0.00  0.00    +0.139 A 
ATOM      4  C   UNL     1       0.834  -2.216   0.000  0.00  0.00    +0.037 A 
ATOM      5  C   UNL     1       0.834  -3.041   0.000  0.00  0.00    +0.006 A 
ATOM      6  C   UNL     1       0.119  -3.453   0.000  0.00  0.00    +0.039 A 
ATOM      7  C   UNL     1      -0.596  -3.041   0.000  0.00  0.00    +0.006 A 
ATOM      8  C   UNL     1      -0.596  -2.216   0.000  0.00  0.00    +0.037 A 
BRANCH   3   2
ATOM      1  C   UNL     1      -0.596  -0.566   0.000  0.00  0.00    +0.252 C 
ATOM      2  O   UNL     1       0.119  -0.978   0.000  0.00  0.00    -0.471 OA
ENDBRANCH   3   2
ENDBRANCH   9   6
ENDBRANCH  14  12
BRANCH  16  20
ATOM     20  N   UNL     1      -1.191  -8.309   0.000  0.00  0.00    -0.213 NA
BRANCH  20  21
ATOM     21  C   UNL     1      -0.476  -8.722   0.000  0.00  0.00    +0.115 C 
BRANCH  21  22
ATOM     22  C   UNL     1      -0.476  -9.547   0.000  0.00  0.00    -0.005 A 
ATOM     23  C   UNL     1       0.238  -9.960   0.000  0.00  0.00    -0.001 A 
ATOM     24  C   UNL     1       0.238 -10.784   0.000  0.00  0.00    +0.029 A 
ATOM     25  C   UNL     1      -0.476 -11.197   0.000  0.00  0.00    +0.140 A 
ATOM     26  F   UNL     1      -0.476 -12.022   0.000  0.00  0.00    -0.204 F 
ATOM     27  C   UNL     1      -1.191 -10.784   0.000  0.00  0.00    +0.029 A 
ATOM     28  C   UNL     1      -1.191  -9.960   0.000  0.00  0.00    -0.001 A 
ENDBRANCH  21  22
ENDBRANCH  20  21
ENDBRANCH  16  20
TORSDOF 6
