MODEL 1
REMARK VINA RESULT:     -13.2      0.000      0.000
REMARK  Name = 
REMARK  8 active torsions:
REMARK  status: ('A' for Active; 'I' for Inactive)
REMARK    1  A    between atoms: C_5  and  C_8
REMARK    2  A    between atoms: C_10  and  C_11
REMARK    3  A    between atoms: C_11  and  C_12
REMARK    4  A    between atoms: C_12  and  N_16
REMARK    5  A    between atoms: N_16  and  C_17
REMARK    6  A    between atoms: C_17  and  C_18
REMARK    7  A    between atoms: C_21  and  O_22
REMARK    8  A    between atoms: O_22  and  C_23
REMARK                            x       y       z     vdW  Elec       q    Type
REMARK                         _______ _______ _______ _____ _____    ______ ____
ROOT
ATOM     12  C   UNL     1      -5.083   2.118  25.026  0.00  0.00    +0.120 C 
ATOM     13  C   UNL     1      -5.455   2.676  25.508  0.00  0.00    +0.161 C 
ATOM     14  O   UNL     1      -6.187   2.338  25.332  0.00  0.00    -0.351 OA
ATOM     15  C   UNL     1      -5.816   1.782  24.850  0.00  0.00    +0.161 C 
ENDROOT
BRANCH  12  11
ATOM     11  C   UNL     1      -4.711   1.562  24.544  0.00  0.00    +0.070 C 
BRANCH  11  10
ATOM      8  C   UNL     1      -4.217  -0.484  24.901  0.00  0.00    +0.177 A 
ATOM      9  C   UNL     1      -4.325   0.152  24.387  0.00  0.00    +0.058 A 
ATOM     10  C   UNL     1      -4.547   0.808  24.835  0.00  0.00    +0.102 A 
ATOM     29  N   UNL     1      -4.576   0.578  25.626  0.00  0.00    -0.081 NA
ATOM     30  O   UNL     1      -4.372  -0.221  25.667  0.00  0.00    -0.354 OA
BRANCH   8   5
ATOM      1  F   UNL     1      -3.321  -3.543  24.045  0.00  0.00    -0.204 F 
ATOM      2  C   UNL     1      -3.545  -2.778  24.259  0.00  0.00    +0.140 A 
ATOM      3  C   UNL     1      -3.237  -2.433  24.943  0.00  0.00    +0.030 A 
ATOM      4  C   UNL     1      -3.461  -1.669  25.156  0.00  0.00    +0.005 A 
ATOM      5  C   UNL     1      -3.993  -1.248  24.687  0.00  0.00    +0.037 A 
ATOM      6  C   UNL     1      -4.301  -1.593  24.003  0.00  0.00    +0.005 A 
ATOM      7  C   UNL     1      -4.077  -2.358  23.790  0.00  0.00    +0.030 A 
ENDBRANCH   8   5
ENDBRANCH  11  10
ENDBRANCH  12  11
BRANCH  12  16
ATOM     16  N   UNL     1      -4.351   2.456  25.202  0.00  0.00    -0.211 NA
BRANCH  16  17
ATOM     17  C   UNL     1      -4.225   3.260  25.068  0.00  0.00    +0.115 C 
BRANCH  17  18
ATOM     18  C   UNL     1      -3.477   3.586  25.190  0.00  0.00    -0.005 A 
ATOM     19  C   UNL     1      -2.918   3.571  24.583  0.00  0.00    +0.000 A 
ATOM     20  C   UNL     1      -2.169   3.896  24.704  0.00  0.00    +0.037 A 
ATOM     21  C   UNL     1      -1.980   4.237  25.432  0.00  0.00    +0.147 A 
ATOM     27  C   UNL     1      -2.540   4.251  26.038  0.00  0.00    +0.037 A 
ATOM     28  C   UNL     1      -3.288   3.926  25.916  0.00  0.00    +0.000 A 
BRANCH  21  22
ATOM     22  O   UNL     1      -1.231   4.562  25.553  0.00  0.00    -0.404 OA
BRANCH  22  23
ATOM     23  C   UNL     1      -0.918   5.091  25.003  0.00  0.00    +0.575 C 
ATOM     24  F   UNL     1      -0.604   5.619  24.453  0.00  0.00    -0.133 F 
ATOM     25  F   UNL     1      -0.472   4.481  24.671  0.00  0.00    -0.133 F 
ATOM     26  F   UNL     1      -1.363   5.701  25.335  0.00  0.00    -0.133 F 
ENDBRANCH  22  23
ENDBRANCH  21  22
ENDBRANCH  17  18
ENDBRANCH  16  17
ENDBRANCH  12  16
TORSDOF 8
ENDMDL
MODEL 2
REMARK VINA RESULT:     -13.2      0.916      5.647
REMARK  Name = 
REMARK  8 active torsions:
REMARK  status: ('A' for Active; 'I' for Inactive)
REMARK    1  A    between atoms: C_5  and  C_8
REMARK    2  A    between atoms: C_10  and  C_11
REMARK    3  A    between atoms: C_11  and  C_12
REMARK    4  A    between atoms: C_12  and  N_16
REMARK    5  A    between atoms: N_16  and  C_17
REMARK    6  A    between atoms: C_17  and  C_18
REMARK    7  A    between atoms: C_21  and  O_22
REMARK    8  A    between atoms: O_22  and  C_23
REMARK                            x       y       z     vdW  Elec       q    Type
REMARK                         _______ _______ _______ _____ _____    ______ ____
ROOT
ATOM     12  C   UNL     1      -5.047   2.010  25.042  0.00  0.00    +0.120 C 
ATOM     13  C   UNL     1      -5.629   1.621  25.481  0.00  0.00    +0.161 C 
ATOM     14  O   UNL     1      -6.098   2.300  25.460  0.00  0.00    -0.351 OA
ATOM     15  C   UNL     1      -5.517   2.688  25.022  0.00  0.00    +0.161 C 
ENDROOT
BRANCH  12  11
ATOM     11  C   UNL     1      -4.466   2.398  24.604  0.00  0.00    +0.070 C 
BRANCH  11  10
ATOM      8  C   UNL     1      -2.890   3.699  25.221  0.00  0.00    +0.177 A 
ATOM      9  C   UNL     1      -3.243   3.211  24.657  0.00  0.00    +0.058 A 
ATOM     10  C   UNL     1      -3.940   2.911  24.979  0.00  0.00    +0.102 A 
ATOM     29  N   UNL     1      -4.019   3.212  25.742  0.00  0.00    -0.081 NA
ATOM     30  O   UNL     1      -3.371   3.700  25.892  0.00  0.00    -0.354 OA
BRANCH   8   5
ATOM      1  F   UNL     1      -0.059   5.355  24.860  0.00  0.00    -0.204 F 
ATOM      2  C   UNL     1      -0.767   4.941  24.950  0.00  0.00    +0.140 A 
ATOM      3  C   UNL     1      -0.770   4.116  24.915  0.00  0.00    +0.030 A 
ATOM      4  C   UNL     1      -1.478   3.703  25.005  0.00  0.00    +0.005 A 
ATOM      5  C   UNL     1      -2.183   4.113  25.131  0.00  0.00    +0.037 A 
ATOM      6  C   UNL     1      -2.179   4.937  25.166  0.00  0.00    +0.005 A 
ATOM      7  C   UNL     1      -1.471   5.351  25.076  0.00  0.00    +0.030 A 
ENDBRANCH   8   5
ENDBRANCH  11  10
ENDBRANCH  12  11
BRANCH  12  16
ATOM     16  N   UNL     1      -4.578   1.331  25.064  0.00  0.00    -0.211 NA
BRANCH  16  17
ATOM     17  C   UNL     1      -4.919   0.591  24.932  0.00  0.00    +0.115 C 
BRANCH  17  18
ATOM     18  C   UNL     1      -4.442  -0.081  24.891  0.00  0.00    -0.005 A 
ATOM     19  C   UNL     1      -4.360  -0.485  24.176  0.00  0.00    +0.000 A 
ATOM     20  C   UNL     1      -3.883  -1.157  24.134  0.00  0.00    +0.037 A 
ATOM     21  C   UNL     1      -3.488  -1.424  24.808  0.00  0.00    +0.147 A 
ATOM     27  C   UNL     1      -3.570  -1.020  25.523  0.00  0.00    +0.037 A 
ATOM     28  C   UNL     1      -4.047  -0.348  25.563  0.00  0.00    +0.000 A 
BRANCH  21  22
ATOM     22  O   UNL     1      -3.010  -2.096  24.766  0.00  0.00    -0.404 OA
BRANCH  22  23
ATOM     23  C   UNL     1      -3.353  -2.839  24.659  0.00  0.00    +0.575 C 
ATOM     24  F   UNL     1      -3.695  -3.581  24.553  0.00  0.00    -0.133 F 
ATOM     25  F   UNL     1      -3.501  -2.886  25.470  0.00  0.00    -0.133 F 
ATOM     26  F   UNL     1      -3.203  -2.792  23.849  0.00  0.00    -0.133 F 
ENDBRANCH  22  23
ENDBRANCH  21  22
ENDBRANCH  17  18
ENDBRANCH  16  17
ENDBRANCH  12  16
TORSDOF 8
ENDMDL
MODEL 3
REMARK VINA RESULT:     -11.7      2.522      3.528
REMARK  Name = 
REMARK  8 active torsions:
REMARK  status: ('A' for Active; 'I' for Inactive)
REMARK    1  A    between atoms: C_5  and  C_8
REMARK    2  A    between atoms: C_10  and  C_11
REMARK    3  A    between atoms: C_11  and  C_12
REMARK    4  A    between atoms: C_12  and  N_16
REMARK    5  A    between atoms: N_16  and  C_17
REMARK    6  A    between atoms: C_17  and  C_18
REMARK    7  A    between atoms: C_21  and  O_22
REMARK    8  A    between atoms: O_22  and  C_23
REMARK                            x       y       z     vdW  Elec       q    Type
REMARK                         _______ _______ _______ _____ _____    ______ ____
ROOT
ATOM     12  C   UNL     1      -0.729   1.829  24.828  0.00  0.00    +0.120 C 
ATOM     13  C   UNL     1      -0.534   2.458  24.330  0.00  0.00    +0.161 C 
ATOM     14  O   UNL     1       0.259   2.234  24.358  0.00  0.00    -0.351 OA
ATOM     15  C   UNL     1       0.064   1.606  24.856  0.00  0.00    +0.161 C 
ENDROOT
BRANCH  12  11
ATOM     11  C   UNL     1      -0.924   1.201  25.325  0.00  0.00    +0.070 C 
BRANCH  11  10
ATOM      8  C   UNL     1      -1.673  -0.703  24.714  0.00  0.00    +0.177 A 
ATOM      9  C   UNL     1      -1.753   0.001  25.137  0.00  0.00    +0.058 A 
ATOM     10  C   UNL     1      -1.077   0.455  25.007  0.00  0.00    +0.102 A 
ATOM     29  N   UNL     1      -0.578   0.032  24.504  0.00  0.00    -0.081 NA
ATOM     30  O   UNL     1      -0.947  -0.683  24.323  0.00  0.00    -0.354 OA
BRANCH   8   5
ATOM      1  F   UNL     1      -3.870  -3.162  24.605  0.00  0.00    -0.204 F 
ATOM      2  C   UNL     1      -3.321  -2.548  24.632  0.00  0.00    +0.140 A 
ATOM      3  C   UNL     1      -3.579  -1.765  24.690  0.00  0.00    +0.030 A 
ATOM      4  C   UNL     1      -3.029  -1.151  24.717  0.00  0.00    +0.005 A 
ATOM      5  C   UNL     1      -2.222  -1.318  24.687  0.00  0.00    +0.037 A 
ATOM      6  C   UNL     1      -1.964  -2.099  24.630  0.00  0.00    +0.005 A 
ATOM      7  C   UNL     1      -2.514  -2.713  24.603  0.00  0.00    +0.030 A 
ENDBRANCH   8   5
ENDBRANCH  11  10
ENDBRANCH  12  11
BRANCH  12  16
ATOM     16  N   UNL     1      -1.523   2.053  24.799  0.00  0.00    -0.211 NA
BRANCH  16  17
ATOM     17  C   UNL     1      -1.726   2.853  24.824  0.00  0.00    +0.115 C 
BRANCH  17  18
ATOM     18  C   UNL     1      -2.517   3.075  24.901  0.00  0.00    -0.005 A 
ATOM     19  C   UNL     1      -2.780   3.427  25.600  0.00  0.00    +0.000 A 
ATOM     20  C   UNL     1      -3.571   3.649  25.678  0.00  0.00    +0.037 A 
ATOM     21  C   UNL     1      -4.098   3.518  25.057  0.00  0.00    +0.147 A 
ATOM     27  C   UNL     1      -3.835   3.166  24.358  0.00  0.00    +0.037 A 
ATOM     28  C   UNL     1      -3.044   2.944  24.282  0.00  0.00    +0.000 A 
BRANCH  21  22
ATOM     22  O   UNL     1      -4.890   3.741  25.134  0.00  0.00    -0.404 OA
BRANCH  22  23
ATOM     23  C   UNL     1      -5.430   3.226  25.487  0.00  0.00    +0.575 C 
ATOM     24  F   UNL     1      -5.969   2.712  25.839  0.00  0.00    -0.133 F 
ATOM     25  F   UNL     1      -5.299   3.588  26.216  0.00  0.00    -0.133 F 
ATOM     26  F   UNL     1      -5.561   2.863  24.757  0.00  0.00    -0.133 F 
ENDBRANCH  22  23
ENDBRANCH  21  22
ENDBRANCH  17  18
ENDBRANCH  16  17
ENDBRANCH  12  16
TORSDOF 8
ENDMDL
MODEL 4
REMARK VINA RESULT:     -11.5      2.518      3.375
REMARK  Name = 
REMARK  8 active torsions:
REMARK  status: ('A' for Active; 'I' for Inactive)
REMARK    1  A    between atoms: C_5  and  C_8
REMARK    2  A    between atoms: C_10  and  C_11
REMARK    3  A    between atoms: C_11  and  C_12
REMARK    4  A    between atoms: C_12  and  N_16
REMARK    5  A    between atoms: N_16  and  C_17
REMARK    6  A    between atoms: C_17  and  C_18
REMARK    7  A    between atoms: C_21  and  O_22
REMARK    8  A    between atoms: O_22  and  C_23
REMARK                            x       y       z     vdW  Elec       q    Type
REMARK                         _______ _______ _______ _____ _____    ______ ____
ROOT
ATOM     12  C   UNL     1      -0.172   0.124  24.247  0.00  0.00    +0.120 C 
ATOM     13  C   UNL     1       0.111   0.469  23.552  0.00  0.00    +0.161 C 
ATOM     14  O   UNL     1       0.489  -0.238  23.356  0.00  0.00    -0.351 OA
ATOM     15  C   UNL     1       0.207  -0.583  24.050  0.00  0.00    +0.161 C 
ENDROOT
BRANCH  12  11
ATOM     11  C   UNL     1      -0.454  -0.221  24.941  0.00  0.00    +0.070 C 
BRANCH  11  10
ATOM      8  C   UNL     1      -2.080  -1.578  24.675  0.00  0.00    +0.177 A 
ATOM      9  C   UNL     1      -1.752  -0.824  24.607  0.00  0.00    +0.058 A 
ATOM     10  C   UNL     1      -0.983  -0.853  24.903  0.00  0.00    +0.102 A 
ATOM     29  N   UNL     1      -0.834  -1.624  25.154  0.00  0.00    -0.081 NA
ATOM     30  O   UNL     1      -1.513  -2.073  25.014  0.00  0.00    -0.354 OA
BRANCH   8   5
ATOM      1  F   UNL     1      -5.124  -2.465  23.759  0.00  0.00    -0.204 F 
ATOM      2  C   UNL     1      -4.363  -2.243  23.988  0.00  0.00    +0.140 A 
ATOM      3  C   UNL     1      -3.794  -2.821  24.145  0.00  0.00    +0.030 A 
ATOM      4  C   UNL     1      -3.033  -2.599  24.374  0.00  0.00    +0.005 A 
ATOM      5  C   UNL     1      -2.841  -1.800  24.446  0.00  0.00    +0.037 A 
ATOM      6  C   UNL     1      -3.409  -1.223  24.289  0.00  0.00    +0.005 A 
ATOM      7  C   UNL     1      -4.170  -1.445  24.060  0.00  0.00    +0.030 A 
ENDBRANCH   8   5
ENDBRANCH  11  10
ENDBRANCH  12  11
BRANCH  12  16
ATOM     16  N   UNL     1      -0.550   0.830  24.443  0.00  0.00    -0.211 NA
BRANCH  16  17
ATOM     17  C   UNL     1      -0.127   1.539  24.438  0.00  0.00    +0.115 C 
BRANCH  17  18
ATOM     18  C   UNL     1      -0.474   2.227  24.732  0.00  0.00    -0.005 A 
ATOM     19  C   UNL     1      -0.244   2.521  25.468  0.00  0.00    +0.000 A 
ATOM     20  C   UNL     1      -0.589   3.210  25.764  0.00  0.00    +0.037 A 
ATOM     21  C   UNL     1      -1.165   3.603  25.324  0.00  0.00    +0.147 A 
ATOM     27  C   UNL     1      -1.395   3.309  24.588  0.00  0.00    +0.037 A 
ATOM     28  C   UNL     1      -1.049   2.621  24.293  0.00  0.00    +0.000 A 
BRANCH  21  22
ATOM     22  O   UNL     1      -1.512   4.292  25.619  0.00  0.00    -0.404 OA
BRANCH  22  23
ATOM     23  C   UNL     1      -1.500   4.985  25.171  0.00  0.00    +0.575 C 
ATOM     24  F   UNL     1      -1.488   5.677  24.723  0.00  0.00    -0.133 F 
ATOM     25  F   UNL     1      -2.282   4.852  24.946  0.00  0.00    -0.133 F 
ATOM     26  F   UNL     1      -0.717   5.117  25.396  0.00  0.00    -0.133 F 
ENDBRANCH  22  23
ENDBRANCH  21  22
ENDBRANCH  17  18
ENDBRANCH  16  17
ENDBRANCH  12  16
TORSDOF 8
ENDMDL
