MODEL 1
REMARK VINA RESULT:     -12.3      0.000      0.000
REMARK  Name = 
REMARK  7 active torsions:
REMARK  status: ('A' for Active; 'I' for Inactive)
REMARK    1  A    between atoms: C_2  and  C_3
REMARK    2  A    between atoms: C_8  and  C_9
REMARK    3  A    between atoms: C_9  and  C_10
REMARK    4  A    between atoms: N_12  and  C_13
REMARK    5  A    between atoms: C_13  and  C_14
REMARK    6  A    between atoms: N_22  and  C_23
REMARK    7  A    between atoms: C_27  and  O_28
REMARK                            x       y       z     vdW  Elec       q    Type
REMARK                         _______ _______ _______ _____ _____    ______ ____
ROOT
ATOM      3  C   UNL     1      -5.047   2.020  25.126  0.00  0.00    +0.020 C 
ATOM      4  C   UNL     1      -5.039   1.204  25.009  0.00  0.00    +0.095 C 
ATOM      5  N   UNL     1      -4.341   0.825  24.787  0.00  0.00    -0.263 N 
ATOM      6  C   UNL     1      -3.650   1.263  24.682  0.00  0.00    +0.095 C 
ATOM      7  C   UNL     1      -3.657   2.079  24.800  0.00  0.00    +0.022 C 
ATOM      8  C   UNL     1      -4.355   2.457  25.022  0.00  0.00    +0.012 C 
ATOM     20  C   UNL     1      -4.334   0.008  24.670  0.00  0.00    +0.327 C 
ATOM     21  O   UNL     1      -5.025  -0.429  24.774  0.00  0.00    -0.250 OA
ATOM     22  N   UNL     1      -3.636  -0.370  24.448  0.00  0.00    -0.162 NA
ENDROOT
BRANCH  22  23
ATOM     23  C   UNL     1      -3.629  -1.186  24.331  0.00  0.00    +0.078 A 
ATOM     24  C   UNL     1      -4.225  -1.545  23.887  0.00  0.00    +0.017 A 
ATOM     25  C   UNL     1      -4.218  -2.361  23.770  0.00  0.00    +0.004 A 
ATOM     26  C   UNL     1      -3.614  -2.820  24.096  0.00  0.00    +0.037 A 
ATOM     27  C   UNL     1      -3.018  -2.462  24.540  0.00  0.00    +0.140 A 
ATOM     30  C   UNL     1      -3.025  -1.645  24.657  0.00  0.00    +0.054 A 
BRANCH  27  28
ATOM     28  O   UNL     1      -2.415  -2.921  24.866  0.00  0.00    -0.471 OA
ATOM     29  C   UNL     1      -1.637  -2.823  24.609  0.00  0.00    +0.252 C 
ENDBRANCH  27  28
ENDBRANCH  22  23
BRANCH   3   2
ATOM      1  C   UNL     1      -6.474   2.039  25.206  0.00  0.00    +0.000 C 
ATOM      2  C   UNL     1      -5.745   2.399  25.348  0.00  0.00    +0.002 C 
ENDBRANCH   3   2
BRANCH   8   9
ATOM      9  C   UNL     1      -4.363   3.275  25.139  0.00  0.00    +0.087 C 
BRANCH   9  10
ATOM     10  C   UNL     1      -3.779   3.630  25.602  0.00  0.00    +0.242 C 
ATOM     11  O   UNL     1      -3.852   3.640  26.424  0.00  0.00    -0.273 OA
ATOM     12  N   UNL     1      -3.122   3.976  25.242  0.00  0.00    -0.201 NA
BRANCH  12  13
ATOM     13  C   UNL     1      -2.538   4.331  25.705  0.00  0.00    +0.141 C 
BRANCH  13  14
ATOM     14  C   UNL     1      -1.834   4.586  25.357  0.00  0.00    -0.001 A 
ATOM     15  C   UNL     1      -1.755   5.370  25.115  0.00  0.00    -0.003 A 
ATOM     16  C   UNL     1      -1.051   5.625  24.767  0.00  0.00    -0.000 A 
ATOM     17  C   UNL     1      -0.428   5.096  24.662  0.00  0.00    -0.000 A 
ATOM     18  C   UNL     1      -0.507   4.310  24.904  0.00  0.00    -0.000 A 
ATOM     19  C   UNL     1      -1.211   4.056  25.252  0.00  0.00    -0.003 A 
ENDBRANCH  13  14
ENDBRANCH  12  13
ENDBRANCH   9  10
ENDBRANCH   8   9
TORSDOF 7
ENDMDL
MODEL 2
REMARK VINA RESULT:     -11.5      2.206      6.458
REMARK  Name = 
REMARK  7 active torsions:
REMARK  status: ('A' for Active; 'I' for Inactive)
REMARK    1  A    between atoms: C_2  and  C_3
REMARK    2  A    between atoms: C_8  and  C_9
REMARK    3  A    between atoms: C_9  and  C_10
REMARK    4  A    between atoms: N_12  and  C_13
REMARK    5  A    between atoms: C_13  and  C_14
REMARK    6  A    between atoms: N_22  and  C_23
REMARK    7  A    between atoms: C_27  and  O_28
REMARK                            x       y       z     vdW  Elec       q    Type
REMARK                         _______ _______ _______ _____ _____    ______ ____
ROOT
ATOM      3  C   UNL     1      -0.171   0.264  23.948  0.00  0.00    +0.020 C 
ATOM      4  C   UNL     1      -0.249   1.085  23.932  0.00  0.00    +0.095 C 
ATOM      5  N   UNL     1      -0.612   1.477  24.561  0.00  0.00    -0.263 N 
ATOM      6  C   UNL     1      -0.896   1.048  25.205  0.00  0.00    +0.095 C 
ATOM      7  C   UNL     1      -0.819   0.228  25.221  0.00  0.00    +0.022 C 
ATOM      8  C   UNL     1      -0.456  -0.165  24.592  0.00  0.00    +0.012 C 
ATOM     20  C   UNL     1      -0.689   2.298  24.545  0.00  0.00    +0.327 C 
ATOM     21  O   UNL     1      -0.405   2.727  23.901  0.00  0.00    -0.250 OA
ATOM     22  N   UNL     1      -1.051   2.691  25.174  0.00  0.00    -0.162 NA
ENDROOT
BRANCH  22  23
ATOM     23  C   UNL     1      -1.129   3.511  25.158  0.00  0.00    +0.078 A 
ATOM     24  C   UNL     1      -0.481   3.984  24.961  0.00  0.00    +0.017 A 
ATOM     25  C   UNL     1      -0.559   4.804  24.945  0.00  0.00    +0.004 A 
ATOM     26  C   UNL     1      -1.285   5.154  25.126  0.00  0.00    +0.037 A 
ATOM     27  C   UNL     1      -1.932   4.682  25.322  0.00  0.00    +0.140 A 
ATOM     30  C   UNL     1      -1.855   3.861  25.338  0.00  0.00    +0.054 A 
BRANCH  27  28
ATOM     28  O   UNL     1      -2.657   5.032  25.503  0.00  0.00    -0.471 OA
ATOM     29  C   UNL     1      -3.175   4.661  26.028  0.00  0.00    +0.252 C 
ENDBRANCH  27  28
ENDBRANCH  22  23
BRANCH   3   2
ATOM      1  C   UNL     1       0.871   0.185  22.974  0.00  0.00    +0.000 C 
ATOM      2  C   UNL     1       0.191  -0.129  23.319  0.00  0.00    +0.002 C 
ENDBRANCH   3   2
BRANCH   8   9
ATOM      9  C   UNL     1      -0.379  -0.986  24.608  0.00  0.00    +0.087 C 
BRANCH   9  10
ATOM     10  C   UNL     1      -0.957  -1.449  24.974  0.00  0.00    +0.242 C 
ATOM     11  O   UNL     1      -0.846  -1.710  25.749  0.00  0.00    -0.273 OA
ATOM     12  N   UNL     1      -1.644  -1.649  24.565  0.00  0.00    -0.201 NA
BRANCH  12  13
ATOM     13  C   UNL     1      -2.221  -2.110  24.931  0.00  0.00    +0.141 C 
BRANCH  13  14
ATOM     14  C   UNL     1      -2.959  -2.208  24.574  0.00  0.00    -0.001 A 
ATOM     15  C   UNL     1      -3.181  -2.947  24.284  0.00  0.00    -0.003 A 
ATOM     16  C   UNL     1      -3.919  -3.045  23.926  0.00  0.00    -0.000 A 
ATOM     17  C   UNL     1      -4.434  -2.404  23.860  0.00  0.00    -0.000 A 
ATOM     18  C   UNL     1      -4.211  -1.663  24.150  0.00  0.00    -0.000 A 
ATOM     19  C   UNL     1      -3.473  -1.566  24.507  0.00  0.00    -0.003 A 
ENDBRANCH  13  14
ENDBRANCH  12  13
ENDBRANCH   9  10
ENDBRANCH   8   9
TORSDOF 7
ENDMDL
MODEL 3
REMARK VINA RESULT:     -11.1      3.866      6.008
REMARK  Name = 
REMARK  7 active torsions:
REMARK  status: ('A' for Active; 'I' for Inactive)
REMARK    1  A    between atoms: C_2  and  C_3
REMARK    2  A    between atoms: C_8  and  C_9
REMARK    3  A    between atoms: C_9  and  C_10
REMARK    4  A    between atoms: N_12  and  C_13
REMARK    5  A    between atoms: C_13  and  C_14
REMARK    6  A    between atoms: N_22  and  C_23
REMARK    7  A    between atoms: C_27  and  O_28
REMARK                            x       y       z     vdW  Elec       q    Type
REMARK                         _______ _______ _______ _____ _____    ______ ____
ROOT
ATOM      3  C   UNL     1      -0.501  -0.205  24.432  0.00  0.00    +0.020 C 
ATOM      4  C   UNL     1      -1.037   0.320  24.774  0.00  0.00    +0.095 C 
ATOM      5  N   UNL     1      -1.044   1.112  24.541  0.00  0.00    -0.263 N 
ATOM      6  C   UNL     1      -0.516   1.378  23.967  0.00  0.00    +0.095 C 
ATOM      7  C   UNL     1       0.020   0.853  23.626  0.00  0.00    +0.022 C 
ATOM      8  C   UNL     1       0.028   0.061  23.858  0.00  0.00    +0.012 C 
ATOM     20  C   UNL     1      -1.581   1.637  24.884  0.00  0.00    +0.327 C 
ATOM     21  O   UNL     1      -2.110   1.371  25.458  0.00  0.00    -0.250 OA
ATOM     22  N   UNL     1      -1.589   2.428  24.652  0.00  0.00    -0.162 NA
ENDROOT
BRANCH  22  23
ATOM     23  C   UNL     1      -2.125   2.953  24.993  0.00  0.00    +0.078 A 
ATOM     24  C   UNL     1      -1.894   3.421  25.632  0.00  0.00    +0.017 A 
ATOM     25  C   UNL     1      -2.431   3.946  25.974  0.00  0.00    +0.004 A 
ATOM     26  C   UNL     1      -3.199   4.003  25.677  0.00  0.00    +0.037 A 
ATOM     27  C   UNL     1      -3.430   3.535  25.039  0.00  0.00    +0.140 A 
ATOM     30  C   UNL     1      -2.893   3.010  24.696  0.00  0.00    +0.054 A 
BRANCH  27  28
ATOM     28  O   UNL     1      -4.197   3.592  24.742  0.00  0.00    -0.471 OA
ATOM     29  C   UNL     1      -4.842   3.571  25.256  0.00  0.00    +0.252 C 
ENDBRANCH  27  28
ENDBRANCH  22  23
BRANCH   3   2
ATOM      1  C   UNL     1      -0.869  -1.226  25.362  0.00  0.00    +0.000 C 
ATOM      2  C   UNL     1      -0.493  -0.997  24.665  0.00  0.00    +0.002 C 
ENDBRANCH   3   2
BRANCH   8   9
ATOM      9  C   UNL     1       0.565  -0.464  23.516  0.00  0.00    +0.087 C 
BRANCH   9  10
ATOM     10  C   UNL     1       1.106  -0.194  22.954  0.00  0.00    +0.242 C 
ATOM     11  O   UNL     1       0.845   0.032  22.205  0.00  0.00    -0.273 OA
ATOM     12  N   UNL     1       1.908  -0.150  23.143  0.00  0.00    -0.201 NA
BRANCH  12  13
ATOM     13  C   UNL     1       2.448   0.120  22.582  0.00  0.00    +0.141 C 
BRANCH  13  14
ATOM     14  C   UNL     1       3.242   0.219  22.788  0.00  0.00    -0.001 A 
ATOM     15  C   UNL     1       3.660  -0.405  23.128  0.00  0.00    -0.003 A 
ATOM     16  C   UNL     1       4.453  -0.306  23.334  0.00  0.00    -0.000 A 
ATOM     17  C   UNL     1       4.828   0.416  23.200  0.00  0.00    -0.000 A 
ATOM     18  C   UNL     1       4.409   1.041  22.858  0.00  0.00    -0.000 A 
ATOM     19  C   UNL     1       3.616   0.942  22.653  0.00  0.00    -0.003 A 
ENDBRANCH  13  14
ENDBRANCH  12  13
ENDBRANCH   9  10
ENDBRANCH   8   9
TORSDOF 7
ENDMDL
MODEL 4
REMARK VINA RESULT:     -10.9      2.301      3.403
REMARK  Name = 
REMARK  7 active torsions:
REMARK  status: ('A' for Active; 'I' for Inactive)
REMARK    1  A    between atoms: C_2  and  C_3
REMARK    2  A    between atoms: C_8  and  C_9
REMARK    3  A    between atoms: C_9  and  C_10
REMARK    4  A    between atoms: N_12  and  C_13
REMARK    5  A    between atoms: C_13  and  C_14
REMARK    6  A    between atoms: N_22  and  C_23
REMARK    7  A    between atoms: C_27  and  O_28
REMARK                            x       y       z     vdW  Elec       q    Type
REMARK                         _______ _______ _______ _____ _____    ______ ____
ROOT
ATOM      3  C   UNL     1       0.000   0.547  24.056  0.00  0.00    +0.020 C 
ATOM      4  C   UNL     1      -0.482  -0.119  23.988  0.00  0.00    +0.095 C 
ATOM      5  N   UNL     1      -1.137  -0.207  24.482  0.00  0.00    -0.263 N 
ATOM      6  C   UNL     1      -1.310   0.371  25.043  0.00  0.00    +0.095 C 
ATOM      7  C   UNL     1      -0.829   1.037  25.111  0.00  0.00    +0.022 C 
ATOM      8  C   UNL     1      -0.174   1.125  24.618  0.00  0.00    +0.012 C 
ATOM     20  C   UNL     1      -1.618  -0.874  24.413  0.00  0.00    +0.327 C 
ATOM     21  O   UNL     1      -1.445  -1.452  23.852  0.00  0.00    -0.250 OA
ATOM     22  N   UNL     1      -2.273  -0.962  24.907  0.00  0.00    -0.162 NA
ENDROOT
BRANCH  22  23
ATOM     23  C   UNL     1      -2.754  -1.628  24.838  0.00  0.00    +0.078 A 
ATOM     24  C   UNL     1      -2.562  -2.320  25.245  0.00  0.00    +0.017 A 
ATOM     25  C   UNL     1      -3.043  -2.986  25.177  0.00  0.00    +0.004 A 
ATOM     26  C   UNL     1      -3.718  -2.961  24.701  0.00  0.00    +0.037 A 
ATOM     27  C   UNL     1      -3.910  -2.270  24.295  0.00  0.00    +0.140 A 
ATOM     30  C   UNL     1      -3.429  -1.603  24.363  0.00  0.00    +0.054 A 
BRANCH  27  28
ATOM     28  O   UNL     1      -4.584  -2.244  23.819  0.00  0.00    -0.471 OA
ATOM     29  C   UNL     1      -4.682  -2.794  23.212  0.00  0.00    +0.252 C 
ENDBRANCH  27  28
ENDBRANCH  22  23
BRANCH   3   2
ATOM      1  C   UNL     1       0.878   0.021  23.058  0.00  0.00    +0.000 C 
ATOM      2  C   UNL     1       0.655   0.635  23.562  0.00  0.00    +0.002 C 
ENDBRANCH   3   2
BRANCH   8   9
ATOM      9  C   UNL     1       0.308   1.792  24.686  0.00  0.00    +0.087 C 
BRANCH   9  10
ATOM     10  C   UNL     1       0.132   2.373  25.246  0.00  0.00    +0.242 C 
ATOM     11  O   UNL     1       0.410   2.298  26.019  0.00  0.00    -0.273 OA
ATOM     12  N   UNL     1      -0.322   3.027  25.032  0.00  0.00    -0.201 NA
BRANCH  12  13
ATOM     13  C   UNL     1      -0.498   3.607  25.592  0.00  0.00    +0.141 C 
BRANCH  13  14
ATOM     14  C   UNL     1      -1.005   4.228  25.396  0.00  0.00    -0.001 A 
ATOM     15  C   UNL     1      -0.721   4.873  24.968  0.00  0.00    -0.003 A 
ATOM     16  C   UNL     1      -1.228   5.495  24.772  0.00  0.00    -0.000 A 
ATOM     17  C   UNL     1      -2.019   5.470  25.005  0.00  0.00    -0.000 A 
ATOM     18  C   UNL     1      -2.304   4.824  25.434  0.00  0.00    -0.000 A 
ATOM     19  C   UNL     1      -1.796   4.204  25.629  0.00  0.00    -0.003 A 
ENDBRANCH  13  14
ENDBRANCH  12  13
ENDBRANCH   9  10
ENDBRANCH   8   9
TORSDOF 7
ENDMDL
MODEL 5
REMARK VINA RESULT:     -10.8      3.400      5.112
REMARK  Name = 
REMARK  7 active torsions:
REMARK  status: ('A' for Active; 'I' for Inactive)
REMARK    1  A    between atoms: C_2  and  C_3
REMARK    2  A    between atoms: C_8  and  C_9
REMARK    3  A    between atoms: C_9  and  C_10
REMARK    4  A    between atoms: N_12  and  C_13
REMARK    5  A    between atoms: C_13  and  C_14
REMARK    6  A    between atoms: N_22  and  C_23
REMARK    7  A    between atoms: C_27  and  O_28
REMARK                            x       y       z     vdW  Elec       q    Type
REMARK                         _______ _______ _______ _____ _____    ______ ____
ROOT
ATOM      3  C   UNL     1      -1.504  -0.719  24.732  0.00  0.00    +0.020 C 
ATOM      4  C   UNL     1      -0.749  -0.794  24.408  0.00  0.00    +0.095 C 
ATOM      5  N   UNL     1      -0.432  -0.183  23.953  0.00  0.00    -0.263 N 
ATOM      6  C   UNL     1      -0.869   0.503  23.823  0.00  0.00    +0.095 C 
ATOM      7  C   UNL     1      -1.623   0.580  24.147  0.00  0.00    +0.022 C 
ATOM      8  C   UNL     1      -1.940  -0.031  24.602  0.00  0.00    +0.012 C 
ATOM     20  C   UNL     1       0.323  -0.260  23.629  0.00  0.00    +0.327 C 
ATOM     21  O   UNL     1       0.760  -0.947  23.759  0.00  0.00    -0.250 OA
ATOM     22  N   UNL     1       0.641   0.351  23.175  0.00  0.00    -0.162 NA
ENDROOT
BRANCH  22  23
ATOM     23  C   UNL     1       1.395   0.274  22.850  0.00  0.00    +0.078 A 
ATOM     24  C   UNL     1       1.512  -0.198  22.184  0.00  0.00    +0.017 A 
ATOM     25  C   UNL     1       2.267  -0.274  21.860  0.00  0.00    +0.004 A 
ATOM     26  C   UNL     1       2.905   0.122  22.203  0.00  0.00    +0.037 A 
ATOM     27  C   UNL     1       2.788   0.593  22.869  0.00  0.00    +0.140 A 
ATOM     30  C   UNL     1       2.034   0.670  23.193  0.00  0.00    +0.054 A 
BRANCH  27  28
ATOM     28  O   UNL     1       3.426   0.989  23.211  0.00  0.00    -0.471 OA
ATOM     29  C   UNL     1       4.193   0.846  22.943  0.00  0.00    +0.252 C 
ENDBRANCH  27  28
ENDBRANCH  22  23
BRANCH   3   2
ATOM      1  C   UNL     1      -1.528  -2.097  25.109  0.00  0.00    +0.000 C 
ATOM      2  C   UNL     1      -1.821  -1.330  25.187  0.00  0.00    +0.002 C 
ENDBRANCH   3   2
BRANCH   8   9
ATOM      9  C   UNL     1      -2.696   0.045  24.926  0.00  0.00    +0.087 C 
BRANCH   9  10
ATOM     10  C   UNL     1      -3.274   0.478  24.527  0.00  0.00    +0.242 C 
ATOM     11  O   UNL     1      -3.455   0.300  23.742  0.00  0.00    -0.273 OA
ATOM     12  N   UNL     1      -3.671   1.089  24.914  0.00  0.00    -0.201 NA
BRANCH  12  13
ATOM     13  C   UNL     1      -4.249   1.522  24.515  0.00  0.00    +0.141 C 
BRANCH  13  14
ATOM     14  C   UNL     1      -4.664   2.117  24.910  0.00  0.00    -0.001 A 
ATOM     15  C   UNL     1      -4.372   2.888  24.915  0.00  0.00    -0.003 A 
ATOM     16  C   UNL     1      -4.787   3.483  25.310  0.00  0.00    -0.000 A 
ATOM     17  C   UNL     1      -5.493   3.306  25.697  0.00  0.00    -0.000 A 
ATOM     18  C   UNL     1      -5.786   2.534  25.691  0.00  0.00    -0.000 A 
ATOM     19  C   UNL     1      -5.371   1.940  25.297  0.00  0.00    -0.003 A 
ENDBRANCH  13  14
ENDBRANCH  12  13
ENDBRANCH   9  10
ENDBRANCH   8   9
TORSDOF 7
ENDMDL
MODEL 6
REMARK VINA RESULT:     -10.3      4.239      5.505
REMARK  Name = 
REMARK  7 active torsions:
REMARK  status: ('A' for Active; 'I' for Inactive)
REMARK    1  A    between atoms: C_2  and  C_3
REMARK    2  A    between atoms: C_8  and  C_9
REMARK    3  A    between atoms: C_9  and  C_10
REMARK    4  A    between atoms: N_12  and  C_13
REMARK    5  A    between atoms: C_13  and  C_14
REMARK    6  A    between atoms: N_22  and  C_23
REMARK    7  A    between atoms: C_27  and  O_28
REMARK                            x       y       z     vdW  Elec       q    Type
REMARK                         _______ _______ _______ _____ _____    ______ ____
ROOT
ATOM      3  C   UNL     1       0.231   1.362  24.119  0.00  0.00    +0.020 C 
ATOM      4  C   UNL     1      -0.480   1.078  24.426  0.00  0.00    +0.095 C 
ATOM      5  N   UNL     1      -0.696   0.291  24.309  0.00  0.00    -0.263 N 
ATOM      6  C   UNL     1      -0.200  -0.213  23.885  0.00  0.00    +0.095 C 
ATOM      7  C   UNL     1       0.511   0.069  23.578  0.00  0.00    +0.022 C 
ATOM      8  C   UNL     1       0.726   0.857  23.695  0.00  0.00    +0.012 C 
ATOM     20  C   UNL     1      -1.407   0.008  24.617  0.00  0.00    +0.327 C 
ATOM     21  O   UNL     1      -1.903   0.512  25.041  0.00  0.00    -0.250 OA
ATOM     22  N   UNL     1      -1.623  -0.780  24.500  0.00  0.00    -0.162 NA
ENDROOT
BRANCH  22  23
ATOM     23  C   UNL     1      -2.334  -1.062  24.807  0.00  0.00    +0.078 A 
ATOM     24  C   UNL     1      -2.415  -1.180  25.620  0.00  0.00    +0.017 A 
ATOM     25  C   UNL     1      -3.126  -1.462  25.927  0.00  0.00    +0.004 A 
ATOM     26  C   UNL     1      -3.757  -1.628  25.421  0.00  0.00    +0.037 A 
ATOM     27  C   UNL     1      -3.676  -1.511  24.609  0.00  0.00    +0.140 A 
ATOM     30  C   UNL     1      -2.965  -1.228  24.301  0.00  0.00    +0.054 A 
BRANCH  27  28
ATOM     28  O   UNL     1      -4.307  -1.677  24.103  0.00  0.00    -0.471 OA
ATOM     29  C   UNL     1      -4.418  -2.444  23.820  0.00  0.00    +0.252 C 
ENDBRANCH  27  28
ENDBRANCH  22  23
BRANCH   3   2
ATOM      1  C   UNL     1      -0.068   2.665  24.624  0.00  0.00    +0.000 C 
ATOM      2  C   UNL     1       0.447   2.150  24.236  0.00  0.00    +0.002 C 
ENDBRANCH   3   2
BRANCH   8   9
ATOM      9  C   UNL     1       1.438   1.140  23.387  0.00  0.00    +0.087 C 
BRANCH   9  10
ATOM     10  C   UNL     1       1.970   0.619  23.031  0.00  0.00    +0.242 C 
ATOM     11  O   UNL     1       1.708   0.094  22.452  0.00  0.00    -0.273 OA
ATOM     12  N   UNL     1       2.764   0.625  23.254  0.00  0.00    -0.201 NA
BRANCH  12  13
ATOM     13  C   UNL     1       3.296   0.104  22.898  0.00  0.00    +0.141 C 
BRANCH  13  14
ATOM     14  C   UNL     1       4.060   0.024  23.200  0.00  0.00    -0.001 A 
ATOM     15  C   UNL     1       4.290  -0.683  23.558  0.00  0.00    -0.003 A 
ATOM     16  C   UNL     1       5.054  -0.763  23.860  0.00  0.00    -0.000 A 
ATOM     17  C   UNL     1       5.587  -0.136  23.804  0.00  0.00    -0.000 A 
ATOM     18  C   UNL     1       5.357   0.572  23.446  0.00  0.00    -0.000 A 
ATOM     19  C   UNL     1       4.593   0.651  23.144  0.00  0.00    -0.003 A 
ENDBRANCH  13  14
ENDBRANCH  12  13
ENDBRANCH   9  10
ENDBRANCH   8   9
TORSDOF 7
ENDMDL
MODEL 7
REMARK VINA RESULT:     -10.3      4.093      6.311
REMARK  Name = 
REMARK  7 active torsions:
REMARK  status: ('A' for Active; 'I' for Inactive)
REMARK    1  A    between atoms: C_2  and  C_3
REMARK    2  A    between atoms: C_8  and  C_9
REMARK    3  A    between atoms: C_9  and  C_10
REMARK    4  A    between atoms: N_12  and  C_13
REMARK    5  A    between atoms: C_13  and  C_14
REMARK    6  A    between atoms: N_22  and  C_23
REMARK    7  A    between atoms: C_27  and  O_28
REMARK                            x       y       z     vdW  Elec       q    Type
REMARK                         _______ _______ _______ _____ _____    ______ ____
ROOT
ATOM      3  C   UNL     1      -0.489   1.504  24.648  0.00  0.00    +0.020 C 
ATOM      4  C   UNL     1       0.239   1.564  24.264  0.00  0.00    +0.095 C 
ATOM      5  N   UNL     1       0.603   0.888  23.961  0.00  0.00    -0.263 N 
ATOM      6  C   UNL     1       0.239   0.153  24.041  0.00  0.00    +0.095 C 
ATOM      7  C   UNL     1      -0.488   0.092  24.424  0.00  0.00    +0.022 C 
ATOM      8  C   UNL     1      -0.852   0.768  24.727  0.00  0.00    +0.012 C 
ATOM     20  C   UNL     1       1.331   0.950  23.578  0.00  0.00    +0.327 C 
ATOM     21  O   UNL     1       1.695   1.685  23.498  0.00  0.00    -0.250 OA
ATOM     22  N   UNL     1       1.695   0.274  23.274  0.00  0.00    -0.162 NA
ENDROOT
BRANCH  22  23
ATOM     23  C   UNL     1       2.423   0.335  22.891  0.00  0.00    +0.078 A 
ATOM     24  C   UNL     1       2.478   0.185  22.082  0.00  0.00    +0.017 A 
ATOM     25  C   UNL     1       3.205   0.246  21.699  0.00  0.00    +0.004 A 
ATOM     26  C   UNL     1       3.880   0.457  22.126  0.00  0.00    +0.037 A 
ATOM     27  C   UNL     1       3.826   0.607  22.934  0.00  0.00    +0.140 A 
ATOM     30  C   UNL     1       3.098   0.546  23.318  0.00  0.00    +0.054 A 
BRANCH  27  28
ATOM     28  O   UNL     1       4.500   0.818  23.361  0.00  0.00    -0.471 OA
ATOM     29  C   UNL     1       5.154   0.316  23.374  0.00  0.00    +0.252 C 
ENDBRANCH  27  28
ENDBRANCH  22  23
BRANCH   3   2
ATOM      1  C   UNL     1      -0.562   2.927  24.758  0.00  0.00    +0.000 C 
ATOM      2  C   UNL     1      -0.853   2.179  24.951  0.00  0.00    +0.002 C 
ENDBRANCH   3   2
BRANCH   8   9
ATOM      9  C   UNL     1      -1.581   0.707  25.111  0.00  0.00    +0.087 C 
BRANCH   9  10
ATOM     10  C   UNL     1      -1.846  -0.027  25.380  0.00  0.00    +0.242 C 
ATOM     11  O   UNL     1      -1.461  -0.400  26.007  0.00  0.00    -0.273 OA
ATOM     12  N   UNL     1      -2.495  -0.387  25.021  0.00  0.00    -0.201 NA
BRANCH  12  13
ATOM     13  C   UNL     1      -2.759  -1.121  25.290  0.00  0.00    +0.141 C 
BRANCH  13  14
ATOM     14  C   UNL     1      -3.269  -1.572  24.822  0.00  0.00    -0.001 A 
ATOM     15  C   UNL     1      -3.175  -2.390  24.782  0.00  0.00    -0.003 A 
ATOM     16  C   UNL     1      -3.685  -2.842  24.315  0.00  0.00    -0.000 A 
ATOM     17  C   UNL     1      -4.288  -2.474  23.889  0.00  0.00    -0.000 A 
ATOM     18  C   UNL     1      -4.382  -1.654  23.929  0.00  0.00    -0.000 A 
ATOM     19  C   UNL     1      -3.872  -1.204  24.396  0.00  0.00    -0.003 A 
ENDBRANCH  13  14
ENDBRANCH  12  13
ENDBRANCH   9  10
ENDBRANCH   8   9
TORSDOF 7
ENDMDL
MODEL 8
REMARK VINA RESULT:     -10.1      1.160      5.670
REMARK  Name = 
REMARK  7 active torsions:
REMARK  status: ('A' for Active; 'I' for Inactive)
REMARK    1  A    between atoms: C_2  and  C_3
REMARK    2  A    between atoms: C_8  and  C_9
REMARK    3  A    between atoms: C_9  and  C_10
REMARK    4  A    between atoms: N_12  and  C_13
REMARK    5  A    between atoms: C_13  and  C_14
REMARK    6  A    between atoms: N_22  and  C_23
REMARK    7  A    between atoms: C_27  and  O_28
REMARK                            x       y       z     vdW  Elec       q    Type
REMARK                         _______ _______ _______ _____ _____    ______ ____
ROOT
ATOM      3  C   UNL     1      -4.726   1.671  24.825  0.00  0.00    +0.020 C 
ATOM      4  C   UNL     1      -4.353   2.407  24.816  0.00  0.00    +0.095 C 
ATOM      5  N   UNL     1      -3.543   2.462  24.962  0.00  0.00    -0.263 N 
ATOM      6  C   UNL     1      -3.106   1.780  25.117  0.00  0.00    +0.095 C 
ATOM      7  C   UNL     1      -3.477   1.045  25.127  0.00  0.00    +0.022 C 
ATOM      8  C   UNL     1      -4.287   0.990  24.981  0.00  0.00    +0.012 C 
ATOM     20  C   UNL     1      -3.172   3.198  24.952  0.00  0.00    +0.327 C 
ATOM     21  O   UNL     1      -3.609   3.879  24.796  0.00  0.00    -0.250 OA
ATOM     22  N   UNL     1      -2.361   3.253  25.098  0.00  0.00    -0.162 NA
ENDROOT
BRANCH  22  23
ATOM     23  C   UNL     1      -1.990   3.989  25.088  0.00  0.00    +0.078 A 
ATOM     24  C   UNL     1      -2.312   4.620  25.511  0.00  0.00    +0.017 A 
ATOM     25  C   UNL     1      -1.940   5.356  25.502  0.00  0.00    +0.004 A 
ATOM     26  C   UNL     1      -1.245   5.462  25.068  0.00  0.00    +0.037 A 
ATOM     27  C   UNL     1      -0.923   4.831  24.645  0.00  0.00    +0.140 A 
ATOM     30  C   UNL     1      -1.295   4.095  24.655  0.00  0.00    +0.054 A 
BRANCH  27  28
ATOM     28  O   UNL     1      -0.229   4.937  24.212  0.00  0.00    -0.471 OA
ATOM     29  C   UNL     1       0.126   4.294  23.837  0.00  0.00    +0.252 C 
ENDBRANCH  27  28
ENDBRANCH  22  23
BRANCH   3   2
ATOM      1  C   UNL     1      -6.050   2.186  24.981  0.00  0.00    +0.000 C 
ATOM      2  C   UNL     1      -5.536   1.616  24.679  0.00  0.00    +0.002 C 
ENDBRANCH   3   2
BRANCH   8   9
ATOM      9  C   UNL     1      -4.660   0.253  24.990  0.00  0.00    +0.087 C 
BRANCH   9  10
ATOM     10  C   UNL     1      -4.295  -0.389  25.360  0.00  0.00    +0.242 C 
ATOM     11  O   UNL     1      -4.245  -0.417  26.183  0.00  0.00    -0.273 OA
ATOM     12  N   UNL     1      -3.982  -1.002  24.906  0.00  0.00    -0.201 NA
BRANCH  12  13
ATOM     13  C   UNL     1      -3.618  -1.643  25.276  0.00  0.00    +0.141 C 
BRANCH  13  14
ATOM     14  C   UNL     1      -3.191  -2.190  24.828  0.00  0.00    -0.001 A 
ATOM     15  C   UNL     1      -2.366  -2.165  24.825  0.00  0.00    -0.003 A 
ATOM     16  C   UNL     1      -1.940  -2.712  24.376  0.00  0.00    -0.000 A 
ATOM     17  C   UNL     1      -2.338  -3.282  23.933  0.00  0.00    -0.000 A 
ATOM     18  C   UNL     1      -3.163  -3.306  23.937  0.00  0.00    -0.000 A 
ATOM     19  C   UNL     1      -3.589  -2.760  24.385  0.00  0.00    -0.003 A 
ENDBRANCH  13  14
ENDBRANCH  12  13
ENDBRANCH   9  10
ENDBRANCH   8   9
TORSDOF 7
ENDMDL
MODEL 9
REMARK VINA RESULT:     -10.1      2.666      4.398
REMARK  Name = 
REMARK  7 active torsions:
REMARK  status: ('A' for Active; 'I' for Inactive)
REMARK    1  A    between atoms: C_2  and  C_3
REMARK    2  A    between atoms: C_8  and  C_9
REMARK    3  A    between atoms: C_9  and  C_10
REMARK    4  A    between atoms: N_12  and  C_13
REMARK    5  A    between atoms: C_13  and  C_14
REMARK    6  A    between atoms: N_22  and  C_23
REMARK    7  A    between atoms: C_27  and  O_28
REMARK                            x       y       z     vdW  Elec       q    Type
REMARK                         _______ _______ _______ _____ _____    ______ ____
ROOT
ATOM      3  C   UNL     1      -1.522   3.520  24.938  0.00  0.00    +0.020 C 
ATOM      4  C   UNL     1      -0.939   2.953  24.801  0.00  0.00    +0.095 C 
ATOM      5  N   UNL     1      -1.124   2.262  24.390  0.00  0.00    -0.263 N 
ATOM      6  C   UNL     1      -1.892   2.138  24.117  0.00  0.00    +0.095 C 
ATOM      7  C   UNL     1      -2.475   2.704  24.254  0.00  0.00    +0.022 C 
ATOM      8  C   UNL     1      -2.290   3.396  24.664  0.00  0.00    +0.012 C 
ATOM     20  C   UNL     1      -0.540   1.695  24.253  0.00  0.00    +0.327 C 
ATOM     21  O   UNL     1       0.228   1.819  24.526  0.00  0.00    -0.250 OA
ATOM     22  N   UNL     1      -0.725   1.004  23.842  0.00  0.00    -0.162 NA
ENDROOT
BRANCH  22  23
ATOM     23  C   UNL     1      -0.142   0.437  23.705  0.00  0.00    +0.078 A 
ATOM     24  C   UNL     1      -0.114  -0.247  24.166  0.00  0.00    +0.017 A 
ATOM     25  C   UNL     1       0.469  -0.813  24.029  0.00  0.00    +0.004 A 
ATOM     26  C   UNL     1       1.025  -0.696  23.429  0.00  0.00    +0.037 A 
ATOM     27  C   UNL     1       0.997  -0.013  22.969  0.00  0.00    +0.140 A 
ATOM     30  C   UNL     1       0.414   0.554  23.106  0.00  0.00    +0.054 A 
BRANCH  27  28
ATOM     28  O   UNL     1       1.553   0.104  22.370  0.00  0.00    -0.471 OA
ATOM     29  C   UNL     1       2.358   0.041  22.537  0.00  0.00    +0.252 C 
ENDBRANCH  27  28
ENDBRANCH  22  23
BRANCH   3   2
ATOM      1  C   UNL     1      -0.708   4.684  25.100  0.00  0.00    +0.000 C 
ATOM      2  C   UNL     1      -1.337   4.211  25.349  0.00  0.00    +0.002 C 
ENDBRANCH   3   2
BRANCH   8   9
ATOM      9  C   UNL     1      -2.874   3.963  24.802  0.00  0.00    +0.087 C 
BRANCH   9  10
ATOM     10  C   UNL     1      -3.650   3.824  24.558  0.00  0.00    +0.242 C 
ATOM     11  O   UNL     1      -3.887   4.037  23.797  0.00  0.00    -0.273 OA
ATOM     12  N   UNL     1      -4.188   3.473  25.075  0.00  0.00    -0.201 NA
BRANCH  12  13
ATOM     13  C   UNL     1      -4.963   3.334  24.831  0.00  0.00    +0.141 C 
BRANCH  13  14
ATOM     14  C   UNL     1      -5.423   2.768  25.219  0.00  0.00    -0.001 A 
ATOM     15  C   UNL     1      -5.602   2.862  26.019  0.00  0.00    -0.003 A 
ATOM     16  C   UNL     1      -6.062   2.296  26.407  0.00  0.00    -0.000 A 
ATOM     17  C   UNL     1      -6.341   1.638  25.995  0.00  0.00    -0.000 A 
ATOM     18  C   UNL     1      -6.161   1.545  25.194  0.00  0.00    -0.000 A 
ATOM     19  C   UNL     1      -5.702   2.110  24.807  0.00  0.00    -0.003 A 
ENDBRANCH  13  14
ENDBRANCH  12  13
ENDBRANCH   9  10
ENDBRANCH   8   9
TORSDOF 7
ENDMDL
