REMARK  Name = 
REMARK  4 active torsions:
REMARK  status: ('A' for Active; 'I' for Inactive)
REMARK    1  A    between atoms: C_4  and  C_11
REMARK    2  A    between atoms: N_5  and  C_6
REMARK    3  A    between atoms: C_6  and  C_7
REMARK    4  A    between atoms: C_13  and  C_16
REMARK                            x       y       z     vdW  Elec       q    Type
REMARK                         _______ _______ _______ _____ _____    ______ ____
ROOT
ATOM     11  C   UNL     1       0.940  -2.401   0.000  0.00  0.00    +0.251 A 
ATOM     12  N   UNL     1       0.853  -1.580   0.000  0.00  0.00    -0.190 NA
ATOM     13  C   UNL     1       1.607  -1.245   0.000  0.00  0.00    +0.203 A 
ATOM     14  N   UNL     1       2.159  -1.858   0.000  0.00  0.00    -0.056 NA
ATOM     15  O   UNL     1       1.746  -2.572   0.000  0.00  0.00    -0.336 OA
ENDROOT
BRANCH  13  16
ATOM     16  C   UNL     1       1.778  -0.438   0.000  0.00  0.00    +0.039 A 
ATOM     17  C   UNL     1       1.165   0.114   0.000  0.00  0.00    +0.005 A 
ATOM     18  C   UNL     1       1.337   0.921   0.000  0.00  0.00    +0.030 A 
ATOM     19  C   UNL     1       2.122   1.176   0.000  0.00  0.00    +0.140 A 
ATOM     20  F   UNL     1       2.293   1.983   0.000  0.00  0.00    -0.204 F 
ATOM     21  C   UNL     1       2.735   0.624   0.000  0.00  0.00    +0.030 A 
ATOM     22  C   UNL     1       2.563  -0.183   0.000  0.00  0.00    +0.005 A 
ENDBRANCH  13  16
BRANCH  11   4
ATOM      1  O   UNL     1      -1.714  -3.582   0.000  0.00  0.00    -0.222 OA
ATOM      2  C   UNL     1      -0.893  -3.496   0.000  0.00  0.00    +0.170 C 
ATOM      3  C   UNL     1      -0.480  -2.781   0.000  0.00  0.00    +0.060 C 
ATOM      4  C   UNL     1       0.327  -2.953   0.000  0.00  0.00    +0.140 C 
ATOM      5  N   UNL     1       0.413  -3.773   0.000  0.00  0.00    -0.264 NA
ATOM     10  C   UNL     1      -0.341  -4.109   0.000  0.00  0.00    +0.106 C 
BRANCH   5   6
ATOM      6  C   UNL     1       1.127  -4.186   0.000  0.00  0.00    +0.073 C 
BRANCH   6   7
ATOM      7  C   UNL     1       1.127  -5.011   0.000  0.00  0.00    +0.016 C 
ATOM      8  C   UNL     1       1.540  -5.725   0.000  0.00  0.00    +0.001 C 
ATOM      9  C   UNL     1       0.715  -5.725   0.000  0.00  0.00    +0.001 C 
ENDBRANCH   6   7
ENDBRANCH   5   6
ENDBRANCH  11   4
TORSDOF 4
