MODEL 1
REMARK VINA RESULT:     -13.9      0.000      0.000
REMARK  Name = 
REMARK  4 active torsions:
REMARK  status: ('A' for Active; 'I' for Inactive)
REMARK    1  A    between atoms: C_6  and  C_7
REMARK    2  A    between atoms: C_7  and  N_8
REMARK    3  A    between atoms: C_11  and  C_13
REMARK    4  A    between atoms: C_19  and  C_22
REMARK                            x       y       z     vdW  Elec       q    Type
REMARK                         _______ _______ _______ _____ _____    ______ ____
ROOT
ATOM      8  N   UNL     1      -3.865   0.369  24.374  0.00  0.00    -0.269 NA
ATOM      9  C   UNL     1      -3.652   0.494  23.587  0.00  0.00    +0.073 C 
ATOM     10  C   UNL     1      -3.149   1.148  23.560  0.00  0.00    +0.026 C 
ATOM     11  C   UNL     1      -3.053   1.428  24.330  0.00  0.00    +0.076 C 
ATOM     12  C   UNL     1      -3.495   0.947  24.833  0.00  0.00    +0.080 C 
ENDROOT
BRANCH  11  13
ATOM     13  C   UNL     1      -2.594   2.075  24.557  0.00  0.00    +0.140 A 
ATOM     14  N   UNL     1      -1.893   2.045  24.990  0.00  0.00    -0.229 NA
ATOM     15  C   UNL     1      -1.622   2.817  25.091  0.00  0.00    +0.100 A 
ATOM     16  C   UNL     1      -2.156   3.325  24.721  0.00  0.00    +0.100 A 
ATOM     17  N   UNL     1      -2.756   2.867  24.390  0.00  0.00    -0.229 NA
ATOM     18  C   UNL     1      -2.025   4.140  24.732  0.00  0.00    +0.025 A 
ATOM     19  C   UNL     1      -1.361   4.446  25.114  0.00  0.00    +0.073 A 
ATOM     20  C   UNL     1      -0.827   3.937  25.484  0.00  0.00    +0.005 A 
ATOM     21  C   UNL     1      -0.957   3.123  25.474  0.00  0.00    +0.021 A 
BRANCH  19  22
ATOM     22  C   UNL     1      -1.231   5.260  25.125  0.00  0.00    +0.419 C 
ATOM     23  F   UNL     1      -1.100   6.075  25.136  0.00  0.00    -0.166 F 
ATOM     24  F   UNL     1      -0.599   5.166  24.603  0.00  0.00    -0.166 F 
ATOM     25  F   UNL     1      -1.862   5.354  25.647  0.00  0.00    -0.166 F 
ENDBRANCH  19  22
ENDBRANCH  11  13
BRANCH   8   7
ATOM      7  C   UNL     1      -4.362  -0.227  24.653  0.00  0.00    +0.099 C 
BRANCH   7   6
ATOM      1  F   UNL     1      -3.262  -3.332  24.851  0.00  0.00    -0.202 F 
ATOM      2  C   UNL     1      -3.537  -2.556  24.802  0.00  0.00    +0.167 A 
ATOM      3  C   UNL     1      -3.981  -2.316  24.149  0.00  0.00    +0.167 A 
ATOM      4  F   UNL     1      -4.151  -2.853  23.546  0.00  0.00    -0.202 F 
ATOM      5  C   UNL     1      -4.256  -1.540  24.099  0.00  0.00    +0.029 A 
ATOM      6  C   UNL     1      -4.086  -1.003  24.703  0.00  0.00    -0.004 A 
ATOM     26  C   UNL     1      -3.642  -1.243  25.356  0.00  0.00    -0.000 A 
ATOM     27  C   UNL     1      -3.368  -2.019  25.405  0.00  0.00    +0.032 A 
ENDBRANCH   7   6
ENDBRANCH   8   7
TORSDOF 4
ENDMDL
MODEL 2
REMARK VINA RESULT:     -13.7      1.021      6.108
REMARK  Name = 
REMARK  4 active torsions:
REMARK  status: ('A' for Active; 'I' for Inactive)
REMARK    1  A    between atoms: C_6  and  C_7
REMARK    2  A    between atoms: C_7  and  N_8
REMARK    3  A    between atoms: C_11  and  C_13
REMARK    4  A    between atoms: C_19  and  C_22
REMARK                            x       y       z     vdW  Elec       q    Type
REMARK                         _______ _______ _______ _____ _____    ______ ____
ROOT
ATOM      8  N   UNL     1      -0.929   2.072  25.123  0.00  0.00    -0.269 NA
ATOM      9  C   UNL     1      -0.620   1.888  24.381  0.00  0.00    +0.073 C 
ATOM     10  C   UNL     1      -1.023   1.227  24.094  0.00  0.00    +0.026 C 
ATOM     11  C   UNL     1      -1.582   1.005  24.659  0.00  0.00    +0.076 C 
ATOM     12  C   UNL     1      -1.524   1.527  25.294  0.00  0.00    +0.080 C 
ENDROOT
BRANCH  11  13
ATOM     13  C   UNL     1      -2.107   0.371  24.597  0.00  0.00    +0.140 A 
ATOM     14  N   UNL     1      -2.899   0.417  24.373  0.00  0.00    -0.229 NA
ATOM     15  C   UNL     1      -3.213  -0.345  24.387  0.00  0.00    +0.100 A 
ATOM     16  C   UNL     1      -2.615  -0.863  24.620  0.00  0.00    +0.100 A 
ATOM     17  N   UNL     1      -1.931  -0.421  24.750  0.00  0.00    -0.229 NA
ATOM     18  C   UNL     1      -2.771  -1.671  24.684  0.00  0.00    +0.025 A 
ATOM     19  C   UNL     1      -3.524  -1.961  24.514  0.00  0.00    +0.073 A 
ATOM     20  C   UNL     1      -4.122  -1.443  24.281  0.00  0.00    +0.005 A 
ATOM     21  C   UNL     1      -3.967  -0.635  24.218  0.00  0.00    +0.021 A 
BRANCH  19  22
ATOM     22  C   UNL     1      -3.679  -2.768  24.578  0.00  0.00    +0.419 C 
ATOM     23  F   UNL     1      -3.835  -3.576  24.641  0.00  0.00    -0.166 F 
ATOM     24  F   UNL     1      -3.656  -2.708  25.400  0.00  0.00    -0.166 F 
ATOM     25  F   UNL     1      -3.702  -2.829  23.755  0.00  0.00    -0.166 F 
ENDBRANCH  19  22
ENDBRANCH  11  13
BRANCH   8   7
ATOM      7  C   UNL     1      -0.687   2.693  25.609  0.00  0.00    +0.099 C 
BRANCH   7   6
ATOM      1  F   UNL     1      -1.835   5.743  25.086  0.00  0.00    -0.202 F 
ATOM      2  C   UNL     1      -1.549   4.980  25.217  0.00  0.00    +0.167 A 
ATOM      3  C   UNL     1      -0.813   4.760  24.917  0.00  0.00    +0.167 A 
ATOM      4  F   UNL     1      -0.363   5.301  24.485  0.00  0.00    -0.202 F 
ATOM      5  C   UNL     1      -0.525   3.997  25.047  0.00  0.00    +0.029 A 
ATOM      6  C   UNL     1      -0.975   3.456  25.478  0.00  0.00    -0.004 A 
ATOM     26  C   UNL     1      -1.710   3.676  25.779  0.00  0.00    -0.000 A 
ATOM     27  C   UNL     1      -1.997   4.439  25.648  0.00  0.00    +0.032 A 
ENDBRANCH   7   6
ENDBRANCH   8   7
TORSDOF 4
ENDMDL
MODEL 3
REMARK VINA RESULT:     -13.7      1.252      5.864
REMARK  Name = 
REMARK  4 active torsions:
REMARK  status: ('A' for Active; 'I' for Inactive)
REMARK    1  A    between atoms: C_6  and  C_7
REMARK    2  A    between atoms: C_7  and  N_8
REMARK    3  A    between atoms: C_11  and  C_13
REMARK    4  A    between atoms: C_19  and  C_22
REMARK                            x       y       z     vdW  Elec       q    Type
REMARK                         _______ _______ _______ _____ _____    ______ ____
ROOT
ATOM      8  N   UNL     1      -4.571   2.512  24.718  0.00  0.00    -0.269 NA
ATOM      9  C   UNL     1      -5.311   2.284  25.003  0.00  0.00    +0.073 C 
ATOM     10  C   UNL     1      -5.305   1.465  25.102  0.00  0.00    +0.026 C 
ATOM     11  C   UNL     1      -4.561   1.186  24.879  0.00  0.00    +0.076 C 
ATOM     12  C   UNL     1      -4.107   1.833  24.641  0.00  0.00    +0.080 C 
ENDROOT
BRANCH  11  13
ATOM     13  C   UNL     1      -4.314   0.399  24.890  0.00  0.00    +0.140 A 
ATOM     14  N   UNL     1      -3.978   0.006  25.533  0.00  0.00    -0.229 NA
ATOM     15  C   UNL     1      -3.817  -0.769  25.301  0.00  0.00    +0.100 A 
ATOM     16  C   UNL     1      -4.053  -0.855  24.515  0.00  0.00    +0.100 A 
ATOM     17  N   UNL     1      -4.361  -0.133  24.261  0.00  0.00    -0.229 NA
ATOM     18  C   UNL     1      -3.958  -1.580  24.133  0.00  0.00    +0.025 A 
ATOM     19  C   UNL     1      -3.626  -2.218  24.536  0.00  0.00    +0.073 A 
ATOM     20  C   UNL     1      -3.390  -2.132  25.322  0.00  0.00    +0.005 A 
ATOM     21  C   UNL     1      -3.485  -1.408  25.705  0.00  0.00    +0.021 A 
BRANCH  19  22
ATOM     22  C   UNL     1      -3.531  -2.943  24.154  0.00  0.00    +0.419 C 
ATOM     23  F   UNL     1      -3.436  -3.668  23.771  0.00  0.00    -0.166 F 
ATOM     24  F   UNL     1      -4.349  -3.052  24.155  0.00  0.00    -0.166 F 
ATOM     25  F   UNL     1      -2.713  -2.835  24.152  0.00  0.00    -0.166 F 
ENDBRANCH  19  22
ENDBRANCH  11  13
BRANCH   8   7
ATOM      7  C   UNL     1      -4.335   3.282  24.541  0.00  0.00    +0.099 C 
BRANCH   7   6
ATOM      1  F   UNL     1      -1.642   4.553  25.964  0.00  0.00    -0.202 F 
ATOM      2  C   UNL     1      -2.316   4.235  25.608  0.00  0.00    +0.167 A 
ATOM      3  C   UNL     1      -3.020   4.182  26.033  0.00  0.00    +0.167 A 
ATOM      4  F   UNL     1      -3.053   4.446  26.814  0.00  0.00    -0.202 F 
ATOM      5  C   UNL     1      -3.694   3.864  25.677  0.00  0.00    +0.029 A 
ATOM      6  C   UNL     1      -3.661   3.599  24.896  0.00  0.00    -0.004 A 
ATOM     26  C   UNL     1      -2.957   3.653  24.471  0.00  0.00    -0.000 A 
ATOM     27  C   UNL     1      -2.283   3.971  24.828  0.00  0.00    +0.032 A 
ENDBRANCH   7   6
ENDBRANCH   8   7
TORSDOF 4
ENDMDL
