REMARK  Name = 
REMARK  7 active torsions:
REMARK  status: ('A' for Active; 'I' for Inactive)
REMARK    1  A    between atoms: C_6  and  C_7
REMARK    2  A    between atoms: C_7  and  N_8
REMARK    3  A    between atoms: N_8  and  C_9
REMARK    4  A    between atoms: C_12  and  C_13
REMARK    5  A    between atoms: C_13  and  N_14
REMARK    6  A    between atoms: N_14  and  S_15
REMARK    7  A    between atoms: S_15  and  C_18
REMARK                            x       y       z     vdW  Elec       q    Type
REMARK                         _______ _______ _______ _____ _____    ______ ____
ROOT
ATOM      9  C   UNL     1       0.480  -5.692   0.000  0.00  0.00    +0.136 C 
ATOM     10  C   UNL     1      -0.187  -6.177   0.000  0.00  0.00    +0.162 C 
ATOM     11  O   UNL     1      -0.855  -5.692   0.000  0.00  0.00    -0.350 OA
ATOM     12  C   UNL     1      -0.600  -4.907   0.000  0.00  0.00    +0.166 C 
ATOM     25  C   UNL     1       0.225  -4.907   0.000  0.00  0.00    +0.199 C 
ATOM     26  O   UNL     1       0.710  -4.240   0.000  0.00  0.00    -0.219 OA
ENDROOT
BRANCH   9   8
ATOM      8  N   UNL     1       1.265  -5.947   0.000  0.00  0.00    -0.206 NA
BRANCH   8   7
ATOM      7  C   UNL     1       1.436  -6.754   0.000  0.00  0.00    +0.152 C 
BRANCH   7   6
ATOM      1  C   UNL     1       2.888  -5.699   0.000  0.00  0.00    +0.132 C 
ATOM      2  N   UNL     1       2.888  -6.524   0.000  0.00  0.00    -0.311 N 
ATOM      3  C   UNL     1       3.556  -7.009   0.000  0.00  0.00    +0.098 A 
ATOM      4  C   UNL     1       3.301  -7.794   0.000  0.00  0.00    +0.119 A 
ATOM      5  N   UNL     1       2.476  -7.794   0.000  0.00  0.00    -0.228 NA
ATOM      6  C   UNL     1       2.221  -7.009   0.000  0.00  0.00    +0.138 A 
ENDBRANCH   7   6
ENDBRANCH   8   7
ENDBRANCH   9   8
BRANCH  12  13
ATOM     13  C   UNL     1      -1.085  -4.240   0.000  0.00  0.00    +0.148 C 
BRANCH  13  14
ATOM     14  N   UNL     1      -1.905  -4.326   0.000  0.00  0.00    -0.075 NA
BRANCH  14  15
ATOM     15  S   UNL     1      -2.390  -3.659   0.000  0.00  0.00    +0.077 S 
ATOM     16  O   UNL     1      -1.723  -3.174   0.000  0.00  0.00    -0.152 OA
ATOM     17  O   UNL     1      -3.058  -4.144   0.000  0.00  0.00    -0.152 OA
BRANCH  15  18
ATOM     18  C   UNL     1      -2.875  -2.991   0.000  0.00  0.00    +0.124 A 
ATOM     19  C   UNL     1      -3.696  -3.078   0.000  0.00  0.00    +0.020 A 
ATOM     20  C   UNL     1      -4.181  -2.410   0.000  0.00  0.00    -0.003 A 
ATOM     21  C   UNL     1      -3.845  -1.657   0.000  0.00  0.00    -0.022 A 
ATOM     22  C   UNL     1      -4.330  -0.989   0.000  0.00  0.00    +0.031 C 
ATOM     23  C   UNL     1      -3.025  -1.570   0.000  0.00  0.00    -0.003 A 
ATOM     24  C   UNL     1      -2.540  -2.238   0.000  0.00  0.00    +0.020 A 
ENDBRANCH  15  18
ENDBRANCH  14  15
ENDBRANCH  13  14
ENDBRANCH  12  13
TORSDOF 7
