MODEL 1
REMARK VINA RESULT:     -12.7      0.000      0.000
REMARK  Name = 
REMARK  5 active torsions:
REMARK  status: ('A' for Active; 'I' for Inactive)
REMARK    1  A    between atoms: S_2  and  C_3
REMARK    2  A    between atoms: C_6  and  C_9
REMARK    3  A    between atoms: N_15  and  C_16
REMARK    4  A    between atoms: C_16  and  C_17
REMARK    5  A    between atoms: C_20  and  C_21
REMARK                            x       y       z     vdW  Elec       q    Type
REMARK                         _______ _______ _______ _____ _____    ______ ____
ROOT
ATOM      9  C   UNL     1      -3.698   0.514  24.703  0.00  0.00    +0.012 A 
ATOM     10  C   UNL     1      -2.958   0.857  24.829  0.00  0.00    +0.041 A 
ATOM     11  C   UNL     1      -2.070   0.632  24.892  0.00  0.00    +0.054 C 
ATOM     12  C   UNL     1      -1.638   0.079  24.862  0.00  0.00    +0.011 C 
ATOM     13  C   UNL     1      -1.579   0.883  24.979  0.00  0.00    +0.039 C 
ATOM     14  C   UNL     1      -1.306   1.820  25.137  0.00  0.00    +0.074 C 
ATOM     15  N   UNL     1      -2.054   2.190  25.109  0.00  0.00    -0.266 NA
ATOM     24  C   UNL     1      -1.790   1.532  25.046  0.00  0.00    +0.078 C 
ATOM     25  C   UNL     1      -2.506   1.128  24.915  0.00  0.00    +0.110 C 
ATOM     26  N   UNL     1      -2.895   1.671  24.948  0.00  0.00    -0.299 N 
ATOM     27  C   UNL     1      -3.572   2.143  24.941  0.00  0.00    +0.261 A 
ATOM     28  O   UNL     1      -3.509   2.957  25.060  0.00  0.00    -0.267 OA
ATOM     29  C   UNL     1      -4.312   1.800  24.816  0.00  0.00    +0.061 A 
ATOM     30  C   UNL     1      -4.375   0.986  24.697  0.00  0.00    +0.006 A 
ENDROOT
BRANCH   9   6
ATOM      3  C   UNL     1      -3.887  -1.928  24.347  0.00  0.00    +0.025 A 
ATOM      4  C   UNL     1      -3.856  -1.624  25.113  0.00  0.00    +0.006 A 
ATOM      5  C   UNL     1      -3.793  -0.810  25.232  0.00  0.00    +0.001 A 
ATOM      6  C   UNL     1      -3.761  -0.300  24.585  0.00  0.00    +0.001 A 
ATOM      7  C   UNL     1      -3.793  -0.603  23.818  0.00  0.00    +0.001 A 
ATOM      8  C   UNL     1      -3.856  -1.418  23.700  0.00  0.00    +0.006 A 
BRANCH   3   2
ATOM      1  C   UNL     1      -3.304  -3.232  24.377  0.00  0.00    +0.074 C 
ATOM      2  S   UNL     1      -3.951  -2.741  24.228  0.00  0.00    -0.113 S 
ENDBRANCH   3   2
ENDBRANCH   9   6
BRANCH  15  16
ATOM     16  C   UNL     1      -2.615   2.796  25.133  0.00  0.00    +0.138 C 
BRANCH  16  17
ATOM     17  C   UNL     1      -2.379   3.570  25.292  0.00  0.00    +0.139 A 
ATOM     18  C   UNL     1      -2.588   4.014  25.955  0.00  0.00    +0.037 A 
ATOM     19  C   UNL     1      -2.230   4.755  25.888  0.00  0.00    +0.038 A 
ATOM     20  C   UNL     1      -1.800   4.768  25.184  0.00  0.00    +0.156 A 
ATOM     23  O   UNL     1      -1.892   4.037  24.815  0.00  0.00    -0.458 OA
BRANCH  20  21
ATOM     21  C   UNL     1      -1.356   5.403  24.899  0.00  0.00    +0.246 C 
ATOM     22  O   UNL     1      -0.539   5.329  24.812  0.00  0.00    -0.212 OA
ENDBRANCH  20  21
ENDBRANCH  16  17
ENDBRANCH  15  16
TORSDOF 5
ENDMDL
MODEL 2
REMARK VINA RESULT:     -12.0      2.346      5.111
REMARK  Name = 
REMARK  5 active torsions:
REMARK  status: ('A' for Active; 'I' for Inactive)
REMARK    1  A    between atoms: S_2  and  C_3
REMARK    2  A    between atoms: C_6  and  C_9
REMARK    3  A    between atoms: N_15  and  C_16
REMARK    4  A    between atoms: C_16  and  C_17
REMARK    5  A    between atoms: C_20  and  C_21
REMARK                            x       y       z     vdW  Elec       q    Type
REMARK                         _______ _______ _______ _____ _____    ______ ____
ROOT
ATOM      9  C   UNL     1      -1.476   1.825  25.166  0.00  0.00    +0.012 A 
ATOM     10  C   UNL     1      -2.218   1.528  24.960  0.00  0.00    +0.041 A 
ATOM     11  C   UNL     1      -3.039   1.808  24.658  0.00  0.00    +0.054 C 
ATOM     12  C   UNL     1      -3.389   2.387  24.472  0.00  0.00    +0.011 C 
ATOM     13  C   UNL     1      -3.533   1.587  24.524  0.00  0.00    +0.039 C 
ATOM     14  C   UNL     1      -3.896   0.668  24.520  0.00  0.00    +0.074 C 
ATOM     15  N   UNL     1      -3.225   0.251  24.790  0.00  0.00    -0.266 NA
ATOM     24  C   UNL     1      -3.404   0.925  24.648  0.00  0.00    +0.078 C 
ATOM     25  C   UNL     1      -2.679   1.285  24.840  0.00  0.00    +0.110 C 
ATOM     26  N   UNL     1      -2.367   0.718  25.012  0.00  0.00    -0.299 N 
ATOM     27  C   UNL     1      -1.775   0.205  25.268  0.00  0.00    +0.261 A 
ATOM     28  O   UNL     1      -1.924  -0.605  25.320  0.00  0.00    -0.267 OA
ATOM     29  C   UNL     1      -1.033   0.501  25.474  0.00  0.00    +0.061 A 
ATOM     30  C   UNL     1      -0.884   1.311  25.422  0.00  0.00    +0.006 A 
ENDROOT
BRANCH   9   6
ATOM      3  C   UNL     1      -1.028   4.254  25.011  0.00  0.00    +0.025 A 
ATOM      4  C   UNL     1      -1.350   3.937  25.701  0.00  0.00    +0.006 A 
ATOM      5  C   UNL     1      -1.500   3.127  25.753  0.00  0.00    +0.001 A 
ATOM      6  C   UNL     1      -1.327   2.634  25.114  0.00  0.00    +0.001 A 
ATOM      7  C   UNL     1      -1.004   2.951  24.424  0.00  0.00    +0.001 A 
ATOM      8  C   UNL     1      -0.855   3.761  24.373  0.00  0.00    +0.006 A 
BRANCH   3   2
ATOM      1  C   UNL     1      -1.506   5.600  24.964  0.00  0.00    +0.074 C 
ATOM      2  S   UNL     1      -0.879   5.063  24.960  0.00  0.00    -0.113 S 
ENDBRANCH   3   2
ENDBRANCH   9   6
BRANCH  15  16
ATOM     16  C   UNL     1      -2.757  -0.389  25.021  0.00  0.00    +0.138 C 
BRANCH  16  17
ATOM     17  C   UNL     1      -3.066  -1.153  24.999  0.00  0.00    +0.139 A 
ATOM     18  C   UNL     1      -3.276  -1.611  25.653  0.00  0.00    +0.037 A 
ATOM     19  C   UNL     1      -3.558  -2.335  25.377  0.00  0.00    +0.038 A 
ATOM     20  C   UNL     1      -3.522  -2.326  24.553  0.00  0.00    +0.156 A 
ATOM     23  O   UNL     1      -3.218  -1.596  24.319  0.00  0.00    -0.458 OA
BRANCH  20  21
ATOM     21  C   UNL     1      -3.750  -2.939  24.050  0.00  0.00    +0.246 C 
ATOM     22  O   UNL     1      -4.407  -2.848  23.559  0.00  0.00    -0.212 OA
ENDBRANCH  20  21
ENDBRANCH  16  17
ENDBRANCH  15  16
TORSDOF 5
ENDMDL
MODEL 3
REMARK VINA RESULT:     -10.0      2.556      3.635
REMARK  Name = 
REMARK  5 active torsions:
REMARK  status: ('A' for Active; 'I' for Inactive)
REMARK    1  A    between atoms: S_2  and  C_3
REMARK    2  A    between atoms: C_6  and  C_9
REMARK    3  A    between atoms: N_15  and  C_16
REMARK    4  A    between atoms: C_16  and  C_17
REMARK    5  A    between atoms: C_20  and  C_21
REMARK                            x       y       z     vdW  Elec       q    Type
REMARK                         _______ _______ _______ _____ _____    ______ ____
ROOT
ATOM      9  C   UNL     1      -1.417   0.592  24.365  0.00  0.00    +0.012 A 
ATOM     10  C   UNL     1      -1.961   1.099  24.007  0.00  0.00    +0.041 A 
ATOM     11  C   UNL     1      -2.042   1.666  23.288  0.00  0.00    +0.054 C 
ATOM     12  C   UNL     1      -1.683   1.912  22.738  0.00  0.00    +0.011 C 
ATOM     13  C   UNL     1      -2.424   2.004  23.063  0.00  0.00    +0.039 C 
ATOM     14  C   UNL     1      -3.353   2.245  23.299  0.00  0.00    +0.074 C 
ATOM     15  N   UNL     1      -3.447   1.780  23.987  0.00  0.00    -0.266 NA
ATOM     24  C   UNL     1      -2.940   1.909  23.504  0.00  0.00    +0.078 C 
ATOM     25  C   UNL     1      -2.348   1.414  23.816  0.00  0.00    +0.110 C 
ATOM     26  N   UNL     1      -2.712   1.195  24.334  0.00  0.00    -0.299 N 
ATOM     27  C   UNL     1      -2.920   0.783  25.018  0.00  0.00    +0.261 A 
ATOM     28  O   UNL     1      -3.672   0.879  25.344  0.00  0.00    -0.267 OA
ATOM     29  C   UNL     1      -2.377   0.276  25.375  0.00  0.00    +0.061 A 
ATOM     30  C   UNL     1      -1.625   0.181  25.049  0.00  0.00    +0.006 A 
ENDROOT
BRANCH   9   6
ATOM      3  C   UNL     1       0.838   0.306  23.385  0.00  0.00    +0.025 A 
ATOM      4  C   UNL     1       0.240  -0.234  23.209  0.00  0.00    +0.006 A 
ATOM      5  C   UNL     1      -0.511  -0.138  23.535  0.00  0.00    +0.001 A 
ATOM      6  C   UNL     1      -0.665   0.497  24.038  0.00  0.00    +0.001 A 
ATOM      7  C   UNL     1      -0.067   1.037  24.215  0.00  0.00    +0.001 A 
ATOM      8  C   UNL     1       0.684   0.942  23.888  0.00  0.00    +0.006 A 
BRANCH   3   2
ATOM      1  C   UNL     1       1.677  -0.152  22.323  0.00  0.00    +0.074 C 
ATOM      2  S   UNL     1       1.589   0.211  23.059  0.00  0.00    -0.113 S 
ENDBRANCH   3   2
ENDBRANCH   9   6
BRANCH  15  16
ATOM     16  C   UNL     1      -3.813   1.453  24.651  0.00  0.00    +0.138 C 
BRANCH  16  17
ATOM     17  C   UNL     1      -4.554   1.725  24.889  0.00  0.00    +0.139 A 
ATOM     18  C   UNL     1      -5.276   1.350  24.752  0.00  0.00    +0.037 A 
ATOM     19  C   UNL     1      -5.871   1.814  25.085  0.00  0.00    +0.038 A 
ATOM     20  C   UNL     1      -5.518   2.475  25.428  0.00  0.00    +0.156 A 
ATOM     23  O   UNL     1      -4.704   2.421  25.308  0.00  0.00    -0.458 OA
BRANCH  20  21
ATOM     21  C   UNL     1      -5.910   3.084  25.823  0.00  0.00    +0.246 C 
ATOM     22  O   UNL     1      -5.688   3.869  25.697  0.00  0.00    -0.212 OA
ENDBRANCH  20  21
ENDBRANCH  16  17
ENDBRANCH  15  16
TORSDOF 5
ENDMDL
