REMARK  Name = 
REMARK  9 active torsions:
REMARK  status: ('A' for Active; 'I' for Inactive)
REMARK    1  A    between atoms: O_2  and  C_3
REMARK    2  A    between atoms: C_6  and  N_7
REMARK    3  A    between atoms: N_10  and  C_11
REMARK    4  A    between atoms: C_11  and  C_12
REMARK    5  A    between atoms: C_16  and  C_17
REMARK    6  A    between atoms: C_17  and  C_18
REMARK    7  A    between atoms: N_20  and  C_21
REMARK    8  A    between atoms: C_21  and  C_22
REMARK    9  A    between atoms: C_29  and  C_30
REMARK                            x       y       z     vdW  Elec       q    Type
REMARK                         _______ _______ _______ _____ _____    ______ ____
ROOT
ATOM     12  C   UNL     1      -1.429  -1.650   0.000  0.00  0.00    +0.043 C 
ATOM     13  C   UNL     1      -0.715  -1.238   0.000  0.00  0.00    -0.033 C 
ATOM     14  C   UNL     1       0.000  -1.650   0.000  0.00  0.00    -0.048 C 
ATOM     15  C   UNL     1       0.715  -1.238   0.000  0.00  0.00    +0.026 C 
ATOM     16  C   UNL     1       0.000  -2.475   0.000  0.00  0.00    +0.027 C 
ATOM     28  C   UNL     1      -0.715  -2.888   0.000  0.00  0.00    +0.005 C 
ATOM     29  C   UNL     1      -1.429  -2.475   0.000  0.00  0.00    +0.006 C 
ENDROOT
BRANCH  29  30
ATOM     30  C   UNL     1      -2.143  -2.888   0.000  0.00  0.00    +0.000 C 
ATOM     31  C   UNL     1      -2.858  -2.475   0.000  0.00  0.00    +0.000 C 
ATOM     32  C   UNL     1      -2.143  -3.712   0.000  0.00  0.00    +0.000 C 
ENDBRANCH  29  30
BRANCH  12  11
ATOM     11  C   UNL     1      -2.143  -1.238   0.000  0.00  0.00    +0.121 C 
BRANCH  11  10
ATOM      7  N   UNL     1      -4.287  -1.650   0.000  0.00  0.00    -0.161 NA
ATOM      8  C   UNL     1      -3.572  -1.238   0.000  0.00  0.00    +0.344 C 
ATOM      9  O   UNL     1      -3.572  -0.412   0.000  0.00  0.00    -0.249 OA
ATOM     10  N   UNL     1      -2.858  -1.650   0.000  0.00  0.00    -0.187 NA
BRANCH   7   6
ATOM      3  C   UNL     1      -6.430  -0.412   0.000  0.00  0.00    +0.139 A 
ATOM      4  C   UNL     1      -5.716   0.000   0.000  0.00  0.00    +0.038 A 
ATOM      5  C   UNL     1      -5.001  -0.412   0.000  0.00  0.00    +0.020 A 
ATOM      6  C   UNL     1      -5.001  -1.238   0.000  0.00  0.00    +0.075 A 
ATOM     33  C   UNL     1      -5.716  -1.650   0.000  0.00  0.00    +0.020 A 
ATOM     34  C   UNL     1      -6.430  -1.238   0.000  0.00  0.00    +0.038 A 
BRANCH   3   2
ATOM      1  C   UNL     1      -7.859  -0.412   0.000  0.00  0.00    +0.252 C 
ATOM      2  O   UNL     1      -7.145   0.000   0.000  0.00  0.00    -0.471 OA
ENDBRANCH   3   2
ENDBRANCH   7   6
ENDBRANCH  11  10
ENDBRANCH  12  11
BRANCH  16  17
ATOM     17  C   UNL     1       0.715  -2.888   0.000  0.00  0.00    +0.091 C 
BRANCH  17  18
ATOM     18  C   UNL     1       1.429  -2.475   0.000  0.00  0.00    +0.242 C 
ATOM     19  O   UNL     1       1.429  -1.650   0.000  0.00  0.00    -0.273 OA
ATOM     20  N   UNL     1       2.143  -2.888   0.000  0.00  0.00    -0.200 NA
BRANCH  20  21
ATOM     21  C   UNL     1       2.858  -2.475   0.000  0.00  0.00    +0.143 C 
BRANCH  21  22
ATOM     22  C   UNL     1       3.572  -2.888   0.000  0.00  0.00    +0.019 A 
ATOM     23  C   UNL     1       4.287  -2.475   0.000  0.00  0.00    +0.001 A 
ATOM     24  C   UNL     1       5.001  -2.888   0.000  0.00  0.00    +0.020 A 
ATOM     25  C   UNL     1       5.001  -3.712   0.000  0.00  0.00    +0.099 A 
ATOM     26  N   UNL     1       4.287  -4.125   0.000  0.00  0.00    -0.243 NA
ATOM     27  C   UNL     1       3.572  -3.712   0.000  0.00  0.00    +0.096 A 
ENDBRANCH  21  22
ENDBRANCH  20  21
ENDBRANCH  17  18
ENDBRANCH  16  17
TORSDOF 9
