REMARK  Name = 
REMARK  5 active torsions:
REMARK  status: ('A' for Active; 'I' for Inactive)
REMARK    1  A    between atoms: N_4  and  C_24
REMARK    2  A    between atoms: C_7  and  C_8
REMARK    3  A    between atoms: C_10  and  N_11
REMARK    4  A    between atoms: N_14  and  C_15
REMARK    5  A    between atoms: C_15  and  C_16
REMARK                            x       y       z     vdW  Elec       q    Type
REMARK                         _______ _______ _______ _____ _____    ______ ____
ROOT
ATOM      8  C   UNL     1      -0.738  -1.468   0.000  0.00  0.00    +0.048 C 
ATOM      9  C   UNL     1      -1.405  -1.952   0.000  0.00  0.00    +0.035 C 
ATOM     10  C   UNL     1      -2.072  -1.468   0.000  0.00  0.00    +0.119 C 
ATOM     22  C   UNL     1      -1.817  -0.683   0.000  0.00  0.00    -0.009 C 
ATOM     23  C   UNL     1      -0.993  -0.683   0.000  0.00  0.00    -0.025 C 
ENDROOT
BRANCH   8   7
ATOM      1  C   UNL     1       0.715  -0.412   0.000  0.00  0.00    +0.054 C 
ATOM      2  C   UNL     1       0.715  -1.238   0.000  0.00  0.00    +0.077 A 
ATOM      3  N   UNL     1       1.382  -1.722   0.000  0.00  0.00    -0.169 NA
ATOM      4  N   UNL     1       1.127  -2.507   0.000  0.00  0.00    -0.217 N 
ATOM      5  C   UNL     1       0.302  -2.507   0.000  0.00  0.00    +0.060 A 
ATOM      6  C   UNL     1      -0.183  -3.175   0.000  0.00  0.00    +0.052 C 
ATOM      7  C   UNL     1       0.047  -1.722   0.000  0.00  0.00    +0.011 A 
BRANCH   4  24
ATOM     24  C   UNL     1       1.612  -3.175   0.000  0.00  0.00    +0.163 A 
ATOM     25  C   UNL     1       2.432  -3.088   0.000  0.00  0.00    +0.039 A 
ATOM     26  C   UNL     1       2.917  -3.756   0.000  0.00  0.00    +0.005 A 
ATOM     27  C   UNL     1       2.582  -4.509   0.000  0.00  0.00    +0.021 A 
ATOM     28  C   UNL     1       1.761  -4.596   0.000  0.00  0.00    +0.101 A 
ATOM     29  N   UNL     1       1.276  -3.928   0.000  0.00  0.00    -0.225 NA
ENDBRANCH   4  24
ENDBRANCH   8   7
BRANCH  10  11
ATOM     11  N   UNL     1      -2.857  -1.722   0.000  0.00  0.00    -0.184 NA
ATOM     12  C   UNL     1      -3.470  -1.170   0.000  0.00  0.00    +0.340 C 
ATOM     13  O   UNL     1      -3.299  -0.363   0.000  0.00  0.00    -0.249 OA
ATOM     14  N   UNL     1      -4.255  -1.425   0.000  0.00  0.00    -0.182 NA
BRANCH  14  15
ATOM     15  C   UNL     1      -4.868  -0.873   0.000  0.00  0.00    +0.143 C 
BRANCH  15  16
ATOM     16  C   UNL     1      -5.652  -1.128   0.000  0.00  0.00    -0.001 A 
ATOM     17  C   UNL     1      -5.824  -1.935   0.000  0.00  0.00    -0.003 A 
ATOM     18  C   UNL     1      -6.609  -2.190   0.000  0.00  0.00    -0.000 A 
ATOM     19  C   UNL     1      -7.222  -1.638   0.000  0.00  0.00    -0.000 A 
ATOM     20  C   UNL     1      -7.050  -0.831   0.000  0.00  0.00    -0.000 A 
ATOM     21  C   UNL     1      -6.266  -0.576   0.000  0.00  0.00    -0.003 A 
ENDBRANCH  15  16
ENDBRANCH  14  15
ENDBRANCH  10  11
TORSDOF 5
