REMARK  Name = 
REMARK  4 active torsions:
REMARK  status: ('A' for Active; 'I' for Inactive)
REMARK    1  A    between atoms: C_1  and  N_2
REMARK    2  A    between atoms: C_1  and  C_17
REMARK    3  A    between atoms: C_5  and  C_7
REMARK    4  A    between atoms: C_10  and  C_12
REMARK                            x       y       z     vdW  Elec       q    Type
REMARK                         _______ _______ _______ _____ _____    ______ ____
ROOT
ATOM      2  N   UNL     1       2.533  -0.655   0.000  0.00  0.00    -0.268 NA
ATOM      3  C   UNL     1       3.200  -1.140   0.000  0.00  0.00    +0.073 C 
ATOM      4  C   UNL     1       2.946  -1.925   0.000  0.00  0.00    +0.028 C 
ATOM      5  C   UNL     1       2.120  -1.925   0.000  0.00  0.00    +0.096 C 
ATOM      6  C   UNL     1       1.865  -1.140   0.000  0.00  0.00    +0.082 C 
ENDROOT
BRANCH   5   7
ATOM      7  C   UNL     1       1.636  -2.592   0.000  0.00  0.00    +0.228 A 
ATOM      8  N   UNL     1       1.891  -3.377   0.000  0.00  0.00    -0.111 NA
ATOM      9  N   UNL     1       1.223  -3.862   0.000  0.00  0.00    -0.104 NA
ATOM     10  C   UNL     1       0.556  -3.377   0.000  0.00  0.00    +0.285 A 
ATOM     11  O   UNL     1       0.811  -2.592   0.000  0.00  0.00    -0.417 OA
BRANCH  10  12
ATOM     12  C   UNL     1      -0.229  -3.632   0.000  0.00  0.00    +0.200 A 
ATOM     13  C   UNL     1      -0.484  -4.416   0.000  0.00  0.00    +0.046 A 
ATOM     14  C   UNL     1      -1.309  -4.416   0.000  0.00  0.00    +0.044 A 
ATOM     15  C   UNL     1      -1.564  -3.632   0.000  0.00  0.00    +0.180 A 
ATOM     16  O   UNL     1      -0.896  -3.147   0.000  0.00  0.00    -0.446 OA
ENDBRANCH  10  12
ENDBRANCH   5   7
BRANCH   2   1
ATOM      1  C   UNL     1       2.533   0.170   0.000  0.00  0.00    +0.106 C 
BRANCH   1  17
ATOM     17  C   UNL     1       3.248   0.582   0.000  0.00  0.00    +0.023 A 
ATOM     18  C   UNL     1       3.334   1.403   0.000  0.00  0.00    +0.004 A 
ATOM     19  C   UNL     1       4.141   1.574   0.000  0.00  0.00    +0.007 A 
ATOM     20  C   UNL     1       4.553   0.860   0.000  0.00  0.00    +0.035 A 
ATOM     21  S   UNL     1       4.001   0.247   0.000  0.00  0.00    -0.089 S 
ENDBRANCH   1  17
ENDBRANCH   2   1
TORSDOF 4
