MODEL 1
REMARK VINA RESULT:     -10.8      0.000      0.000
REMARK  Name = 
REMARK  6 active torsions:
REMARK  status: ('A' for Active; 'I' for Inactive)
REMARK    1  A    between atoms: C_5  and  C_6
REMARK    2  A    between atoms: C_6  and  C_7
REMARK    3  A    between atoms: C_16  and  C_17
REMARK    4  A    between atoms: C_17  and  N_18
REMARK    5  A    between atoms: N_18  and  S_19
REMARK    6  A    between atoms: S_19  and  C_22
REMARK                            x       y       z     vdW  Elec       q    Type
REMARK                         _______ _______ _______ _____ _____    ______ ____
ROOT
ATOM      1  O   UNL     1      -6.295   1.694  25.339  0.00  0.00    -0.218 OA
ATOM      2  C   UNL     1      -5.543   2.028  25.278  0.00  0.00    +0.213 C 
ATOM      3  C   UNL     1      -5.360   2.828  25.363  0.00  0.00    +0.212 C 
ATOM      4  O   UNL     1      -5.896   3.434  25.524  0.00  0.00    -0.218 OA
ATOM      5  C   UNL     1      -4.547   2.915  25.258  0.00  0.00    +0.157 C 
ATOM     15  O   UNL     1      -4.227   2.169  25.109  0.00  0.00    -0.351 OA
ATOM     16  C   UNL     1      -4.842   1.621  25.121  0.00  0.00    +0.167 C 
ENDROOT
BRANCH   5   6
ATOM      6  C   UNL     1      -4.126   3.624  25.296  0.00  0.00    +0.117 C 
BRANCH   6   7
ATOM      7  C   UNL     1      -3.525   3.777  24.751  0.00  0.00    +0.228 C 
ATOM      8  O   UNL     1      -3.648   3.627  23.950  0.00  0.00    -0.275 OA
ATOM      9  N   UNL     1      -2.802   4.081  25.008  0.00  0.00    -0.274 N 
ATOM     10  C   UNL     1      -2.202   4.234  24.464  0.00  0.00    +0.125 C 
ATOM     11  C   UNL     1      -1.479   4.537  24.721  0.00  0.00    +0.164 C 
ATOM     12  O   UNL     1      -1.356   4.687  25.523  0.00  0.00    -0.350 OA
ATOM     13  C   UNL     1      -1.957   4.534  26.068  0.00  0.00    +0.164 C 
ATOM     14  C   UNL     1      -2.680   4.231  25.811  0.00  0.00    +0.125 C 
ENDBRANCH   6   7
ENDBRANCH   5   6
BRANCH  16  17
ATOM     17  C   UNL     1      -4.771   0.809  24.998  0.00  0.00    +0.148 C 
BRANCH  17  18
ATOM     18  N   UNL     1      -4.024   0.462  24.959  0.00  0.00    -0.075 NA
BRANCH  18  19
ATOM     19  S   UNL     1      -3.951  -0.346  24.808  0.00  0.00    +0.077 S 
ATOM     20  O   UNL     1      -4.070  -0.506  25.608  0.00  0.00    -0.152 OA
ATOM     21  O   UNL     1      -3.832  -0.186  24.007  0.00  0.00    -0.152 OA
BRANCH  19  22
ATOM     22  C   UNL     1      -3.879  -1.153  24.657  0.00  0.00    +0.124 A 
ATOM     23  C   UNL     1      -4.240  -1.484  23.993  0.00  0.00    +0.021 A 
ATOM     24  C   UNL     1      -4.168  -2.291  23.842  0.00  0.00    +0.013 A 
ATOM     25  C   UNL     1      -3.734  -2.770  24.355  0.00  0.00    +0.058 A 
ATOM     26 CL   UNL     1      -3.662  -3.577  24.205  0.00  0.00    -0.082 Cl
ATOM     27  C   UNL     1      -3.373  -2.440  25.020  0.00  0.00    +0.013 A 
ATOM     28  C   UNL     1      -3.445  -1.632  25.170  0.00  0.00    +0.021 A 
ENDBRANCH  19  22
ENDBRANCH  18  19
ENDBRANCH  17  18
ENDBRANCH  16  17
TORSDOF 6
ENDMDL
MODEL 2
REMARK VINA RESULT:      -9.9      2.260      5.380
REMARK  Name = 
REMARK  6 active torsions:
REMARK  status: ('A' for Active; 'I' for Inactive)
REMARK    1  A    between atoms: C_5  and  C_6
REMARK    2  A    between atoms: C_6  and  C_7
REMARK    3  A    between atoms: C_16  and  C_17
REMARK    4  A    between atoms: C_17  and  N_18
REMARK    5  A    between atoms: N_18  and  S_19
REMARK    6  A    between atoms: S_19  and  C_22
REMARK                            x       y       z     vdW  Elec       q    Type
REMARK                         _______ _______ _______ _____ _____    ______ ____
ROOT
ATOM      1  O   UNL     1      -5.429   2.612  25.175  0.00  0.00    -0.218 OA
ATOM      2  C   UNL     1      -4.971   1.945  25.013  0.00  0.00    +0.213 C 
ATOM      3  C   UNL     1      -5.250   1.173  24.938  0.00  0.00    +0.212 C 
ATOM      4  O   UNL     1      -6.035   0.931  25.013  0.00  0.00    -0.218 OA
ATOM      5  C   UNL     1      -4.606   0.684  24.775  0.00  0.00    +0.157 C 
ATOM     15  O   UNL     1      -3.929   1.155  24.749  0.00  0.00    -0.351 OA
ATOM     16  C   UNL     1      -4.154   1.934  24.896  0.00  0.00    +0.167 C 
ENDROOT
BRANCH   5   6
ATOM      6  C   UNL     1      -4.633  -0.132  24.659  0.00  0.00    +0.117 C 
BRANCH   6   7
ATOM      7  C   UNL     1      -4.111  -0.625  25.066  0.00  0.00    +0.228 C 
ATOM      8  O   UNL     1      -3.764  -0.367  25.769  0.00  0.00    -0.275 OA
ATOM      9  N   UNL     1      -3.936  -1.375  24.770  0.00  0.00    -0.274 N 
ATOM     10  C   UNL     1      -3.414  -1.867  25.177  0.00  0.00    +0.125 C 
ATOM     11  C   UNL     1      -3.239  -2.617  24.882  0.00  0.00    +0.164 C 
ATOM     12  O   UNL     1      -3.585  -2.875  24.179  0.00  0.00    -0.350 OA
ATOM     13  C   UNL     1      -4.107  -2.382  23.772  0.00  0.00    +0.164 C 
ATOM     14  C   UNL     1      -4.283  -1.632  24.067  0.00  0.00    +0.125 C 
ENDBRANCH   6   7
ENDBRANCH   5   6
BRANCH  16  17
ATOM     17  C   UNL     1      -3.652   2.588  24.922  0.00  0.00    +0.148 C 
BRANCH  17  18
ATOM     18  N   UNL     1      -2.837   2.479  24.993  0.00  0.00    -0.075 NA
BRANCH  18  19
ATOM     19  S   UNL     1      -2.331   3.130  24.970  0.00  0.00    +0.077 S 
ATOM     20  O   UNL     1      -2.475   3.214  24.162  0.00  0.00    -0.152 OA
ATOM     21  O   UNL     1      -2.187   3.047  25.779  0.00  0.00    -0.152 OA
BRANCH  19  22
ATOM     22  C   UNL     1      -1.825   3.781  24.947  0.00  0.00    +0.124 A 
ATOM     23  C   UNL     1      -2.097   4.525  25.180  0.00  0.00    +0.021 A 
ATOM     24  C   UNL     1      -1.591   5.175  25.157  0.00  0.00    +0.013 A 
ATOM     25  C   UNL     1      -0.812   5.084  24.901  0.00  0.00    +0.058 A 
ATOM     26 CL   UNL     1      -0.306   5.734  24.878  0.00  0.00    -0.082 Cl
ATOM     27  C   UNL     1      -0.539   4.341  24.668  0.00  0.00    +0.013 A 
ATOM     28  C   UNL     1      -1.046   3.689  24.691  0.00  0.00    +0.021 A 
ENDBRANCH  19  22
ENDBRANCH  18  19
ENDBRANCH  17  18
ENDBRANCH  16  17
TORSDOF 6
ENDMDL
MODEL 3
REMARK VINA RESULT:      -9.5      2.192      3.203
REMARK  Name = 
REMARK  6 active torsions:
REMARK  status: ('A' for Active; 'I' for Inactive)
REMARK    1  A    between atoms: C_5  and  C_6
REMARK    2  A    between atoms: C_6  and  C_7
REMARK    3  A    between atoms: C_16  and  C_17
REMARK    4  A    between atoms: C_17  and  N_18
REMARK    5  A    between atoms: N_18  and  S_19
REMARK    6  A    between atoms: S_19  and  C_22
REMARK                            x       y       z     vdW  Elec       q    Type
REMARK                         _______ _______ _______ _____ _____    ______ ____
ROOT
ATOM      1  O   UNL     1       0.434   0.328  23.817  0.00  0.00    -0.218 OA
ATOM      2  C   UNL     1      -0.018   0.896  24.208  0.00  0.00    +0.213 C 
ATOM      3  C   UNL     1       0.232   1.652  24.424  0.00  0.00    +0.212 C 
ATOM      4  O   UNL     1       0.980   1.973  24.285  0.00  0.00    -0.218 OA
ATOM      5  C   UNL     1      -0.395   2.030  24.801  0.00  0.00    +0.157 C 
ATOM     15  O   UNL     1      -1.034   1.508  24.820  0.00  0.00    -0.351 OA
ATOM     16  C   UNL     1      -0.801   0.808  24.453  0.00  0.00    +0.167 C 
ENDROOT
BRANCH   5   6
ATOM      6  C   UNL     1      -0.386   2.797  25.108  0.00  0.00    +0.117 C 
BRANCH   6   7
ATOM      7  C   UNL     1      -1.072   3.118  25.436  0.00  0.00    +0.228 C 
ATOM      8  O   UNL     1      -1.586   2.638  25.868  0.00  0.00    -0.275 OA
ATOM      9  N   UNL     1      -1.243   3.918  25.332  0.00  0.00    -0.274 N 
ATOM     10  C   UNL     1      -1.928   4.239  25.660  0.00  0.00    +0.125 C 
ATOM     11  C   UNL     1      -2.100   5.039  25.557  0.00  0.00    +0.164 C 
ATOM     12  O   UNL     1      -1.586   5.519  25.125  0.00  0.00    -0.350 OA
ATOM     13  C   UNL     1      -0.900   5.197  24.796  0.00  0.00    +0.164 C 
ATOM     14  C   UNL     1      -0.729   4.397  24.900  0.00  0.00    +0.125 C 
ENDBRANCH   6   7
ENDBRANCH   5   6
BRANCH  16  17
ATOM     17  C   UNL     1      -1.269   0.136  24.349  0.00  0.00    +0.148 C 
BRANCH  17  18
ATOM     18  N   UNL     1      -1.967   0.049  24.780  0.00  0.00    -0.075 NA
BRANCH  18  19
ATOM     19  S   UNL     1      -2.479  -0.576  24.614  0.00  0.00    +0.077 S 
ATOM     20  O   UNL     1      -2.097  -1.039  25.180  0.00  0.00    -0.152 OA
ATOM     21  O   UNL     1      -2.861  -0.113  24.048  0.00  0.00    -0.152 OA
BRANCH  19  22
ATOM     22  C   UNL     1      -2.991  -1.201  24.448  0.00  0.00    +0.124 A 
ATOM     23  C   UNL     1      -3.720  -1.054  24.090  0.00  0.00    +0.021 A 
ATOM     24  C   UNL     1      -4.232  -1.679  23.925  0.00  0.00    +0.013 A 
ATOM     25  C   UNL     1      -4.015  -2.452  24.116  0.00  0.00    +0.058 A 
ATOM     26 CL   UNL     1      -4.527  -3.077  23.951  0.00  0.00    -0.082 Cl
ATOM     27  C   UNL     1      -3.287  -2.599  24.474  0.00  0.00    +0.013 A 
ATOM     28  C   UNL     1      -2.774  -1.974  24.640  0.00  0.00    +0.021 A 
ENDBRANCH  19  22
ENDBRANCH  18  19
ENDBRANCH  17  18
ENDBRANCH  16  17
TORSDOF 6
ENDMDL
MODEL 4
REMARK VINA RESULT:      -9.3      3.178      6.271
REMARK  Name = 
REMARK  6 active torsions:
REMARK  status: ('A' for Active; 'I' for Inactive)
REMARK    1  A    between atoms: C_5  and  C_6
REMARK    2  A    between atoms: C_6  and  C_7
REMARK    3  A    between atoms: C_16  and  C_17
REMARK    4  A    between atoms: C_17  and  N_18
REMARK    5  A    between atoms: N_18  and  S_19
REMARK    6  A    between atoms: S_19  and  C_22
REMARK                            x       y       z     vdW  Elec       q    Type
REMARK                         _______ _______ _______ _____ _____    ______ ____
ROOT
ATOM      1  O   UNL     1       0.771   0.746  23.548  0.00  0.00    -0.218 OA
ATOM      2  C   UNL     1       0.123   0.397  23.920  0.00  0.00    +0.213 C 
ATOM      3  C   UNL     1      -0.035  -0.412  23.962  0.00  0.00    +0.212 C 
ATOM      4  O   UNL     1       0.428  -1.013  23.638  0.00  0.00    -0.218 OA
ATOM      5  C   UNL     1      -0.736  -0.513  24.384  0.00  0.00    +0.157 C 
ATOM     15  O   UNL     1      -1.012   0.233  24.603  0.00  0.00    -0.351 OA
ATOM     16  C   UNL     1      -0.482   0.795  24.317  0.00  0.00    +0.167 C 
ENDROOT
BRANCH   5   6
ATOM      6  C   UNL     1      -1.099  -1.234  24.556  0.00  0.00    +0.117 C 
BRANCH   6   7
ATOM      7  C   UNL     1      -1.673  -1.277  25.147  0.00  0.00    +0.228 C 
ATOM      8  O   UNL     1      -1.574  -0.854  25.849  0.00  0.00    -0.275 OA
ATOM      9  N   UNL     1      -2.345  -1.741  25.037  0.00  0.00    -0.274 N 
ATOM     10  C   UNL     1      -2.919  -1.784  25.628  0.00  0.00    +0.125 C 
ATOM     11  C   UNL     1      -3.591  -2.248  25.518  0.00  0.00    +0.164 C 
ATOM     12  O   UNL     1      -3.691  -2.671  24.817  0.00  0.00    -0.350 OA
ATOM     13  C   UNL     1      -3.116  -2.629  24.225  0.00  0.00    +0.164 C 
ATOM     14  C   UNL     1      -2.444  -2.164  24.335  0.00  0.00    +0.125 C 
ENDBRANCH   6   7
ENDBRANCH   5   6
BRANCH  16  17
ATOM     17  C   UNL     1      -0.543   1.612  24.411  0.00  0.00    +0.148 C 
BRANCH  17  18
ATOM     18  N   UNL     1      -1.080   1.925  24.953  0.00  0.00    -0.075 NA
BRANCH  18  19
ATOM     19  S   UNL     1      -1.191   2.742  25.000  0.00  0.00    +0.077 S 
ATOM     20  O   UNL     1      -1.692   2.712  24.344  0.00  0.00    -0.152 OA
ATOM     21  O   UNL     1      -0.690   2.772  25.655  0.00  0.00    -0.152 OA
BRANCH  19  22
ATOM     22  C   UNL     1      -1.301   3.558  25.046  0.00  0.00    +0.124 A 
ATOM     23  C   UNL     1      -1.999   3.862  25.366  0.00  0.00    +0.021 A 
ATOM     24  C   UNL     1      -2.109   4.678  25.412  0.00  0.00    +0.013 A 
ATOM     25  C   UNL     1      -1.524   5.191  25.139  0.00  0.00    +0.058 A 
ATOM     26 CL   UNL     1      -1.634   6.006  25.185  0.00  0.00    -0.082 Cl
ATOM     27  C   UNL     1      -0.827   4.887  24.819  0.00  0.00    +0.013 A 
ATOM     28  C   UNL     1      -0.716   4.070  24.772  0.00  0.00    +0.021 A 
ENDBRANCH  19  22
ENDBRANCH  18  19
ENDBRANCH  17  18
ENDBRANCH  16  17
TORSDOF 6
ENDMDL
MODEL 5
REMARK VINA RESULT:      -8.5      2.942      4.726
REMARK  Name = 
REMARK  6 active torsions:
REMARK  status: ('A' for Active; 'I' for Inactive)
REMARK    1  A    between atoms: C_5  and  C_6
REMARK    2  A    between atoms: C_6  and  C_7
REMARK    3  A    between atoms: C_16  and  C_17
REMARK    4  A    between atoms: C_17  and  N_18
REMARK    5  A    between atoms: N_18  and  S_19
REMARK    6  A    between atoms: S_19  and  C_22
REMARK                            x       y       z     vdW  Elec       q    Type
REMARK                         _______ _______ _______ _____ _____    ______ ____
ROOT
ATOM      1  O   UNL     1      -3.588  -2.096  24.984  0.00  0.00    -0.218 OA
ATOM      2  C   UNL     1      -2.975  -1.556  24.871  0.00  0.00    +0.213 C 
ATOM      3  C   UNL     1      -2.183  -1.743  24.734  0.00  0.00    +0.212 C 
ATOM      4  O   UNL     1      -1.866  -2.503  24.685  0.00  0.00    -0.218 OA
ATOM      5  C   UNL     1      -1.765  -1.037  24.654  0.00  0.00    +0.157 C 
ATOM     15  O   UNL     1      -2.298  -0.413  24.741  0.00  0.00    -0.351 OA
ATOM     16  C   UNL     1      -3.046  -0.734  24.876  0.00  0.00    +0.167 C 
ENDROOT
BRANCH   5   6
ATOM      6  C   UNL     1      -0.955  -0.966  24.511  0.00  0.00    +0.117 C 
BRANCH   6   7
ATOM      7  C   UNL     1      -0.575  -0.245  24.639  0.00  0.00    +0.228 C 
ATOM      8  O   UNL     1      -0.772   0.214  25.296  0.00  0.00    -0.275 OA
ATOM      9  N   UNL     1       0.002   0.017  24.111  0.00  0.00    -0.274 N 
ATOM     10  C   UNL     1       0.382   0.738  24.239  0.00  0.00    +0.125 C 
ATOM     11  C   UNL     1       0.959   1.000  23.711  0.00  0.00    +0.164 C 
ATOM     12  O   UNL     1       1.156   0.542  23.054  0.00  0.00    -0.350 OA
ATOM     13  C   UNL     1       0.775  -0.180  22.926  0.00  0.00    +0.164 C 
ATOM     14  C   UNL     1       0.199  -0.442  23.454  0.00  0.00    +0.125 C 
ENDBRANCH   6   7
ENDBRANCH   5   6
BRANCH  16  17
ATOM     17  C   UNL     1      -3.742  -0.308  24.994  0.00  0.00    +0.148 C 
BRANCH  17  18
ATOM     18  N   UNL     1      -3.981   0.252  24.438  0.00  0.00    -0.075 NA
BRANCH  18  19
ATOM     19  S   UNL     1      -4.348   0.949  24.686  0.00  0.00    +0.077 S 
ATOM     20  O   UNL     1      -3.983   1.360  24.071  0.00  0.00    -0.152 OA
ATOM     21  O   UNL     1      -4.714   0.538  25.301  0.00  0.00    -0.152 OA
BRANCH  19  22
ATOM     22  C   UNL     1      -4.714   1.645  24.933  0.00  0.00    +0.124 A 
ATOM     23  C   UNL     1      -4.283   2.348  24.971  0.00  0.00    +0.021 A 
ATOM     24  C   UNL     1      -4.649   3.044  25.218  0.00  0.00    +0.013 A 
ATOM     25  C   UNL     1      -5.447   3.039  25.429  0.00  0.00    +0.058 A 
ATOM     26 CL   UNL     1      -5.813   3.735  25.676  0.00  0.00    -0.082 Cl
ATOM     27  C   UNL     1      -5.878   2.337  25.392  0.00  0.00    +0.013 A 
ATOM     28  C   UNL     1      -5.512   1.640  25.144  0.00  0.00    +0.021 A 
ENDBRANCH  19  22
ENDBRANCH  18  19
ENDBRANCH  17  18
ENDBRANCH  16  17
TORSDOF 6
ENDMDL
MODEL 6
REMARK VINA RESULT:      -7.5     16.685     19.439
REMARK  Name = 
REMARK  6 active torsions:
REMARK  status: ('A' for Active; 'I' for Inactive)
REMARK    1  A    between atoms: C_5  and  C_6
REMARK    2  A    between atoms: C_6  and  C_7
REMARK    3  A    between atoms: C_16  and  C_17
REMARK    4  A    between atoms: C_17  and  N_18
REMARK    5  A    between atoms: N_18  and  S_19
REMARK    6  A    between atoms: S_19  and  C_22
REMARK                            x       y       z     vdW  Elec       q    Type
REMARK                         _______ _______ _______ _____ _____    ______ ____
ROOT
ATOM      1  O   UNL     1      12.293   7.655  17.397  0.00  0.00    -0.218 OA
ATOM      2  C   UNL     1      12.938   7.524  17.894  0.00  0.00    +0.213 C 
ATOM      3  C   UNL     1      13.715   7.385  17.655  0.00  0.00    +0.212 C 
ATOM      4  O   UNL     1      13.984   7.354  16.875  0.00  0.00    -0.218 OA
ATOM      5  C   UNL     1      14.176   7.284  18.331  0.00  0.00    +0.157 C 
ATOM     15  O   UNL     1      13.683   7.360  18.989  0.00  0.00    -0.351 OA
ATOM     16  C   UNL     1      12.918   7.508  18.719  0.00  0.00    +0.167 C 
ENDROOT
BRANCH   5   6
ATOM      6  C   UNL     1      14.987   7.133  18.347  0.00  0.00    +0.117 C 
BRANCH   6   7
ATOM      7  C   UNL     1      15.441   7.383  18.990  0.00  0.00    +0.228 C 
ATOM      8  O   UNL     1      15.239   8.075  19.392  0.00  0.00    -0.275 OA
ATOM      9  N   UNL     1      16.095   6.942  19.230  0.00  0.00    -0.274 N 
ATOM     10  C   UNL     1      16.548   7.192  19.872  0.00  0.00    +0.125 C 
ATOM     11  C   UNL     1      17.202   6.751  20.112  0.00  0.00    +0.164 C 
ATOM     12  O   UNL     1      17.404   6.060  19.709  0.00  0.00    -0.350 OA
ATOM     13  C   UNL     1      16.951   5.810  19.066  0.00  0.00    +0.164 C 
ATOM     14  C   UNL     1      16.296   6.251  18.826  0.00  0.00    +0.125 C 
ENDBRANCH   6   7
ENDBRANCH   5   6
BRANCH  16  17
ATOM     17  C   UNL     1      12.251   7.620  19.191  0.00  0.00    +0.148 C 
BRANCH  17  18
ATOM     18  N   UNL     1      12.137   7.154  19.861  0.00  0.00    -0.075 NA
BRANCH  18  19
ATOM     19  S   UNL     1      11.749   7.466  20.520  0.00  0.00    +0.077 S 
ATOM     20  O   UNL     1      12.302   7.107  21.016  0.00  0.00    -0.152 OA
ATOM     21  O   UNL     1      11.196   7.825  20.023  0.00  0.00    -0.152 OA
BRANCH  19  22
ATOM     22  C   UNL     1      11.362   7.777  21.177  0.00  0.00    +0.124 A 
ATOM     23  C   UNL     1      10.691   7.402  21.478  0.00  0.00    +0.021 A 
ATOM     24  C   UNL     1      10.303   7.713  22.135  0.00  0.00    +0.013 A 
ATOM     25  C   UNL     1      10.586   8.400  22.494  0.00  0.00    +0.058 A 
ATOM     26 CL   UNL     1      10.198   8.712  23.152  0.00  0.00    -0.082 Cl
ATOM     27  C   UNL     1      11.257   8.776  22.195  0.00  0.00    +0.013 A 
ATOM     28  C   UNL     1      11.645   8.464  21.537  0.00  0.00    +0.021 A 
ENDBRANCH  19  22
ENDBRANCH  18  19
ENDBRANCH  17  18
ENDBRANCH  16  17
TORSDOF 6
ENDMDL
