MODEL 1
REMARK VINA RESULT:      -9.2      0.000      0.000
REMARK  Name = 
REMARK  9 active torsions:
REMARK  status: ('A' for Active; 'I' for Inactive)
REMARK    1  A    between atoms: O_2  and  C_3
REMARK    2  A    between atoms: C_3  and  C_4
REMARK    3  A    between atoms: C_4  and  N_5
REMARK    4  A    between atoms: N_5  and  C_6
REMARK    5  A    between atoms: C_9  and  C_12
REMARK    6  A    between atoms: C_15  and  C_17
REMARK    7  A    between atoms: N_21  and  C_22
REMARK    8  A    between atoms: C_22  and  C_23
REMARK    9  A    between atoms: C_27  and  O_28
REMARK                            x       y       z     vdW  Elec       q    Type
REMARK                         _______ _______ _______ _____ _____    ______ ____
ROOT
ATOM     12  C   UNL     1      -0.843  -0.256  24.371  0.00  0.00    +0.205 A 
ATOM     13  N   UNL     1      -0.910  -0.305  25.192  0.00  0.00    -0.056 NA
ATOM     14  O   UNL     1      -1.698  -0.468  25.375  0.00  0.00    -0.336 OA
ATOM     15  C   UNL     1      -2.118  -0.519  24.667  0.00  0.00    +0.251 A 
ATOM     16  N   UNL     1      -1.590  -0.389  24.047  0.00  0.00    -0.190 NA
ENDROOT
BRANCH  12   9
ATOM      6  C   UNL     1       1.233   0.207  23.106  0.00  0.00    +0.148 A 
ATOM      7  C   UNL     1       0.796   0.830  23.425  0.00  0.00    +0.036 A 
ATOM      8  C   UNL     1       0.104   0.675  23.846  0.00  0.00    +0.008 A 
ATOM      9  C   UNL     1      -0.151  -0.102  23.949  0.00  0.00    +0.058 A 
ATOM     10  C   UNL     1       0.285  -0.725  23.630  0.00  0.00    +0.103 A 
ATOM     11  N   UNL     1       0.977  -0.571  23.209  0.00  0.00    -0.228 NA
BRANCH   6   5
ATOM      5  N   UNL     1       1.925   0.361  22.684  0.00  0.00    -0.218 NA
BRANCH   5   4
ATOM      4  C   UNL     1       2.637   0.467  23.086  0.00  0.00    +0.146 C 
BRANCH   4   3
ATOM      3  C   UNL     1       3.340   0.556  22.663  0.00  0.00    +0.166 C 
BRANCH   3   2
ATOM      1  C   UNL     1       4.712   0.553  23.061  0.00  0.00    +0.174 C 
ATOM      2  O   UNL     1       3.985   0.938  23.008  0.00  0.00    -0.349 OA
ENDBRANCH   3   2
ENDBRANCH   4   3
ENDBRANCH   5   4
ENDBRANCH   6   5
ENDBRANCH  12   9
BRANCH  15  17
ATOM     17  C   UNL     1      -2.925  -0.675  24.592  0.00  0.00    +0.138 C 
ATOM     18  C   UNL     1      -3.278  -1.420  24.605  0.00  0.00    +0.027 C 
ATOM     19  C   UNL     1      -4.091  -1.319  24.511  0.00  0.00    +0.019 C 
ATOM     20  C   UNL     1      -4.241  -0.510  24.440  0.00  0.00    +0.073 C 
ATOM     21  N   UNL     1      -3.520  -0.112  24.490  0.00  0.00    -0.263 NA
BRANCH  21  22
ATOM     22  C   UNL     1      -3.413   0.704  24.446  0.00  0.00    +0.103 C 
BRANCH  22  23
ATOM     23  C   UNL     1      -4.037   1.213  24.625  0.00  0.00    +0.033 A 
ATOM     24  C   UNL     1      -4.120   1.924  24.216  0.00  0.00    +0.196 A 
ATOM     25  O   UNL     1      -3.580   2.127  23.627  0.00  0.00    -0.287 OA
ATOM     26  C   UNL     1      -4.745   2.433  24.396  0.00  0.00    +0.079 A 
ATOM     27  C   UNL     1      -5.285   2.229  24.985  0.00  0.00    +0.142 A 
ATOM     30  C   UNL     1      -5.202   1.518  25.394  0.00  0.00    +0.037 A 
ATOM     31  C   UNL     1      -4.578   1.010  25.215  0.00  0.00    +0.003 A 
BRANCH  27  28
ATOM     28  O   UNL     1      -5.910   2.738  25.165  0.00  0.00    -0.471 OA
ATOM     29  C   UNL     1      -5.814   3.320  25.742  0.00  0.00    +0.252 C 
ENDBRANCH  27  28
ENDBRANCH  22  23
ENDBRANCH  21  22
ENDBRANCH  15  17
TORSDOF 9
ENDMDL
MODEL 2
REMARK VINA RESULT:      -8.3      2.517      4.220
REMARK  Name = 
REMARK  9 active torsions:
REMARK  status: ('A' for Active; 'I' for Inactive)
REMARK    1  A    between atoms: O_2  and  C_3
REMARK    2  A    between atoms: C_3  and  C_4
REMARK    3  A    between atoms: C_4  and  N_5
REMARK    4  A    between atoms: N_5  and  C_6
REMARK    5  A    between atoms: C_9  and  C_12
REMARK    6  A    between atoms: C_15  and  C_17
REMARK    7  A    between atoms: N_21  and  C_22
REMARK    8  A    between atoms: C_22  and  C_23
REMARK    9  A    between atoms: C_27  and  O_28
REMARK                            x       y       z     vdW  Elec       q    Type
REMARK                         _______ _______ _______ _____ _____    ______ ____
ROOT
ATOM     12  C   UNL     1      -0.469   1.695  25.294  0.00  0.00    +0.205 A 
ATOM     13  N   UNL     1       0.151   2.007  25.741  0.00  0.00    -0.056 NA
ATOM     14  O   UNL     1       0.074   2.829  25.743  0.00  0.00    -0.336 OA
ATOM     15  C   UNL     1      -0.592   3.024  25.297  0.00  0.00    +0.251 A 
ATOM     16  N   UNL     1      -0.928   2.323  25.020  0.00  0.00    -0.190 NA
ENDROOT
BRANCH  12   9
ATOM      6  C   UNL     1      -0.876  -0.707  24.854  0.00  0.00    +0.148 A 
ATOM      7  C   UNL     1      -1.100  -0.375  25.575  0.00  0.00    +0.036 A 
ATOM      8  C   UNL     1      -0.964   0.425  25.722  0.00  0.00    +0.008 A 
ATOM      9  C   UNL     1      -0.605   0.894  25.147  0.00  0.00    +0.058 A 
ATOM     10  C   UNL     1      -0.381   0.564  24.425  0.00  0.00    +0.103 A 
ATOM     11  N   UNL     1      -0.517  -0.236  24.278  0.00  0.00    -0.228 NA
BRANCH   6   5
ATOM      5  N   UNL     1      -1.012  -1.507  24.707  0.00  0.00    -0.218 NA
BRANCH   5   4
ATOM      4  C   UNL     1      -1.755  -1.758  24.450  0.00  0.00    +0.146 C 
BRANCH   4   3
ATOM      3  C   UNL     1      -1.967  -2.553  24.516  0.00  0.00    +0.166 C 
BRANCH   3   2
ATOM      1  C   UNL     1      -3.331  -2.978  24.522  0.00  0.00    +0.174 C 
ATOM      2  O   UNL     1      -2.628  -2.839  24.114  0.00  0.00    -0.349 OA
ENDBRANCH   3   2
ENDBRANCH   4   3
ENDBRANCH   5   4
ENDBRANCH   6   5
ENDBRANCH  12   9
BRANCH  15  17
ATOM     17  C   UNL     1      -0.874   3.786  25.154  0.00  0.00    +0.138 C 
ATOM     18  C   UNL     1      -0.498   4.366  24.704  0.00  0.00    +0.027 C 
ATOM     19  C   UNL     1      -0.972   5.040  24.707  0.00  0.00    +0.019 C 
ATOM     20  C   UNL     1      -1.643   4.877  25.160  0.00  0.00    +0.073 C 
ATOM     21  N   UNL     1      -1.582   4.102  25.436  0.00  0.00    -0.263 NA
BRANCH  21  22
ATOM     22  C   UNL     1      -2.133   3.712  25.910  0.00  0.00    +0.103 C 
BRANCH  22  23
ATOM     23  C   UNL     1      -2.938   3.778  25.747  0.00  0.00    +0.033 A 
ATOM     24  C   UNL     1      -3.473   3.921  26.359  0.00  0.00    +0.196 A 
ATOM     25  O   UNL     1      -3.202   3.998  27.134  0.00  0.00    -0.287 OA
ATOM     26  C   UNL     1      -4.280   3.987  26.196  0.00  0.00    +0.079 A 
ATOM     27  C   UNL     1      -4.550   3.910  25.420  0.00  0.00    +0.142 A 
ATOM     30  C   UNL     1      -4.016   3.767  24.809  0.00  0.00    +0.037 A 
ATOM     31  C   UNL     1      -3.210   3.701  24.972  0.00  0.00    +0.003 A 
BRANCH  27  28
ATOM     28  O   UNL     1      -5.357   3.976  25.257  0.00  0.00    -0.471 OA
ATOM     29  C   UNL     1      -5.873   3.372  25.480  0.00  0.00    +0.252 C 
ENDBRANCH  27  28
ENDBRANCH  22  23
ENDBRANCH  21  22
ENDBRANCH  15  17
TORSDOF 9
ENDMDL
MODEL 3
REMARK VINA RESULT:      -8.1      1.472      2.706
REMARK  Name = 
REMARK  9 active torsions:
REMARK  status: ('A' for Active; 'I' for Inactive)
REMARK    1  A    between atoms: O_2  and  C_3
REMARK    2  A    between atoms: C_3  and  C_4
REMARK    3  A    between atoms: C_4  and  N_5
REMARK    4  A    between atoms: N_5  and  C_6
REMARK    5  A    between atoms: C_9  and  C_12
REMARK    6  A    between atoms: C_15  and  C_17
REMARK    7  A    between atoms: N_21  and  C_22
REMARK    8  A    between atoms: C_22  and  C_23
REMARK    9  A    between atoms: C_27  and  O_28
REMARK                            x       y       z     vdW  Elec       q    Type
REMARK                         _______ _______ _______ _____ _____    ______ ____
ROOT
ATOM     12  C   UNL     1      -0.511   1.288  24.372  0.00  0.00    +0.205 A 
ATOM     13  N   UNL     1      -0.560   1.578  25.144  0.00  0.00    -0.056 NA
ATOM     14  O   UNL     1      -1.355   1.723  25.311  0.00  0.00    -0.336 OA
ATOM     15  C   UNL     1      -1.797   1.523  24.643  0.00  0.00    +0.251 A 
ATOM     16  N   UNL     1      -1.275   1.255  24.063  0.00  0.00    -0.190 NA
ENDROOT
BRANCH  12   9
ATOM      6  C   UNL     1       1.566   0.636  23.194  0.00  0.00    +0.148 A 
ATOM      7  C   UNL     1       0.907   0.139  23.176  0.00  0.00    +0.036 A 
ATOM      8  C   UNL     1       0.215   0.357  23.568  0.00  0.00    +0.008 A 
ATOM      9  C   UNL     1       0.182   1.071  23.979  0.00  0.00    +0.058 A 
ATOM     10  C   UNL     1       0.840   1.568  23.999  0.00  0.00    +0.103 A 
ATOM     11  N   UNL     1       1.532   1.350  23.606  0.00  0.00    -0.228 NA
BRANCH   6   5
ATOM      5  N   UNL     1       2.258   0.418  22.801  0.00  0.00    -0.218 NA
BRANCH   5   4
ATOM      4  C   UNL     1       2.982   0.738  23.034  0.00  0.00    +0.146 C 
BRANCH   4   3
ATOM      3  C   UNL     1       3.685   0.424  22.739  0.00  0.00    +0.166 C 
BRANCH   3   2
ATOM      1  C   UNL     1       5.051   0.281  23.134  0.00  0.00    +0.174 C 
ATOM      2  O   UNL     1       4.408   0.762  22.947  0.00  0.00    -0.349 OA
ENDBRANCH   3   2
ENDBRANCH   4   3
ENDBRANCH   5   4
ENDBRANCH   6   5
ENDBRANCH  12   9
BRANCH  15  17
ATOM     17  C   UNL     1      -2.616   1.582  24.568  0.00  0.00    +0.138 C 
ATOM     18  C   UNL     1      -3.030   2.228  24.266  0.00  0.00    +0.027 C 
ATOM     19  C   UNL     1      -3.835   2.051  24.293  0.00  0.00    +0.019 C 
ATOM     20  C   UNL     1      -3.919   1.294  24.613  0.00  0.00    +0.073 C 
ATOM     21  N   UNL     1      -3.165   1.005  24.783  0.00  0.00    -0.263 NA
BRANCH  21  22
ATOM     22  C   UNL     1      -2.991   0.268  25.110  0.00  0.00    +0.103 C 
BRANCH  22  23
ATOM     23  C   UNL     1      -3.371  -0.408  24.829  0.00  0.00    +0.033 A 
ATOM     24  C   UNL     1      -3.425  -1.079  25.305  0.00  0.00    +0.196 A 
ATOM     25  O   UNL     1      -3.098  -1.075  26.063  0.00  0.00    -0.287 OA
ATOM     26  C   UNL     1      -3.804  -1.756  25.024  0.00  0.00    +0.079 A 
ATOM     27  C   UNL     1      -4.130  -1.760  24.266  0.00  0.00    +0.142 A 
ATOM     30  C   UNL     1      -4.077  -1.089  23.790  0.00  0.00    +0.037 A 
ATOM     31  C   UNL     1      -3.697  -0.413  24.071  0.00  0.00    +0.003 A 
BRANCH  27  28
ATOM     28  O   UNL     1      -4.510  -2.437  23.985  0.00  0.00    -0.471 OA
ATOM     29  C   UNL     1      -4.065  -3.087  23.738  0.00  0.00    +0.252 C 
ENDBRANCH  27  28
ENDBRANCH  22  23
ENDBRANCH  21  22
ENDBRANCH  15  17
TORSDOF 9
ENDMDL
MODEL 4
REMARK VINA RESULT:      -7.9      1.721      2.453
REMARK  Name = 
REMARK  9 active torsions:
REMARK  status: ('A' for Active; 'I' for Inactive)
REMARK    1  A    between atoms: O_2  and  C_3
REMARK    2  A    between atoms: C_3  and  C_4
REMARK    3  A    between atoms: C_4  and  N_5
REMARK    4  A    between atoms: N_5  and  C_6
REMARK    5  A    between atoms: C_9  and  C_12
REMARK    6  A    between atoms: C_15  and  C_17
REMARK    7  A    between atoms: N_21  and  C_22
REMARK    8  A    between atoms: C_22  and  C_23
REMARK    9  A    between atoms: C_27  and  O_28
REMARK                            x       y       z     vdW  Elec       q    Type
REMARK                         _______ _______ _______ _____ _____    ______ ____
ROOT
ATOM     12  C   UNL     1      -0.450   1.837  24.795  0.00  0.00    +0.205 A 
ATOM     13  N   UNL     1      -0.634   1.651  25.578  0.00  0.00    -0.056 NA
ATOM     14  O   UNL     1      -1.230   2.164  25.829  0.00  0.00    -0.336 OA
ATOM     15  C   UNL     1      -1.414   2.667  25.201  0.00  0.00    +0.251 A 
ATOM     16  N   UNL     1      -0.932   2.464  24.562  0.00  0.00    -0.190 NA
ENDROOT
BRANCH  12   9
ATOM      6  C   UNL     1       1.249   0.708  23.395  0.00  0.00    +0.148 A 
ATOM      7  C   UNL     1       0.504   0.368  23.494  0.00  0.00    +0.036 A 
ATOM      8  C   UNL     1      -0.062   0.744  23.961  0.00  0.00    +0.008 A 
ATOM      9  C   UNL     1       0.116   1.460  24.328  0.00  0.00    +0.058 A 
ATOM     10  C   UNL     1       0.861   1.801  24.230  0.00  0.00    +0.103 A 
ATOM     11  N   UNL     1       1.428   1.425  23.763  0.00  0.00    -0.228 NA
BRANCH   6   5
ATOM      5  N   UNL     1       1.816   0.331  22.928  0.00  0.00    -0.218 NA
BRANCH   5   4
ATOM      4  C   UNL     1       2.579   0.640  22.877  0.00  0.00    +0.146 C 
BRANCH   4   3
ATOM      3  C   UNL     1       3.188   0.185  22.555  0.00  0.00    +0.166 C 
BRANCH   3   2
ATOM      1  C   UNL     1       4.582   0.292  22.852  0.00  0.00    +0.174 C 
ATOM      2  O   UNL     1       3.925   0.525  22.410  0.00  0.00    -0.349 OA
ENDBRANCH   3   2
ENDBRANCH   4   3
ENDBRANCH   5   4
ENDBRANCH   6   5
ENDBRANCH  12   9
BRANCH  15  17
ATOM     17  C   UNL     1      -1.980   3.267  25.209  0.00  0.00    +0.138 C 
ATOM     18  C   UNL     1      -1.845   4.058  25.399  0.00  0.00    +0.027 C 
ATOM     19  C   UNL     1      -2.561   4.462  25.337  0.00  0.00    +0.019 C 
ATOM     20  C   UNL     1      -3.140   3.919  25.108  0.00  0.00    +0.073 C 
ATOM     21  N   UNL     1      -2.781   3.181  25.029  0.00  0.00    -0.263 NA
BRANCH  21  22
ATOM     22  C   UNL     1      -3.156   2.480  24.809  0.00  0.00    +0.103 C 
BRANCH  22  23
ATOM     23  C   UNL     1      -3.959   2.376  24.964  0.00  0.00    +0.033 A 
ATOM     24  C   UNL     1      -4.388   1.805  24.552  0.00  0.00    +0.196 A 
ATOM     25  O   UNL     1      -4.014   1.338  23.984  0.00  0.00    -0.287 OA
ATOM     26  C   UNL     1      -5.192   1.701  24.707  0.00  0.00    +0.079 A 
ATOM     27  C   UNL     1      -5.566   2.168  25.274  0.00  0.00    +0.142 A 
ATOM     30  C   UNL     1      -5.137   2.739  25.687  0.00  0.00    +0.037 A 
ATOM     31  C   UNL     1      -4.334   2.843  25.532  0.00  0.00    +0.003 A 
BRANCH  27  28
ATOM     28  O   UNL     1      -6.370   2.064  25.429  0.00  0.00    -0.471 OA
ATOM     29  C   UNL     1      -6.617   1.823  26.179  0.00  0.00    +0.252 C 
ENDBRANCH  27  28
ENDBRANCH  22  23
ENDBRANCH  21  22
ENDBRANCH  15  17
TORSDOF 9
ENDMDL
MODEL 5
REMARK VINA RESULT:      -7.5      2.899      4.508
REMARK  Name = 
REMARK  9 active torsions:
REMARK  status: ('A' for Active; 'I' for Inactive)
REMARK    1  A    between atoms: O_2  and  C_3
REMARK    2  A    between atoms: C_3  and  C_4
REMARK    3  A    between atoms: C_4  and  N_5
REMARK    4  A    between atoms: N_5  and  C_6
REMARK    5  A    between atoms: C_9  and  C_12
REMARK    6  A    between atoms: C_15  and  C_17
REMARK    7  A    between atoms: N_21  and  C_22
REMARK    8  A    between atoms: C_22  and  C_23
REMARK    9  A    between atoms: C_27  and  O_28
REMARK                            x       y       z     vdW  Elec       q    Type
REMARK                         _______ _______ _______ _____ _____    ______ ____
ROOT
ATOM     12  C   UNL     1      -4.776   0.481  24.861  0.00  0.00    +0.205 A 
ATOM     13  N   UNL     1      -5.519   0.554  24.510  0.00  0.00    -0.056 NA
ATOM     14  O   UNL     1      -5.789   1.323  24.643  0.00  0.00    -0.336 OA
ATOM     15  C   UNL     1      -5.213   1.724  25.076  0.00  0.00    +0.251 A 
ATOM     16  N   UNL     1      -4.586   1.204  25.210  0.00  0.00    -0.190 NA
ENDROOT
BRANCH  12   9
ATOM      6  C   UNL     1      -3.363  -1.551  24.864  0.00  0.00    +0.148 A 
ATOM      7  C   UNL     1      -3.687  -1.275  24.158  0.00  0.00    +0.036 A 
ATOM      8  C   UNL     1      -4.158  -0.597  24.157  0.00  0.00    +0.008 A 
ATOM      9  C   UNL     1      -4.305  -0.197  24.862  0.00  0.00    +0.058 A 
ATOM     10  C   UNL     1      -3.981  -0.472  25.569  0.00  0.00    +0.103 A 
ATOM     11  N   UNL     1      -3.510  -1.149  25.570  0.00  0.00    -0.228 NA
BRANCH   6   5
ATOM      5  N   UNL     1      -2.892  -2.229  24.865  0.00  0.00    -0.218 NA
BRANCH   5   4
ATOM      4  C   UNL     1      -2.121  -2.195  24.571  0.00  0.00    +0.146 C 
BRANCH   4   3
ATOM      3  C   UNL     1      -1.510  -2.573  24.976  0.00  0.00    +0.166 C 
BRANCH   3   2
ATOM      1  C   UNL     1      -0.176  -2.140  25.253  0.00  0.00    +0.174 C 
ATOM      2  O   UNL     1      -0.728  -2.467  24.734  0.00  0.00    -0.349 OA
ENDBRANCH   3   2
ENDBRANCH   4   3
ENDBRANCH   5   4
ENDBRANCH   6   5
ENDBRANCH  12   9
BRANCH  15  17
ATOM     17  C   UNL     1      -5.254   2.508  25.329  0.00  0.00    +0.138 C 
ATOM     18  C   UNL     1      -5.882   2.851  25.741  0.00  0.00    +0.027 C 
ATOM     19  C   UNL     1      -5.692   3.642  25.882  0.00  0.00    +0.019 C 
ATOM     20  C   UNL     1      -4.947   3.787  25.557  0.00  0.00    +0.073 C 
ATOM     21  N   UNL     1      -4.677   3.086  25.215  0.00  0.00    -0.263 NA
BRANCH  21  22
ATOM     22  C   UNL     1      -3.956   2.982  24.828  0.00  0.00    +0.103 C 
BRANCH  22  23
ATOM     23  C   UNL     1      -3.333   3.502  24.970  0.00  0.00    +0.033 A 
ATOM     24  C   UNL     1      -2.900   3.809  24.339  0.00  0.00    +0.196 A 
ATOM     25  O   UNL     1      -3.090   3.596  23.565  0.00  0.00    -0.287 OA
ATOM     26  C   UNL     1      -2.275   4.331  24.481  0.00  0.00    +0.079 A 
ATOM     27  C   UNL     1      -2.085   4.544  25.255  0.00  0.00    +0.142 A 
ATOM     30  C   UNL     1      -2.518   4.237  25.886  0.00  0.00    +0.037 A 
ATOM     31  C   UNL     1      -3.142   3.717  25.744  0.00  0.00    +0.003 A 
BRANCH  27  28
ATOM     28  O   UNL     1      -1.461   5.065  25.397  0.00  0.00    -0.471 OA
ATOM     29  C   UNL     1      -0.763   5.000  24.962  0.00  0.00    +0.252 C 
ENDBRANCH  27  28
ENDBRANCH  22  23
ENDBRANCH  21  22
ENDBRANCH  15  17
TORSDOF 9
ENDMDL
MODEL 6
REMARK VINA RESULT:      -7.4      2.007      2.431
REMARK  Name = 
REMARK  9 active torsions:
REMARK  status: ('A' for Active; 'I' for Inactive)
REMARK    1  A    between atoms: O_2  and  C_3
REMARK    2  A    between atoms: C_3  and  C_4
REMARK    3  A    between atoms: C_4  and  N_5
REMARK    4  A    between atoms: N_5  and  C_6
REMARK    5  A    between atoms: C_9  and  C_12
REMARK    6  A    between atoms: C_15  and  C_17
REMARK    7  A    between atoms: N_21  and  C_22
REMARK    8  A    between atoms: C_22  and  C_23
REMARK    9  A    between atoms: C_27  and  O_28
REMARK                            x       y       z     vdW  Elec       q    Type
REMARK                         _______ _______ _______ _____ _____    ______ ____
ROOT
ATOM     12  C   UNL     1      -0.331   0.211  23.834  0.00  0.00    +0.205 A 
ATOM     13  N   UNL     1      -0.604  -0.360  24.364  0.00  0.00    -0.056 NA
ATOM     14  O   UNL     1      -1.382  -0.172  24.563  0.00  0.00    -0.336 OA
ATOM     15  C   UNL     1      -1.591   0.515  24.156  0.00  0.00    +0.251 A 
ATOM     16  N   UNL     1      -0.941   0.751  23.705  0.00  0.00    -0.190 NA
ENDROOT
BRANCH  12   9
ATOM      6  C   UNL     1       1.920   0.287  22.809  0.00  0.00    +0.148 A 
ATOM      7  C   UNL     1       1.414  -0.344  22.647  0.00  0.00    +0.036 A 
ATOM      8  C   UNL     1       0.663  -0.369  22.988  0.00  0.00    +0.008 A 
ATOM      9  C   UNL     1       0.419   0.236  23.492  0.00  0.00    +0.058 A 
ATOM     10  C   UNL     1       0.925   0.867  23.655  0.00  0.00    +0.103 A 
ATOM     11  N   UNL     1       1.676   0.893  23.314  0.00  0.00    -0.228 NA
BRANCH   6   5
ATOM      5  N   UNL     1       2.671   0.312  22.467  0.00  0.00    -0.218 NA
BRANCH   5   4
ATOM      4  C   UNL     1       3.321   0.545  22.918  0.00  0.00    +0.146 C 
BRANCH   4   3
ATOM      3  C   UNL     1       4.084   0.358  22.668  0.00  0.00    +0.166 C 
BRANCH   3   2
ATOM      1  C   UNL     1       5.342   0.147  23.313  0.00  0.00    +0.174 C 
ATOM      2  O   UNL     1       4.737   0.655  23.075  0.00  0.00    -0.349 OA
ENDBRANCH   3   2
ENDBRANCH   4   3
ENDBRANCH   5   4
ENDBRANCH   6   5
ENDBRANCH  12   9
BRANCH  15  17
ATOM     17  C   UNL     1      -2.320   0.898  24.193  0.00  0.00    +0.138 C 
ATOM     18  C   UNL     1      -2.989   0.711  23.748  0.00  0.00    +0.027 C 
ATOM     19  C   UNL     1      -3.592   1.233  23.961  0.00  0.00    +0.019 C 
ATOM     20  C   UNL     1      -3.295   1.743  24.538  0.00  0.00    +0.073 C 
ATOM     21  N   UNL     1      -2.509   1.535  24.682  0.00  0.00    -0.263 NA
BRANCH  21  22
ATOM     22  C   UNL     1      -2.002   1.902  25.219  0.00  0.00    +0.103 C 
BRANCH  22  23
ATOM     23  C   UNL     1      -1.981   2.724  25.273  0.00  0.00    +0.033 A 
ATOM     24  C   UNL     1      -1.455   3.091  25.791  0.00  0.00    +0.196 A 
ATOM     25  O   UNL     1      -0.949   2.635  26.257  0.00  0.00    -0.287 OA
ATOM     26  C   UNL     1      -1.434   3.914  25.844  0.00  0.00    +0.079 A 
ATOM     27  C   UNL     1      -1.940   4.370  25.378  0.00  0.00    +0.142 A 
ATOM     30  C   UNL     1      -2.466   4.003  24.860  0.00  0.00    +0.037 A 
ATOM     31  C   UNL     1      -2.487   3.181  24.807  0.00  0.00    +0.003 A 
BRANCH  27  28
ATOM     28  O   UNL     1      -1.919   5.194  25.432  0.00  0.00    -0.471 OA
ATOM     29  C   UNL     1      -1.384   5.622  24.972  0.00  0.00    +0.252 C 
ENDBRANCH  27  28
ENDBRANCH  22  23
ENDBRANCH  21  22
ENDBRANCH  15  17
TORSDOF 9
ENDMDL
MODEL 7
REMARK VINA RESULT:      -7.2      2.809      4.106
REMARK  Name = 
REMARK  9 active torsions:
REMARK  status: ('A' for Active; 'I' for Inactive)
REMARK    1  A    between atoms: O_2  and  C_3
REMARK    2  A    between atoms: C_3  and  C_4
REMARK    3  A    between atoms: C_4  and  N_5
REMARK    4  A    between atoms: N_5  and  C_6
REMARK    5  A    between atoms: C_9  and  C_12
REMARK    6  A    between atoms: C_15  and  C_17
REMARK    7  A    between atoms: N_21  and  C_22
REMARK    8  A    between atoms: C_22  and  C_23
REMARK    9  A    between atoms: C_27  and  O_28
REMARK                            x       y       z     vdW  Elec       q    Type
REMARK                         _______ _______ _______ _____ _____    ______ ____
ROOT
ATOM     12  C   UNL     1      -1.828   2.276  25.082  0.00  0.00    +0.205 A 
ATOM     13  N   UNL     1      -1.921   2.505  24.295  0.00  0.00    -0.056 NA
ATOM     14  O   UNL     1      -2.681   2.291  24.055  0.00  0.00    -0.336 OA
ATOM     15  C   UNL     1      -3.058   1.929  24.694  0.00  0.00    +0.251 A 
ATOM     16  N   UNL     1      -2.530   1.920  25.329  0.00  0.00    -0.190 NA
ENDROOT
BRANCH  12   9
ATOM      6  C   UNL     1       0.201   2.599  26.462  0.00  0.00    +0.148 A 
ATOM      7  C   UNL     1      -0.412   3.150  26.494  0.00  0.00    +0.036 A 
ATOM      8  C   UNL     1      -1.088   3.042  26.034  0.00  0.00    +0.008 A 
ATOM      9  C   UNL     1      -1.152   2.383  25.542  0.00  0.00    +0.058 A 
ATOM     10  C   UNL     1      -0.539   1.832  25.510  0.00  0.00    +0.103 A 
ATOM     11  N   UNL     1       0.137   1.939  25.970  0.00  0.00    -0.228 NA
BRANCH   6   5
ATOM      5  N   UNL     1       0.877   2.707  26.922  0.00  0.00    -0.218 NA
BRANCH   5   4
ATOM      4  C   UNL     1       0.838   2.612  27.741  0.00  0.00    +0.146 C 
BRANCH   4   3
ATOM      3  C   UNL     1       1.531   2.613  28.189  0.00  0.00    +0.166 C 
BRANCH   3   2
ATOM      1  C   UNL     1       2.039   2.352  29.499  0.00  0.00    +0.174 C 
ATOM      2  O   UNL     1       1.494   2.727  29.005  0.00  0.00    -0.349 OA
ENDBRANCH   3   2
ENDBRANCH   4   3
ENDBRANCH   5   4
ENDBRANCH   6   5
ENDBRANCH  12   9
BRANCH  15  17
ATOM     17  C   UNL     1      -3.826   1.630  24.697  0.00  0.00    +0.138 C 
ATOM     18  C   UNL     1      -4.514   2.058  24.543  0.00  0.00    +0.027 C 
ATOM     19  C   UNL     1      -5.155   1.543  24.606  0.00  0.00    +0.019 C 
ATOM     20  C   UNL     1      -4.863   0.795  24.799  0.00  0.00    +0.073 C 
ATOM     21  N   UNL     1      -4.042   0.849  24.855  0.00  0.00    -0.263 NA
BRANCH  21  22
ATOM     22  C   UNL     1      -3.527   0.231  25.038  0.00  0.00    +0.103 C 
BRANCH  22  23
ATOM     23  C   UNL     1      -3.704  -0.538  24.798  0.00  0.00    +0.033 A 
ATOM     24  C   UNL     1      -3.572  -1.170  25.310  0.00  0.00    +0.196 A 
ATOM     25  O   UNL     1      -3.262  -1.034  26.063  0.00  0.00    -0.287 OA
ATOM     26  C   UNL     1      -3.749  -1.940  25.071  0.00  0.00    +0.079 A 
ATOM     27  C   UNL     1      -4.059  -2.076  24.318  0.00  0.00    +0.142 A 
ATOM     30  C   UNL     1      -4.191  -1.443  23.806  0.00  0.00    +0.037 A 
ATOM     31  C   UNL     1      -4.014  -0.674  24.046  0.00  0.00    +0.003 A 
BRANCH  27  28
ATOM     28  O   UNL     1      -4.236  -2.846  24.079  0.00  0.00    -0.471 OA
ATOM     29  C   UNL     1      -3.635  -3.340  23.804  0.00  0.00    +0.252 C 
ENDBRANCH  27  28
ENDBRANCH  22  23
ENDBRANCH  21  22
ENDBRANCH  15  17
TORSDOF 9
ENDMDL
MODEL 8
REMARK VINA RESULT:      -7.2      1.352      6.070
REMARK  Name = 
REMARK  9 active torsions:
REMARK  status: ('A' for Active; 'I' for Inactive)
REMARK    1  A    between atoms: O_2  and  C_3
REMARK    2  A    between atoms: C_3  and  C_4
REMARK    3  A    between atoms: C_4  and  N_5
REMARK    4  A    between atoms: N_5  and  C_6
REMARK    5  A    between atoms: C_9  and  C_12
REMARK    6  A    between atoms: C_15  and  C_17
REMARK    7  A    between atoms: N_21  and  C_22
REMARK    8  A    between atoms: C_22  and  C_23
REMARK    9  A    between atoms: C_27  and  O_28
REMARK                            x       y       z     vdW  Elec       q    Type
REMARK                         _______ _______ _______ _____ _____    ______ ____
ROOT
ATOM     12  C   UNL     1      -3.465  -0.120  24.514  0.00  0.00    +0.205 A 
ATOM     13  N   UNL     1      -3.545  -0.744  23.980  0.00  0.00    -0.056 NA
ATOM     14  O   UNL     1      -2.859  -1.201  24.015  0.00  0.00    -0.336 OA
ATOM     15  C   UNL     1      -2.354  -0.859  24.571  0.00  0.00    +0.251 A 
ATOM     16  N   UNL     1      -2.729  -0.191  24.879  0.00  0.00    -0.190 NA
ENDROOT
BRANCH  12   9
ATOM      6  C   UNL     1      -5.138   1.653  24.944  0.00  0.00    +0.148 A 
ATOM      7  C   UNL     1      -5.157   0.952  25.379  0.00  0.00    +0.036 A 
ATOM      8  C   UNL     1      -4.600   0.361  25.235  0.00  0.00    +0.008 A 
ATOM      9  C   UNL     1      -4.022   0.471  24.657  0.00  0.00    +0.058 A 
ATOM     10  C   UNL     1      -4.002   1.171  24.221  0.00  0.00    +0.103 A 
ATOM     11  N   UNL     1      -4.559   1.762  24.365  0.00  0.00    -0.228 NA
BRANCH   6   5
ATOM      5  N   UNL     1      -5.695   2.243  25.087  0.00  0.00    -0.218 NA
BRANCH   5   4
ATOM      4  C   UNL     1      -5.471   2.936  25.476  0.00  0.00    +0.146 C 
BRANCH   4   3
ATOM      3  C   UNL     1      -5.997   3.570  25.523  0.00  0.00    +0.166 C 
BRANCH   3   2
ATOM      1  C   UNL     1      -5.992   4.998  25.580  0.00  0.00    +0.174 C 
ATOM      2  O   UNL     1      -5.767   4.270  25.895  0.00  0.00    -0.349 OA
ENDBRANCH   3   2
ENDBRANCH   4   3
ENDBRANCH   5   4
ENDBRANCH   6   5
ENDBRANCH  12   9
BRANCH  15  17
ATOM     17  C   UNL     1      -1.606  -1.136  24.782  0.00  0.00    +0.138 C 
ATOM     18  C   UNL     1      -1.446  -1.834  25.192  0.00  0.00    +0.027 C 
ATOM     19  C   UNL     1      -0.628  -1.893  25.284  0.00  0.00    +0.019 C 
ATOM     20  C   UNL     1      -0.283  -1.232  24.931  0.00  0.00    +0.073 C 
ATOM     21  N   UNL     1      -0.888  -0.764  24.621  0.00  0.00    -0.263 NA
BRANCH  21  22
ATOM     22  C   UNL     1      -0.791  -0.049  24.220  0.00  0.00    +0.103 C 
BRANCH  22  23
ATOM     23  C   UNL     1      -0.072   0.126  23.856  0.00  0.00    +0.033 A 
ATOM     24  C   UNL     1       0.300   0.847  24.003  0.00  0.00    +0.196 A 
ATOM     25  O   UNL     1      -0.046   1.394  24.514  0.00  0.00    -0.287 OA
ATOM     26  C   UNL     1       1.020   1.022  23.639  0.00  0.00    +0.079 A 
ATOM     27  C   UNL     1       1.367   0.474  23.128  0.00  0.00    +0.142 A 
ATOM     30  C   UNL     1       0.995  -0.247  22.981  0.00  0.00    +0.037 A 
ATOM     31  C   UNL     1       0.276  -0.421  23.345  0.00  0.00    +0.003 A 
BRANCH  27  28
ATOM     28  O   UNL     1       2.087   0.650  22.764  0.00  0.00    -0.471 OA
ATOM     29  C   UNL     1       2.660   0.062  22.681  0.00  0.00    +0.252 C 
ENDBRANCH  27  28
ENDBRANCH  22  23
ENDBRANCH  21  22
ENDBRANCH  15  17
TORSDOF 9
ENDMDL
MODEL 9
REMARK VINA RESULT:      -7.1      2.071      5.607
REMARK  Name = 
REMARK  9 active torsions:
REMARK  status: ('A' for Active; 'I' for Inactive)
REMARK    1  A    between atoms: O_2  and  C_3
REMARK    2  A    between atoms: C_3  and  C_4
REMARK    3  A    between atoms: C_4  and  N_5
REMARK    4  A    between atoms: N_5  and  C_6
REMARK    5  A    between atoms: C_9  and  C_12
REMARK    6  A    between atoms: C_15  and  C_17
REMARK    7  A    between atoms: N_21  and  C_22
REMARK    8  A    between atoms: C_22  and  C_23
REMARK    9  A    between atoms: C_27  and  O_28
REMARK                            x       y       z     vdW  Elec       q    Type
REMARK                         _______ _______ _______ _____ _____    ______ ____
ROOT
ATOM     12  C   UNL     1      -0.899   2.275  24.679  0.00  0.00    +0.205 A 
ATOM     13  N   UNL     1      -0.123   2.446  24.905  0.00  0.00    -0.056 NA
ATOM     14  O   UNL     1       0.364   1.846  24.616  0.00  0.00    -0.336 OA
ATOM     15  C   UNL     1      -0.110   1.304  24.213  0.00  0.00    +0.251 A 
ATOM     16  N   UNL     1      -0.890   1.570  24.252  0.00  0.00    -0.190 NA
ENDROOT
BRANCH  12   9
ATOM      6  C   UNL     1      -2.898   3.640  25.195  0.00  0.00    +0.148 A 
ATOM      7  C   UNL     1      -2.325   3.511  25.775  0.00  0.00    +0.036 A 
ATOM      8  C   UNL     1      -1.659   3.056  25.603  0.00  0.00    +0.008 A 
ATOM      9  C   UNL     1      -1.565   2.730  24.851  0.00  0.00    +0.058 A 
ATOM     10  C   UNL     1      -2.138   2.858  24.271  0.00  0.00    +0.103 A 
ATOM     11  N   UNL     1      -2.804   3.313  24.443  0.00  0.00    -0.228 NA
BRANCH   6   5
ATOM      5  N   UNL     1      -3.564   4.095  25.367  0.00  0.00    -0.218 NA
BRANCH   5   4
ATOM      4  C   UNL     1      -4.221   3.745  25.724  0.00  0.00    +0.146 C 
BRANCH   4   3
ATOM      3  C   UNL     1      -4.981   3.990  25.517  0.00  0.00    +0.166 C 
BRANCH   3   2
ATOM      1  C   UNL     1      -6.053   3.057  25.671  0.00  0.00    +0.174 C 
ATOM      2  O   UNL     1      -5.634   3.714  25.940  0.00  0.00    -0.349 OA
ENDBRANCH   3   2
ENDBRANCH   4   3
ENDBRANCH   5   4
ENDBRANCH   6   5
ENDBRANCH  12   9
BRANCH  15  17
ATOM     17  C   UNL     1       0.151   0.618  23.836  0.00  0.00    +0.138 C 
ATOM     18  C   UNL     1       0.627   0.586  23.163  0.00  0.00    +0.027 C 
ATOM     19  C   UNL     1       0.752  -0.208  22.977  0.00  0.00    +0.019 C 
ATOM     20  C   UNL     1       0.352  -0.667  23.535  0.00  0.00    +0.073 C 
ATOM     21  N   UNL     1      -0.020  -0.155  24.066  0.00  0.00    -0.263 NA
BRANCH  21  22
ATOM     22  C   UNL     1      -0.480  -0.379  24.712  0.00  0.00    +0.103 C 
BRANCH  22  23
ATOM     23  C   UNL     1      -0.980  -1.033  24.657  0.00  0.00    +0.033 A 
ATOM     24  C   UNL     1      -0.938  -1.633  25.220  0.00  0.00    +0.196 A 
ATOM     25  O   UNL     1      -0.396  -1.581  25.840  0.00  0.00    -0.287 OA
ATOM     26  C   UNL     1      -1.439  -2.288  25.164  0.00  0.00    +0.079 A 
ATOM     27  C   UNL     1      -1.980  -2.340  24.544  0.00  0.00    +0.142 A 
ATOM     30  C   UNL     1      -2.022  -1.739  23.981  0.00  0.00    +0.037 A 
ATOM     31  C   UNL     1      -1.522  -1.086  24.037  0.00  0.00    +0.003 A 
BRANCH  27  28
ATOM     28  O   UNL     1      -2.481  -2.994  24.489  0.00  0.00    -0.471 OA
ATOM     29  C   UNL     1      -3.290  -2.907  24.625  0.00  0.00    +0.252 C 
ENDBRANCH  27  28
ENDBRANCH  22  23
ENDBRANCH  21  22
ENDBRANCH  15  17
TORSDOF 9
ENDMDL
MODEL 10
REMARK VINA RESULT:      -5.7     16.701     18.289
REMARK  Name = 
REMARK  9 active torsions:
REMARK  status: ('A' for Active; 'I' for Inactive)
REMARK    1  A    between atoms: O_2  and  C_3
REMARK    2  A    between atoms: C_3  and  C_4
REMARK    3  A    between atoms: C_4  and  N_5
REMARK    4  A    between atoms: N_5  and  C_6
REMARK    5  A    between atoms: C_9  and  C_12
REMARK    6  A    between atoms: C_15  and  C_17
REMARK    7  A    between atoms: N_21  and  C_22
REMARK    8  A    between atoms: C_22  and  C_23
REMARK    9  A    between atoms: C_27  and  O_28
REMARK                            x       y       z     vdW  Elec       q    Type
REMARK                         _______ _______ _______ _____ _____    ______ ____
ROOT
ATOM     12  C   UNL     1      -7.278  -9.124   9.925  0.00  0.00    +0.205 A 
ATOM     13  N   UNL     1      -7.156  -9.907   9.694  0.00  0.00    -0.056 NA
ATOM     14  O   UNL     1      -6.655 -10.261  10.246  0.00  0.00    -0.336 OA
ATOM     15  C   UNL     1      -6.467  -9.697  10.818  0.00  0.00    +0.251 A 
ATOM     16  N   UNL     1      -6.852  -8.995  10.619  0.00  0.00    -0.190 NA
ENDROOT
BRANCH  12   9
ATOM      6  C   UNL     1      -8.676  -7.459   8.742  0.00  0.00    +0.148 A 
ATOM      7  C   UNL     1      -9.027  -8.013   9.242  0.00  0.00    +0.036 A 
ATOM      8  C   UNL     1      -8.561  -8.568   9.636  0.00  0.00    +0.008 A 
ATOM      9  C   UNL     1      -7.744  -8.569   9.531  0.00  0.00    +0.058 A 
ATOM     10  C   UNL     1      -7.391  -8.016   9.031  0.00  0.00    +0.103 A 
ATOM     11  N   UNL     1      -7.857  -7.461   8.637  0.00  0.00    -0.228 NA
BRANCH   6   5
ATOM      5  N   UNL     1      -9.142  -6.904   8.348  0.00  0.00    -0.218 NA
BRANCH   5   4
ATOM      4  C   UNL     1      -9.510  -6.299   8.772  0.00  0.00    +0.146 C 
BRANCH   4   3
ATOM      3  C   UNL     1      -9.770  -5.621   8.381  0.00  0.00    +0.166 C 
BRANCH   3   2
ATOM      1  C   UNL     1     -10.259  -4.331   8.753  0.00  0.00    +0.174 C 
ATOM      2  O   UNL     1     -10.357  -5.150   8.718  0.00  0.00    -0.349 OA
ENDBRANCH   3   2
ENDBRANCH   4   3
ENDBRANCH   5   4
ENDBRANCH   6   5
ENDBRANCH  12   9
BRANCH  15  17
ATOM     17  C   UNL     1      -5.980  -9.814  11.473  0.00  0.00    +0.138 C 
ATOM     18  C   UNL     1      -6.231  -9.918  12.252  0.00  0.00    +0.027 C 
ATOM     19  C   UNL     1      -5.563 -10.016  12.725  0.00  0.00    +0.019 C 
ATOM     20  C   UNL     1      -4.898  -9.973  12.239  0.00  0.00    +0.073 C 
ATOM     21  N   UNL     1      -5.155  -9.848  11.465  0.00  0.00    -0.263 NA
BRANCH  21  22
ATOM     22  C   UNL     1      -4.674  -9.771  10.800  0.00  0.00    +0.103 C 
BRANCH  22  23
ATOM     23  C   UNL     1      -3.853  -9.782  10.881  0.00  0.00    +0.033 A 
ATOM     24  C   UNL     1      -3.388  -9.258  10.447  0.00  0.00    +0.196 A 
ATOM     25  O   UNL     1      -3.743  -8.721   9.930  0.00  0.00    -0.287 OA
ATOM     26  C   UNL     1      -2.566  -9.269  10.528  0.00  0.00    +0.079 A 
ATOM     27  C   UNL     1      -2.211  -9.806  11.045  0.00  0.00    +0.142 A 
ATOM     30  C   UNL     1      -2.677 -10.330  11.479  0.00  0.00    +0.037 A 
ATOM     31  C   UNL     1      -3.497 -10.319  11.398  0.00  0.00    +0.003 A 
BRANCH  27  28
ATOM     28  O   UNL     1      -1.390  -9.817  11.127  0.00  0.00    -0.471 OA
ATOM     29  C   UNL     1      -1.019  -9.285  11.636  0.00  0.00    +0.252 C 
ENDBRANCH  27  28
ENDBRANCH  22  23
ENDBRANCH  21  22
ENDBRANCH  15  17
TORSDOF 9
ENDMDL
