MODEL 1
REMARK VINA RESULT:      -8.6      0.000      0.000
REMARK  Name = 
REMARK  5 active torsions:
REMARK  status: ('A' for Active; 'I' for Inactive)
REMARK    1  A    between atoms: N_2  and  C_4
REMARK    2  A    between atoms: C_7  and  C_10
REMARK    3  A    between atoms: N_15  and  C_16
REMARK    4  A    between atoms: C_20  and  N_24
REMARK    5  A    between atoms: C_25  and  C_27
REMARK                            x       y       z     vdW  Elec       q    Type
REMARK                         _______ _______ _______ _____ _____    ______ ____
ROOT
ATOM     16  C   UNL     1      -0.420   1.366  24.512  0.00  0.00    +0.154 C 
ATOM     17  C   UNL     1       0.063   1.921  24.885  0.00  0.00    +0.166 C 
ATOM     18  O   UNL     1       0.829   1.828  24.593  0.00  0.00    -0.350 OA
ATOM     19  C   UNL     1       0.820   1.217  24.040  0.00  0.00    +0.166 C 
ATOM     20  C   UNL     1       1.287   0.781  23.518  0.00  0.00    +0.155 C 
ATOM     21  C   UNL     1       0.804   0.227  23.145  0.00  0.00    +0.166 C 
ATOM     22  O   UNL     1       0.038   0.319  23.436  0.00  0.00    -0.350 OA
ATOM     23  C   UNL     1       0.048   0.931  23.990  0.00  0.00    +0.166 C 
ENDROOT
BRANCH  16  15
ATOM     10  C   UNL     1      -3.031   2.478  24.856  0.00  0.00    +0.086 A 
ATOM     11  C   UNL     1      -2.718   3.237  24.774  0.00  0.00    +0.040 A 
ATOM     12  C   UNL     1      -1.909   3.338  24.647  0.00  0.00    +0.103 A 
ATOM     13  N   UNL     1      -1.412   2.681  24.602  0.00  0.00    -0.211 NA
ATOM     14  C   UNL     1      -1.726   1.922  24.684  0.00  0.00    +0.237 A 
ATOM     15  N   UNL     1      -1.229   1.264  24.639  0.00  0.00    -0.200 NA
ATOM     33  N   UNL     1      -2.534   1.820  24.810  0.00  0.00    -0.212 NA
BRANCH  10   7
ATOM      4  C   UNL     1      -5.457   2.173  25.236  0.00  0.00    +0.048 A 
ATOM      5  C   UNL     1      -5.087   2.872  25.471  0.00  0.00    +0.015 A 
ATOM      6  C   UNL     1      -4.279   2.974  25.344  0.00  0.00    +0.003 A 
ATOM      7  C   UNL     1      -3.839   2.376  24.982  0.00  0.00    +0.018 A 
ATOM      8  C   UNL     1      -4.209   1.677  24.747  0.00  0.00    +0.003 A 
ATOM      9  C   UNL     1      -5.018   1.576  24.874  0.00  0.00    +0.015 A 
BRANCH   4   2
ATOM      1  C   UNL     1      -6.568   2.091  26.129  0.00  0.00    +0.112 C 
ATOM      2  N   UNL     1      -6.266   2.072  25.362  0.00  0.00    -0.304 N 
ATOM      3  C   UNL     1      -6.772   1.951  24.722  0.00  0.00    +0.112 C 
ENDBRANCH   4   2
ENDBRANCH  10   7
ENDBRANCH  16  15
BRANCH  20  24
ATOM     24  N   UNL     1       2.096   0.883  23.391  0.00  0.00    -0.198 NA
ATOM     25  C   UNL     1       2.551   0.256  23.110  0.00  0.00    +0.265 C 
ATOM     26  O   UNL     1       2.199  -0.474  22.955  0.00  0.00    -0.268 OA
BRANCH  25  27
ATOM     27  C   UNL     1       3.361   0.357  22.983  0.00  0.00    +0.055 A 
ATOM     28  C   UNL     1       3.902  -0.147  23.348  0.00  0.00    +0.005 A 
ATOM     29  C   UNL     1       4.711  -0.046  23.222  0.00  0.00    +0.000 A 
ATOM     30  C   UNL     1       4.978   0.561  22.730  0.00  0.00    +0.000 A 
ATOM     31  C   UNL     1       4.437   1.064  22.365  0.00  0.00    +0.000 A 
ATOM     32  C   UNL     1       3.628   0.963  22.491  0.00  0.00    +0.005 A 
ENDBRANCH  25  27
ENDBRANCH  20  24
TORSDOF 5
ENDMDL
MODEL 2
REMARK VINA RESULT:      -8.1      1.288      7.474
REMARK  Name = 
REMARK  5 active torsions:
REMARK  status: ('A' for Active; 'I' for Inactive)
REMARK    1  A    between atoms: N_2  and  C_4
REMARK    2  A    between atoms: C_7  and  C_10
REMARK    3  A    between atoms: N_15  and  C_16
REMARK    4  A    between atoms: C_20  and  N_24
REMARK    5  A    between atoms: C_25  and  C_27
REMARK                            x       y       z     vdW  Elec       q    Type
REMARK                         _______ _______ _______ _____ _____    ______ ____
ROOT
ATOM     16  C   UNL     1      -0.448   0.860  24.183  0.00  0.00    +0.154 C 
ATOM     17  C   UNL     1      -0.922   0.213  23.988  0.00  0.00    +0.166 C 
ATOM     18  O   UNL     1      -1.710   0.453  24.031  0.00  0.00    -0.350 OA
ATOM     19  C   UNL     1      -1.724   1.247  24.252  0.00  0.00    +0.166 C 
ATOM     20  C   UNL     1      -2.219   1.887  24.415  0.00  0.00    +0.155 C 
ATOM     21  C   UNL     1      -1.745   2.533  24.609  0.00  0.00    +0.166 C 
ATOM     22  O   UNL     1      -0.957   2.294  24.567  0.00  0.00    -0.350 OA
ATOM     23  C   UNL     1      -0.944   1.498  24.346  0.00  0.00    +0.166 C 
ENDROOT
BRANCH  16  15
ATOM     10  C   UNL     1       2.072   0.163  23.028  0.00  0.00    +0.086 A 
ATOM     11  C   UNL     1       1.683  -0.198  22.397  0.00  0.00    +0.040 A 
ATOM     12  C   UNL     1       0.858  -0.205  22.370  0.00  0.00    +0.103 A 
ATOM     13  N   UNL     1       0.422   0.150  22.974  0.00  0.00    -0.211 NA
ATOM     14  C   UNL     1       0.812   0.512  23.606  0.00  0.00    +0.237 A 
ATOM     15  N   UNL     1       0.377   0.866  24.210  0.00  0.00    -0.200 NA
ATOM     33  N   UNL     1       1.636   0.518  23.632  0.00  0.00    -0.212 NA
BRANCH  10   7
ATOM      4  C   UNL     1       4.546   0.181  23.109  0.00  0.00    +0.048 A 
ATOM      5  C   UNL     1       4.137   0.830  22.803  0.00  0.00    +0.015 A 
ATOM      6  C   UNL     1       3.313   0.824  22.776  0.00  0.00    +0.003 A 
ATOM      7  C   UNL     1       2.896   0.169  23.055  0.00  0.00    +0.018 A 
ATOM      8  C   UNL     1       3.303  -0.479  23.361  0.00  0.00    +0.003 A 
ATOM      9  C   UNL     1       4.128  -0.473  23.388  0.00  0.00    +0.015 A 
BRANCH   4   2
ATOM      1  C   UNL     1       5.804  -0.172  22.534  0.00  0.00    +0.112 C 
ATOM      2  N   UNL     1       5.370   0.188  23.135  0.00  0.00    -0.304 N 
ATOM      3  C   UNL     1       5.760   0.554  23.763  0.00  0.00    +0.112 C 
ENDBRANCH   4   2
ENDBRANCH  10   7
ENDBRANCH  16  15
BRANCH  20  24
ATOM     24  N   UNL     1      -3.043   1.880  24.388  0.00  0.00    -0.198 NA
ATOM     25  C   UNL     1      -3.479   2.223  24.999  0.00  0.00    +0.265 C 
ATOM     26  O   UNL     1      -3.090   2.573  25.637  0.00  0.00    -0.268 OA
BRANCH  25  27
ATOM     27  C   UNL     1      -4.304   2.217  24.972  0.00  0.00    +0.055 A 
ATOM     28  C   UNL     1      -4.709   1.501  24.901  0.00  0.00    +0.005 A 
ATOM     29  C   UNL     1      -5.533   1.494  24.874  0.00  0.00    +0.000 A 
ATOM     30  C   UNL     1      -5.953   2.204  24.918  0.00  0.00    +0.000 A 
ATOM     31  C   UNL     1      -5.548   2.918  24.988  0.00  0.00    +0.000 A 
ATOM     32  C   UNL     1      -4.723   2.926  25.015  0.00  0.00    +0.005 A 
ENDBRANCH  25  27
ENDBRANCH  20  24
TORSDOF 5
ENDMDL
MODEL 3
REMARK VINA RESULT:      -7.3     15.409     16.285
REMARK  Name = 
REMARK  5 active torsions:
REMARK  status: ('A' for Active; 'I' for Inactive)
REMARK    1  A    between atoms: N_2  and  C_4
REMARK    2  A    between atoms: C_7  and  C_10
REMARK    3  A    between atoms: N_15  and  C_16
REMARK    4  A    between atoms: C_20  and  N_24
REMARK    5  A    between atoms: C_25  and  C_27
REMARK                            x       y       z     vdW  Elec       q    Type
REMARK                         _______ _______ _______ _____ _____    ______ ____
ROOT
ATOM     16  C   UNL     1      -6.473 -10.263  14.112  0.00  0.00    +0.154 C 
ATOM     17  C   UNL     1      -5.695 -10.490  14.265  0.00  0.00    +0.166 C 
ATOM     18  O   UNL     1      -5.252 -10.354  13.583  0.00  0.00    -0.350 OA
ATOM     19  C   UNL     1      -5.754 -10.043  13.009  0.00  0.00    +0.166 C 
ATOM     20  C   UNL     1      -5.793  -9.766  12.232  0.00  0.00    +0.155 C 
ATOM     21  C   UNL     1      -6.570  -9.539  12.079  0.00  0.00    +0.166 C 
ATOM     22  O   UNL     1      -7.014  -9.675  12.761  0.00  0.00    -0.350 OA
ATOM     23  C   UNL     1      -6.510  -9.987  13.336  0.00  0.00    +0.166 C 
ENDROOT
BRANCH  16  15
ATOM     10  C   UNL     1      -7.504  -9.960  16.760  0.00  0.00    +0.086 A 
ATOM     11  C   UNL     1      -6.758  -9.724  17.024  0.00  0.00    +0.040 A 
ATOM     12  C   UNL     1      -6.127  -9.683  16.493  0.00  0.00    +0.103 A 
ATOM     13  N   UNL     1      -6.242  -9.876  15.699  0.00  0.00    -0.211 NA
ATOM     14  C   UNL     1      -6.989 -10.111  15.436  0.00  0.00    +0.237 A 
ATOM     15  N   UNL     1      -7.104 -10.305  14.642  0.00  0.00    -0.200 NA
ATOM     33  N   UNL     1      -7.619 -10.153  15.967  0.00  0.00    -0.212 NA
BRANCH  10   7
ATOM      4  C   UNL     1      -9.395 -10.085  18.353  0.00  0.00    +0.048 A 
ATOM      5  C   UNL     1      -9.380  -9.497  17.774  0.00  0.00    +0.015 A 
ATOM      6  C   UNL     1      -8.750  -9.455  17.244  0.00  0.00    +0.003 A 
ATOM      7  C   UNL     1      -8.134 -10.001  17.291  0.00  0.00    +0.018 A 
ATOM      8  C   UNL     1      -8.147 -10.589  17.869  0.00  0.00    +0.003 A 
ATOM      9  C   UNL     1      -8.778 -10.631  18.400  0.00  0.00    +0.015 A 
BRANCH   4   2
ATOM      1  C   UNL     1      -9.960 -10.588  19.564  0.00  0.00    +0.112 C 
ATOM      2  N   UNL     1     -10.024 -10.127  18.883  0.00  0.00    -0.304 N 
ATOM      3  C   UNL     1     -10.719  -9.708  18.733  0.00  0.00    +0.112 C 
ENDBRANCH   4   2
ENDBRANCH  10   7
ENDBRANCH  16  15
BRANCH  20  24
ATOM     24  N   UNL     1      -5.162  -9.725  11.702  0.00  0.00    -0.198 NA
ATOM     25  C   UNL     1      -5.116  -9.101  11.163  0.00  0.00    +0.265 C 
ATOM     26  O   UNL     1      -5.701  -8.520  11.155  0.00  0.00    -0.268 OA
BRANCH  25  27
ATOM     27  C   UNL     1      -4.486  -9.060  10.632  0.00  0.00    +0.055 A 
ATOM     28  C   UNL     1      -3.715  -9.192  10.896  0.00  0.00    +0.005 A 
ATOM     29  C   UNL     1      -3.084  -9.150  10.366  0.00  0.00    +0.000 A 
ATOM     30  C   UNL     1      -3.225  -8.976   9.571  0.00  0.00    +0.000 A 
ATOM     31  C   UNL     1      -3.995  -8.844   9.309  0.00  0.00    +0.000 A 
ATOM     32  C   UNL     1      -4.626  -8.886   9.838  0.00  0.00    +0.005 A 
ENDBRANCH  25  27
ENDBRANCH  20  24
TORSDOF 5
ENDMDL
MODEL 4
REMARK VINA RESULT:      -7.3     15.471     16.488
REMARK  Name = 
REMARK  5 active torsions:
REMARK  status: ('A' for Active; 'I' for Inactive)
REMARK    1  A    between atoms: N_2  and  C_4
REMARK    2  A    between atoms: C_7  and  C_10
REMARK    3  A    between atoms: N_15  and  C_16
REMARK    4  A    between atoms: C_20  and  N_24
REMARK    5  A    between atoms: C_25  and  C_27
REMARK                            x       y       z     vdW  Elec       q    Type
REMARK                         _______ _______ _______ _____ _____    ______ ____
ROOT
ATOM     16  C   UNL     1      -5.488 -10.431  13.845  0.00  0.00    +0.154 C 
ATOM     17  C   UNL     1      -4.788 -10.781  13.585  0.00  0.00    +0.166 C 
ATOM     18  O   UNL     1      -4.689 -10.591  12.789  0.00  0.00    -0.350 OA
ATOM     19  C   UNL     1      -5.328 -10.124  12.556  0.00  0.00    +0.166 C 
ATOM     20  C   UNL     1      -5.662  -9.718  11.921  0.00  0.00    +0.155 C 
ATOM     21  C   UNL     1      -6.362  -9.368  12.181  0.00  0.00    +0.166 C 
ATOM     22  O   UNL     1      -6.461  -9.557  12.978  0.00  0.00    -0.350 OA
ATOM     23  C   UNL     1      -5.821 -10.025  13.210  0.00  0.00    +0.166 C 
ENDROOT
BRANCH  16  15
ATOM     10  C   UNL     1      -5.101 -10.557  16.675  0.00  0.00    +0.086 A 
ATOM     11  C   UNL     1      -4.284 -10.525  16.564  0.00  0.00    +0.040 A 
ATOM     12  C   UNL     1      -3.972 -10.477  15.801  0.00  0.00    +0.103 A 
ATOM     13  N   UNL     1      -4.477 -10.462  15.149  0.00  0.00    -0.211 NA
ATOM     14  C   UNL     1      -5.295 -10.494  15.260  0.00  0.00    +0.237 A 
ATOM     15  N   UNL     1      -5.800 -10.479  14.608  0.00  0.00    -0.200 NA
ATOM     33  N   UNL     1      -5.606 -10.542  16.022  0.00  0.00    -0.212 NA
BRANCH  10   7
ATOM      4  C   UNL     1      -6.034 -10.700  18.962  0.00  0.00    +0.048 A 
ATOM      5  C   UNL     1      -6.537 -10.591  18.317  0.00  0.00    +0.015 A 
ATOM      6  C   UNL     1      -6.226 -10.543  17.555  0.00  0.00    +0.003 A 
ATOM      7  C   UNL     1      -5.412 -10.605  17.437  0.00  0.00    +0.018 A 
ATOM      8  C   UNL     1      -4.909 -10.714  18.081  0.00  0.00    +0.003 A 
ATOM      9  C   UNL     1      -5.220 -10.762  18.844  0.00  0.00    +0.015 A 
BRANCH   4   2
ATOM      1  C   UNL     1      -5.840 -10.766  20.376  0.00  0.00    +0.112 C 
ATOM      2  N   UNL     1      -6.345 -10.748  19.724  0.00  0.00    -0.304 N 
ATOM      3  C   UNL     1      -7.162 -10.778  19.836  0.00  0.00    +0.112 C 
ENDBRANCH   4   2
ENDBRANCH  10   7
ENDBRANCH  16  15
BRANCH  20  24
ATOM     24  N   UNL     1      -5.351  -9.670  11.158  0.00  0.00    -0.198 NA
ATOM     25  C   UNL     1      -5.370  -8.954  10.749  0.00  0.00    +0.265 C 
ATOM     26  O   UNL     1      -5.701  -8.286  11.101  0.00  0.00    -0.268 OA
BRANCH  25  27
ATOM     27  C   UNL     1      -5.058  -8.906   9.986  0.00  0.00    +0.055 A 
ATOM     28  C   UNL     1      -4.241  -8.901   9.874  0.00  0.00    +0.005 A 
ATOM     29  C   UNL     1      -3.929  -8.853   9.112  0.00  0.00    +0.000 A 
ATOM     30  C   UNL     1      -4.436  -8.811   8.461  0.00  0.00    +0.000 A 
ATOM     31  C   UNL     1      -5.252  -8.817   8.574  0.00  0.00    +0.000 A 
ATOM     32  C   UNL     1      -5.565  -8.865   9.336  0.00  0.00    +0.005 A 
ENDBRANCH  25  27
ENDBRANCH  20  24
TORSDOF 5
ENDMDL
MODEL 5
REMARK VINA RESULT:      -6.7     15.830     17.755
REMARK  Name = 
REMARK  5 active torsions:
REMARK  status: ('A' for Active; 'I' for Inactive)
REMARK    1  A    between atoms: N_2  and  C_4
REMARK    2  A    between atoms: C_7  and  C_10
REMARK    3  A    between atoms: N_15  and  C_16
REMARK    4  A    between atoms: C_20  and  N_24
REMARK    5  A    between atoms: C_25  and  C_27
REMARK                            x       y       z     vdW  Elec       q    Type
REMARK                         _______ _______ _______ _____ _____    ______ ____
ROOT
ATOM     16  C   UNL     1      -7.387 -10.389  14.395  0.00  0.00    +0.154 C 
ATOM     17  C   UNL     1      -8.098 -10.781  14.249  0.00  0.00    +0.166 C 
ATOM     18  O   UNL     1      -8.546 -10.761  14.941  0.00  0.00    -0.350 OA
ATOM     19  C   UNL     1      -8.113 -10.357  15.514  0.00  0.00    +0.166 C 
ATOM     20  C   UNL     1      -8.122 -10.095  16.297  0.00  0.00    +0.155 C 
ATOM     21  C   UNL     1      -7.411  -9.703  16.443  0.00  0.00    +0.166 C 
ATOM     22  O   UNL     1      -6.963  -9.723  15.751  0.00  0.00    -0.350 OA
ATOM     23  C   UNL     1      -7.396 -10.127  15.177  0.00  0.00    +0.166 C 
ENDROOT
BRANCH  16  15
ATOM     10  C   UNL     1      -6.483  -9.554  11.815  0.00  0.00    +0.086 A 
ATOM     11  C   UNL     1      -7.256  -9.357  11.608  0.00  0.00    +0.040 A 
ATOM     12  C   UNL     1      -7.870  -9.468  12.149  0.00  0.00    +0.103 A 
ATOM     13  N   UNL     1      -7.709  -9.775  12.898  0.00  0.00    -0.211 NA
ATOM     14  C   UNL     1      -6.934  -9.972  13.105  0.00  0.00    +0.237 A 
ATOM     15  N   UNL     1      -6.774 -10.279  13.854  0.00  0.00    -0.200 NA
ATOM     33  N   UNL     1      -6.322  -9.861  12.564  0.00  0.00    -0.212 NA
BRANCH  10   7
ATOM      4  C   UNL     1      -4.644  -9.222  10.192  0.00  0.00    +0.048 A 
ATOM      5  C   UNL     1      -5.091  -9.916  10.174  0.00  0.00    +0.015 A 
ATOM      6  C   UNL     1      -5.703 -10.027  10.715  0.00  0.00    +0.003 A 
ATOM      7  C   UNL     1      -5.870  -9.444  11.275  0.00  0.00    +0.018 A 
ATOM      8  C   UNL     1      -5.424  -8.750  11.293  0.00  0.00    +0.003 A 
ATOM      9  C   UNL     1      -4.811  -8.639  10.751  0.00  0.00    +0.015 A 
BRANCH   4   2
ATOM      1  C   UNL     1      -4.204  -8.980   8.855  0.00  0.00    +0.112 C 
ATOM      2  N   UNL     1      -4.032  -9.112   9.651  0.00  0.00    -0.304 N 
ATOM      3  C   UNL     1      -3.247  -9.133   9.905  0.00  0.00    +0.112 C 
ENDBRANCH   4   2
ENDBRANCH  10   7
ENDBRANCH  16  15
BRANCH  20  24
ATOM     24  N   UNL     1      -8.735 -10.205  16.838  0.00  0.00    -0.198 NA
ATOM     25  C   UNL     1      -8.806  -9.703  17.488  0.00  0.00    +0.265 C 
ATOM     26  O   UNL     1      -8.265  -9.090  17.598  0.00  0.00    -0.268 OA
BRANCH  25  27
ATOM     27  C   UNL     1      -9.420  -9.813  18.030  0.00  0.00    +0.055 A 
ATOM     28  C   UNL     1     -10.095  -9.340  17.991  0.00  0.00    +0.005 A 
ATOM     29  C   UNL     1     -10.708  -9.450  18.531  0.00  0.00    +0.000 A 
ATOM     30  C   UNL     1     -10.645 -10.034  19.112  0.00  0.00    +0.000 A 
ATOM     31  C   UNL     1      -9.970 -10.506  19.150  0.00  0.00    +0.000 A 
ATOM     32  C   UNL     1      -9.357 -10.396  18.610  0.00  0.00    +0.005 A 
ENDBRANCH  25  27
ENDBRANCH  20  24
TORSDOF 5
ENDMDL
MODEL 6
REMARK VINA RESULT:      -6.3     15.628     17.073
REMARK  Name = 
REMARK  5 active torsions:
REMARK  status: ('A' for Active; 'I' for Inactive)
REMARK    1  A    between atoms: N_2  and  C_4
REMARK    2  A    between atoms: C_7  and  C_10
REMARK    3  A    between atoms: N_15  and  C_16
REMARK    4  A    between atoms: C_20  and  N_24
REMARK    5  A    between atoms: C_25  and  C_27
REMARK                            x       y       z     vdW  Elec       q    Type
REMARK                         _______ _______ _______ _____ _____    ______ ____
ROOT
ATOM     16  C   UNL     1      -5.801 -10.603  14.453  0.00  0.00    +0.154 C 
ATOM     17  C   UNL     1      -6.599 -10.717  14.627  0.00  0.00    +0.166 C 
ATOM     18  O   UNL     1      -6.674 -10.778  15.446  0.00  0.00    -0.350 OA
ATOM     19  C   UNL     1      -5.924 -10.702  15.778  0.00  0.00    +0.166 C 
ATOM     20  C   UNL     1      -5.505 -10.692  16.489  0.00  0.00    +0.155 C 
ATOM     21  C   UNL     1      -4.707 -10.578  16.315  0.00  0.00    +0.166 C 
ATOM     22  O   UNL     1      -4.632 -10.517  15.496  0.00  0.00    -0.350 OA
ATOM     23  C   UNL     1      -5.384 -10.594  15.164  0.00  0.00    +0.166 C 
ENDROOT
BRANCH  16  15
ATOM     10  C   UNL     1      -5.957  -9.551  11.800  0.00  0.00    +0.086 A 
ATOM     11  C   UNL     1      -6.682  -9.202  11.981  0.00  0.00    +0.040 A 
ATOM     12  C   UNL     1      -7.006  -9.291  12.735  0.00  0.00    +0.103 A 
ATOM     13  N   UNL     1      -6.605  -9.728  13.308  0.00  0.00    -0.211 NA
ATOM     14  C   UNL     1      -5.879 -10.077  13.126  0.00  0.00    +0.237 A 
ATOM     15  N   UNL     1      -5.477 -10.514  13.699  0.00  0.00    -0.200 NA
ATOM     33  N   UNL     1      -5.555  -9.988  12.373  0.00  0.00    -0.212 NA
BRANCH  10   7
ATOM      4  C   UNL     1      -4.986  -9.283   9.539  0.00  0.00    +0.048 A 
ATOM      5  C   UNL     1      -5.609  -9.811   9.661  0.00  0.00    +0.015 A 
ATOM      6  C   UNL     1      -5.932  -9.900  10.415  0.00  0.00    +0.003 A 
ATOM      7  C   UNL     1      -5.634  -9.462  11.047  0.00  0.00    +0.018 A 
ATOM      8  C   UNL     1      -5.011  -8.934  10.925  0.00  0.00    +0.003 A 
ATOM      9  C   UNL     1      -4.688  -8.845  10.171  0.00  0.00    +0.015 A 
BRANCH   4   2
ATOM      1  C   UNL     1      -4.050  -8.657   8.661  0.00  0.00    +0.112 C 
ATOM      2  N   UNL     1      -4.663  -9.194   8.786  0.00  0.00    -0.304 N 
ATOM      3  C   UNL     1      -4.952  -9.643   8.156  0.00  0.00    +0.112 C 
ENDBRANCH   4   2
ENDBRANCH  10   7
ENDBRANCH  16  15
BRANCH  20  24
ATOM     24  N   UNL     1      -5.829 -10.781  17.243  0.00  0.00    -0.198 NA
ATOM     25  C   UNL     1      -5.632 -10.249  17.842  0.00  0.00    +0.265 C 
ATOM     26  O   UNL     1      -5.111  -9.628  17.688  0.00  0.00    -0.268 OA
BRANCH  25  27
ATOM     27  C   UNL     1      -5.955 -10.338  18.596  0.00  0.00    +0.055 A 
ATOM     28  C   UNL     1      -6.743 -10.135  18.733  0.00  0.00    +0.005 A 
ATOM     29  C   UNL     1      -7.068 -10.224  19.486  0.00  0.00    +0.000 A 
ATOM     30  C   UNL     1      -6.602 -10.516  20.103  0.00  0.00    +0.000 A 
ATOM     31  C   UNL     1      -5.815 -10.718  19.966  0.00  0.00    +0.000 A 
ATOM     32  C   UNL     1      -5.491 -10.629  19.212  0.00  0.00    +0.005 A 
ENDBRANCH  25  27
ENDBRANCH  20  24
TORSDOF 5
ENDMDL
MODEL 7
REMARK VINA RESULT:      -5.9     16.727     17.566
REMARK  Name = 
REMARK  5 active torsions:
REMARK  status: ('A' for Active; 'I' for Inactive)
REMARK    1  A    between atoms: N_2  and  C_4
REMARK    2  A    between atoms: C_7  and  C_10
REMARK    3  A    between atoms: N_15  and  C_16
REMARK    4  A    between atoms: C_20  and  N_24
REMARK    5  A    between atoms: C_25  and  C_27
REMARK                            x       y       z     vdW  Elec       q    Type
REMARK                         _______ _______ _______ _____ _____    ______ ____
ROOT
ATOM     16  C   UNL     1      -5.543 -10.768  12.822  0.00  0.00    +0.154 C 
ATOM     17  C   UNL     1      -5.822 -10.764  13.598  0.00  0.00    +0.166 C 
ATOM     18  O   UNL     1      -5.169 -10.750  14.103  0.00  0.00    -0.350 OA
ATOM     19  C   UNL     1      -4.488 -10.747  13.640  0.00  0.00    +0.166 C 
ATOM     20  C   UNL     1      -3.663 -10.737  13.664  0.00  0.00    +0.155 C 
ATOM     21  C   UNL     1      -3.384 -10.742  12.888  0.00  0.00    +0.166 C 
ATOM     22  O   UNL     1      -4.036 -10.755  12.383  0.00  0.00    -0.350 OA
ATOM     23  C   UNL     1      -4.719 -10.758  12.848  0.00  0.00    +0.166 C 
ENDROOT
BRANCH  16  15
ATOM     10  C   UNL     1      -7.679  -9.687  11.261  0.00  0.00    +0.086 A 
ATOM     11  C   UNL     1      -7.819  -9.121  11.845  0.00  0.00    +0.040 A 
ATOM     12  C   UNL     1      -7.355  -9.109  12.527  0.00  0.00    +0.103 A 
ATOM     13  N   UNL     1      -6.751  -9.662  12.626  0.00  0.00    -0.211 NA
ATOM     14  C   UNL     1      -6.611 -10.228  12.041  0.00  0.00    +0.237 A 
ATOM     15  N   UNL     1      -6.007 -10.781  12.140  0.00  0.00    -0.200 NA
ATOM     33  N   UNL     1      -7.075 -10.240  11.360  0.00  0.00    -0.212 NA
BRANCH  10   7
ATOM      4  C   UNL     1      -9.072  -9.724   9.215  0.00  0.00    +0.048 A 
ATOM      5  C   UNL     1      -9.324 -10.121   9.894  0.00  0.00    +0.015 A 
ATOM      6  C   UNL     1      -8.860 -10.109  10.575  0.00  0.00    +0.003 A 
ATOM      7  C   UNL     1      -8.143  -9.700  10.580  0.00  0.00    +0.018 A 
ATOM      8  C   UNL     1      -7.891  -9.303   9.902  0.00  0.00    +0.003 A 
ATOM      9  C   UNL     1      -8.355  -9.315   9.220  0.00  0.00    +0.015 A 
BRANCH   4   2
ATOM      1  C   UNL     1      -9.647 -10.444   8.124  0.00  0.00    +0.112 C 
ATOM      2  N   UNL     1      -9.536  -9.737   8.534  0.00  0.00    -0.304 N 
ATOM      3  C   UNL     1      -9.889  -9.043   8.262  0.00  0.00    +0.112 C 
ENDBRANCH   4   2
ENDBRANCH  10   7
ENDBRANCH  16  15
BRANCH  20  24
ATOM     24  N   UNL     1      -3.199 -10.724  14.346  0.00  0.00    -0.198 NA
ATOM     25  C   UNL     1      -2.407 -10.497  14.302  0.00  0.00    +0.265 C 
ATOM     26  O   UNL     1      -2.079 -10.282  13.576  0.00  0.00    -0.268 OA
BRANCH  25  27
ATOM     27  C   UNL     1      -1.943 -10.484  14.984  0.00  0.00    +0.055 A 
ATOM     28  C   UNL     1      -2.252 -10.757  15.699  0.00  0.00    +0.005 A 
ATOM     29  C   UNL     1      -1.789 -10.744  16.381  0.00  0.00    +0.000 A 
ATOM     30  C   UNL     1      -1.014 -10.458  16.348  0.00  0.00    +0.000 A 
ATOM     31  C   UNL     1      -0.706 -10.186  15.634  0.00  0.00    +0.000 A 
ATOM     32  C   UNL     1      -1.170 -10.198  14.951  0.00  0.00    +0.005 A 
ENDBRANCH  25  27
ENDBRANCH  20  24
TORSDOF 5
ENDMDL
