MODEL 1
REMARK VINA RESULT:     -12.8      0.000      0.000
REMARK  Name = 
REMARK  6 active torsions:
REMARK  status: ('A' for Active; 'I' for Inactive)
REMARK    1  A    between atoms: C_2  and  C_3
REMARK    2  A    between atoms: C_3  and  C_4
REMARK    3  A    between atoms: C_9  and  C_10
REMARK    4  A    between atoms: C_10  and  C_11
REMARK    5  A    between atoms: C_14  and  C_16
REMARK    6  A    between atoms: N_25  and  C_28
REMARK                            x       y       z     vdW  Elec       q    Type
REMARK                         _______ _______ _______ _____ _____    ______ ____
ROOT
ATOM      4  C   UNL     1      -5.110   1.948  25.221  0.00  0.00    +0.012 C 
ATOM      5  C   UNL     1      -5.693   1.616  25.703  0.00  0.00    +0.019 C 
ATOM      6  C   UNL     1      -6.178   2.103  26.159  0.00  0.00    +0.089 C 
ATOM      7  N   UNL     1      -6.081   2.922  26.133  0.00  0.00    -0.218 NA
ATOM      8  C   UNL     1      -5.499   3.254  25.652  0.00  0.00    +0.089 C 
ATOM      9  C   UNL     1      -5.014   2.766  25.196  0.00  0.00    +0.024 C 
ENDROOT
BRANCH   4   3
ATOM      3  C   UNL     1      -4.625   1.461  24.766  0.00  0.00    +0.085 C 
BRANCH   3   2
ATOM      1  O   UNL     1      -5.537   0.362  24.710  0.00  0.00    -0.275 OA
ATOM      2  C   UNL     1      -4.764   0.648  24.739  0.00  0.00    +0.226 C 
ATOM     22  N   UNL     1      -4.130   0.121  24.740  0.00  0.00    -0.276 N 
ATOM     23  C   UNL     1      -4.268  -0.692  24.713  0.00  0.00    +0.115 C 
ATOM     24  C   UNL     1      -3.634  -1.219  24.715  0.00  0.00    +0.112 C 
ATOM     25  N   UNL     1      -2.860  -0.933  24.744  0.00  0.00    -0.304 N 
ATOM     26  C   UNL     1      -2.721  -0.121  24.771  0.00  0.00    +0.112 C 
ATOM     27  C   UNL     1      -3.356   0.407  24.769  0.00  0.00    +0.115 C 
BRANCH  25  28
ATOM     28  C   UNL     1      -2.225  -1.461  24.745  0.00  0.00    +0.048 A 
ATOM     29  C   UNL     1      -1.510  -1.243  25.094  0.00  0.00    +0.015 A 
ATOM     30  C   UNL     1      -0.875  -1.771  25.096  0.00  0.00    +0.001 A 
ATOM     31  C   UNL     1      -0.956  -2.515  24.749  0.00  0.00    +0.000 A 
ATOM     32  C   UNL     1      -1.671  -2.731  24.400  0.00  0.00    +0.001 A 
ATOM     33  C   UNL     1      -2.306  -2.205  24.398  0.00  0.00    +0.015 A 
ENDBRANCH  25  28
ENDBRANCH   3   2
ENDBRANCH   4   3
BRANCH   9  10
ATOM     10  C   UNL     1      -4.432   3.099  24.715  0.00  0.00    +0.051 C 
BRANCH  10  11
ATOM     11  C   UNL     1      -3.819   3.537  25.051  0.00  0.00    +0.101 A 
ATOM     12  N   UNL     1      -3.843   3.928  25.777  0.00  0.00    -0.081 NA
ATOM     13  O   UNL     1      -3.113   4.293  25.894  0.00  0.00    -0.354 OA
ATOM     14  C   UNL     1      -2.637   4.127  25.241  0.00  0.00    +0.177 A 
ATOM     15  C   UNL     1      -3.073   3.660  24.720  0.00  0.00    +0.058 A 
BRANCH  14  16
ATOM     16  C   UNL     1      -1.861   4.385  25.129  0.00  0.00    +0.037 A 
ATOM     17  C   UNL     1      -1.245   3.836  25.099  0.00  0.00    +0.003 A 
ATOM     18  C   UNL     1      -0.469   4.094  24.987  0.00  0.00    +0.000 A 
ATOM     19  C   UNL     1      -0.309   4.899  24.905  0.00  0.00    +0.000 A 
ATOM     20  C   UNL     1      -0.925   5.447  24.936  0.00  0.00    +0.000 A 
ATOM     21  C   UNL     1      -1.702   5.190  25.048  0.00  0.00    +0.003 A 
ENDBRANCH  14  16
ENDBRANCH  10  11
ENDBRANCH   9  10
TORSDOF 6
ENDMDL
MODEL 2
REMARK VINA RESULT:     -12.7      1.489      3.790
REMARK  Name = 
REMARK  6 active torsions:
REMARK  status: ('A' for Active; 'I' for Inactive)
REMARK    1  A    between atoms: C_2  and  C_3
REMARK    2  A    between atoms: C_3  and  C_4
REMARK    3  A    between atoms: C_9  and  C_10
REMARK    4  A    between atoms: C_10  and  C_11
REMARK    5  A    between atoms: C_14  and  C_16
REMARK    6  A    between atoms: N_25  and  C_28
REMARK                            x       y       z     vdW  Elec       q    Type
REMARK                         _______ _______ _______ _____ _____    ______ ____
ROOT
ATOM      4  C   UNL     1      -1.010   3.609  25.223  0.00  0.00    +0.012 C 
ATOM      5  C   UNL     1      -0.491   3.993  24.708  0.00  0.00    +0.019 C 
ATOM      6  C   UNL     1      -0.601   4.790  24.530  0.00  0.00    +0.089 C 
ATOM      7  N   UNL     1      -1.230   5.205  24.866  0.00  0.00    -0.218 NA
ATOM      8  C   UNL     1      -1.749   4.823  25.380  0.00  0.00    +0.089 C 
ATOM      9  C   UNL     1      -1.639   4.024  25.559  0.00  0.00    +0.024 C 
ENDROOT
BRANCH   4   3
ATOM      3  C   UNL     1      -0.901   2.812  25.401  0.00  0.00    +0.085 C 
BRANCH   3   2
ATOM      1  O   UNL     1       0.093   2.659  24.386  0.00  0.00    -0.275 OA
ATOM      2  C   UNL     1      -0.473   2.328  24.887  0.00  0.00    +0.226 C 
ATOM     22  N   UNL     1      -0.611   1.516  24.873  0.00  0.00    -0.276 N 
ATOM     23  C   UNL     1      -0.183   1.032  24.359  0.00  0.00    +0.115 C 
ATOM     24  C   UNL     1      -0.321   0.220  24.346  0.00  0.00    +0.112 C 
ATOM     25  N   UNL     1      -0.887  -0.111  24.847  0.00  0.00    -0.304 N 
ATOM     26  C   UNL     1      -1.316   0.371  25.361  0.00  0.00    +0.112 C 
ATOM     27  C   UNL     1      -1.177   1.185  25.374  0.00  0.00    +0.115 C 
BRANCH  25  28
ATOM     28  C   UNL     1      -1.026  -0.925  24.834  0.00  0.00    +0.048 A 
ATOM     29  C   UNL     1      -1.723  -1.218  24.506  0.00  0.00    +0.015 A 
ATOM     30  C   UNL     1      -1.862  -2.032  24.492  0.00  0.00    +0.001 A 
ATOM     31  C   UNL     1      -1.303  -2.551  24.807  0.00  0.00    +0.000 A 
ATOM     32  C   UNL     1      -0.605  -2.256  25.135  0.00  0.00    +0.001 A 
ATOM     33  C   UNL     1      -0.467  -1.443  25.149  0.00  0.00    +0.015 A 
ENDBRANCH  25  28
ENDBRANCH   3   2
ENDBRANCH   4   3
BRANCH   9  10
ATOM     10  C   UNL     1      -2.159   3.642  26.073  0.00  0.00    +0.051 C 
BRANCH  10  11
ATOM     11  C   UNL     1      -2.971   3.667  25.933  0.00  0.00    +0.101 A 
ATOM     12  N   UNL     1      -3.450   4.338  25.976  0.00  0.00    -0.081 NA
ATOM     13  O   UNL     1      -4.222   4.111  25.796  0.00  0.00    -0.354 OA
ATOM     14  C   UNL     1      -4.221   3.301  25.642  0.00  0.00    +0.177 A 
ATOM     15  C   UNL     1      -3.448   3.026  25.727  0.00  0.00    +0.058 A 
BRANCH  14  16
ATOM     16  C   UNL     1      -4.879   2.845  25.438  0.00  0.00    +0.037 A 
ATOM     17  C   UNL     1      -4.881   2.417  24.734  0.00  0.00    +0.003 A 
ATOM     18  C   UNL     1      -5.538   1.961  24.530  0.00  0.00    +0.000 A 
ATOM     19  C   UNL     1      -6.192   1.934  25.031  0.00  0.00    +0.000 A 
ATOM     20  C   UNL     1      -6.190   2.363  25.737  0.00  0.00    +0.000 A 
ATOM     21  C   UNL     1      -5.532   2.819  25.940  0.00  0.00    +0.003 A 
ENDBRANCH  14  16
ENDBRANCH  10  11
ENDBRANCH   9  10
TORSDOF 6
ENDMDL
MODEL 3
REMARK VINA RESULT:     -12.5      1.605      3.587
REMARK  Name = 
REMARK  6 active torsions:
REMARK  status: ('A' for Active; 'I' for Inactive)
REMARK    1  A    between atoms: C_2  and  C_3
REMARK    2  A    between atoms: C_3  and  C_4
REMARK    3  A    between atoms: C_9  and  C_10
REMARK    4  A    between atoms: C_10  and  C_11
REMARK    5  A    between atoms: C_14  and  C_16
REMARK    6  A    between atoms: N_25  and  C_28
REMARK                            x       y       z     vdW  Elec       q    Type
REMARK                         _______ _______ _______ _____ _____    ______ ____
ROOT
ATOM      4  C   UNL     1      -0.712   2.173  25.016  0.00  0.00    +0.012 C 
ATOM      5  C   UNL     1      -0.128   2.052  25.586  0.00  0.00    +0.019 C 
ATOM      6  C   UNL     1       0.112   2.675  26.070  0.00  0.00    +0.089 C 
ATOM      7  N   UNL     1      -0.233   3.419  25.986  0.00  0.00    -0.218 NA
ATOM      8  C   UNL     1      -0.817   3.541  25.417  0.00  0.00    +0.089 C 
ATOM      9  C   UNL     1      -1.057   2.918  24.932  0.00  0.00    +0.024 C 
ENDROOT
BRANCH   4   3
ATOM      3  C   UNL     1      -0.952   1.550  24.532  0.00  0.00    +0.085 C 
BRANCH   3   2
ATOM      1  O   UNL     1       0.228   0.756  24.667  0.00  0.00    -0.275 OA
ATOM      2  C   UNL     1      -0.593   0.811  24.601  0.00  0.00    +0.226 C 
ATOM     22  N   UNL     1      -1.053   0.127  24.604  0.00  0.00    -0.276 N 
ATOM     23  C   UNL     1      -0.693  -0.613  24.673  0.00  0.00    +0.115 C 
ATOM     24  C   UNL     1      -1.153  -1.297  24.676  0.00  0.00    +0.112 C 
ATOM     25  N   UNL     1      -1.974  -1.242  24.611  0.00  0.00    -0.304 N 
ATOM     26  C   UNL     1      -2.334  -0.504  24.542  0.00  0.00    +0.112 C 
ATOM     27  C   UNL     1      -1.873   0.181  24.539  0.00  0.00    +0.115 C 
BRANCH  25  28
ATOM     28  C   UNL     1      -2.435  -1.927  24.614  0.00  0.00    +0.048 A 
ATOM     29  C   UNL     1      -3.175  -1.924  24.977  0.00  0.00    +0.015 A 
ATOM     30  C   UNL     1      -3.636  -2.609  24.981  0.00  0.00    +0.001 A 
ATOM     31  C   UNL     1      -3.356  -3.296  24.620  0.00  0.00    +0.000 A 
ATOM     32  C   UNL     1      -2.615  -3.298  24.257  0.00  0.00    +0.001 A 
ATOM     33  C   UNL     1      -2.155  -2.615  24.254  0.00  0.00    +0.015 A 
ENDBRANCH  25  28
ENDBRANCH   3   2
ENDBRANCH   4   3
BRANCH   9  10
ATOM     10  C   UNL     1      -1.642   3.040  24.363  0.00  0.00    +0.051 C 
BRANCH  10  11
ATOM     11  C   UNL     1      -2.382   3.328  24.587  0.00  0.00    +0.101 A 
ATOM     12  N   UNL     1      -2.570   4.117  24.735  0.00  0.00    -0.081 NA
ATOM     13  O   UNL     1      -3.368   4.155  24.941  0.00  0.00    -0.354 OA
ATOM     14  C   UNL     1      -3.673   3.388  24.920  0.00  0.00    +0.177 A 
ATOM     15  C   UNL     1      -3.064   2.877  24.701  0.00  0.00    +0.058 A 
BRANCH  14  16
ATOM     16  C   UNL     1      -4.451   3.171  25.089  0.00  0.00    +0.037 A 
ATOM     17  C   UNL     1      -4.755   2.464  24.793  0.00  0.00    +0.003 A 
ATOM     18  C   UNL     1      -5.533   2.247  24.962  0.00  0.00    +0.000 A 
ATOM     19  C   UNL     1      -6.007   2.738  25.426  0.00  0.00    +0.000 A 
ATOM     20  C   UNL     1      -5.702   3.446  25.721  0.00  0.00    +0.000 A 
ATOM     21  C   UNL     1      -4.924   3.663  25.552  0.00  0.00    +0.003 A 
ENDBRANCH  14  16
ENDBRANCH  10  11
ENDBRANCH   9  10
TORSDOF 6
ENDMDL
MODEL 4
REMARK VINA RESULT:     -12.4      2.010      6.073
REMARK  Name = 
REMARK  6 active torsions:
REMARK  status: ('A' for Active; 'I' for Inactive)
REMARK    1  A    between atoms: C_2  and  C_3
REMARK    2  A    between atoms: C_3  and  C_4
REMARK    3  A    between atoms: C_9  and  C_10
REMARK    4  A    between atoms: C_10  and  C_11
REMARK    5  A    between atoms: C_14  and  C_16
REMARK    6  A    between atoms: N_25  and  C_28
REMARK                            x       y       z     vdW  Elec       q    Type
REMARK                         _______ _______ _______ _____ _____    ______ ____
ROOT
ATOM      4  C   UNL     1      -0.294   0.653  24.323  0.00  0.00    +0.012 C 
ATOM      5  C   UNL     1       0.122   1.000  23.701  0.00  0.00    +0.019 C 
ATOM      6  C   UNL     1       0.584   0.534  23.202  0.00  0.00    +0.089 C 
ATOM      7  N   UNL     1       0.630  -0.280  23.324  0.00  0.00    -0.218 NA
ATOM      8  C   UNL     1       0.215  -0.629  23.946  0.00  0.00    +0.089 C 
ATOM      9  C   UNL     1      -0.248  -0.162  24.446  0.00  0.00    +0.024 C 
ENDROOT
BRANCH   4   3
ATOM      3  C   UNL     1      -0.756   1.119  24.822  0.00  0.00    +0.085 C 
BRANCH   3   2
ATOM      1  O   UNL     1      -0.346   2.369  24.266  0.00  0.00    -0.275 OA
ATOM      2  C   UNL     1      -0.926   1.900  24.618  0.00  0.00    +0.226 C 
ATOM     22  N   UNL     1      -1.675   2.212  24.766  0.00  0.00    -0.276 N 
ATOM     23  C   UNL     1      -1.845   2.993  24.562  0.00  0.00    +0.115 C 
ATOM     24  C   UNL     1      -2.593   3.305  24.710  0.00  0.00    +0.112 C 
ATOM     25  N   UNL     1      -3.173   2.836  25.062  0.00  0.00    -0.304 N 
ATOM     26  C   UNL     1      -3.005   2.055  25.267  0.00  0.00    +0.112 C 
ATOM     27  C   UNL     1      -2.255   1.743  25.118  0.00  0.00    +0.115 C 
BRANCH  25  28
ATOM     28  C   UNL     1      -3.923   3.148  25.211  0.00  0.00    +0.048 A 
ATOM     29  C   UNL     1      -4.593   2.772  24.910  0.00  0.00    +0.015 A 
ATOM     30  C   UNL     1      -5.342   3.084  25.059  0.00  0.00    +0.001 A 
ATOM     31  C   UNL     1      -5.422   3.772  25.507  0.00  0.00    +0.000 A 
ATOM     32  C   UNL     1      -4.751   4.148  25.807  0.00  0.00    +0.001 A 
ATOM     33  C   UNL     1      -4.002   3.836  25.659  0.00  0.00    +0.015 A 
ENDBRANCH  25  28
ENDBRANCH   3   2
ENDBRANCH   4   3
BRANCH   9  10
ATOM     10  C   UNL     1      -0.663  -0.510  25.067  0.00  0.00    +0.051 C 
BRANCH  10  11
ATOM     11  C   UNL     1      -1.145  -1.164  24.926  0.00  0.00    +0.101 A 
ATOM     12  N   UNL     1      -0.923  -1.955  24.998  0.00  0.00    -0.081 NA
ATOM     13  O   UNL     1      -1.575  -2.422  24.805  0.00  0.00    -0.354 OA
ATOM     14  C   UNL     1      -2.201  -1.919  24.614  0.00  0.00    +0.177 A 
ATOM     15  C   UNL     1      -1.936  -1.142  24.689  0.00  0.00    +0.058 A 
BRANCH  14  16
ATOM     16  C   UNL     1      -2.959  -2.153  24.387  0.00  0.00    +0.037 A 
ATOM     17  C   UNL     1      -3.171  -2.950  24.418  0.00  0.00    +0.003 A 
ATOM     18  C   UNL     1      -3.929  -3.184  24.191  0.00  0.00    +0.000 A 
ATOM     19  C   UNL     1      -4.475  -2.622  23.935  0.00  0.00    +0.000 A 
ATOM     20  C   UNL     1      -4.263  -1.824  23.905  0.00  0.00    +0.000 A 
ATOM     21  C   UNL     1      -3.504  -1.590  24.131  0.00  0.00    +0.003 A 
ENDBRANCH  14  16
ENDBRANCH  10  11
ENDBRANCH   9  10
TORSDOF 6
ENDMDL
MODEL 5
REMARK VINA RESULT:     -11.7      2.279      4.525
REMARK  Name = 
REMARK  6 active torsions:
REMARK  status: ('A' for Active; 'I' for Inactive)
REMARK    1  A    between atoms: C_2  and  C_3
REMARK    2  A    between atoms: C_3  and  C_4
REMARK    3  A    between atoms: C_9  and  C_10
REMARK    4  A    between atoms: C_10  and  C_11
REMARK    5  A    between atoms: C_14  and  C_16
REMARK    6  A    between atoms: N_25  and  C_28
REMARK                            x       y       z     vdW  Elec       q    Type
REMARK                         _______ _______ _______ _____ _____    ______ ____
ROOT
ATOM      4  C   UNL     1      -2.915   2.770  24.870  0.00  0.00    +0.012 C 
ATOM      5  C   UNL     1      -2.799   3.366  25.428  0.00  0.00    +0.019 C 
ATOM      6  C   UNL     1      -3.437   3.657  25.860  0.00  0.00    +0.089 C 
ATOM      7  N   UNL     1      -4.193   3.351  25.735  0.00  0.00    -0.218 NA
ATOM      8  C   UNL     1      -4.311   2.755  25.177  0.00  0.00    +0.089 C 
ATOM      9  C   UNL     1      -3.671   2.464  24.744  0.00  0.00    +0.024 C 
ENDROOT
BRANCH   4   3
ATOM      3  C   UNL     1      -2.276   2.479  24.437  0.00  0.00    +0.085 C 
BRANCH   3   2
ATOM      1  O   UNL     1      -1.359   3.166  25.290  0.00  0.00    -0.275 OA
ATOM      2  C   UNL     1      -1.505   2.606  24.702  0.00  0.00    +0.226 C 
ATOM     22  N   UNL     1      -0.881   2.175  24.380  0.00  0.00    -0.276 N 
ATOM     23  C   UNL     1      -0.110   2.302  24.645  0.00  0.00    +0.115 C 
ATOM     24  C   UNL     1       0.514   1.871  24.323  0.00  0.00    +0.112 C 
ATOM     25  N   UNL     1       0.368   1.311  23.735  0.00  0.00    -0.304 N 
ATOM     26  C   UNL     1      -0.402   1.183  23.469  0.00  0.00    +0.112 C 
ATOM     27  C   UNL     1      -1.027   1.615  23.792  0.00  0.00    +0.115 C 
BRANCH  25  28
ATOM     28  C   UNL     1       0.993   0.878  23.412  0.00  0.00    +0.048 A 
ATOM     29  C   UNL     1       1.760   1.180  23.440  0.00  0.00    +0.015 A 
ATOM     30  C   UNL     1       2.385   0.748  23.117  0.00  0.00    +0.001 A 
ATOM     31  C   UNL     1       2.242   0.015  22.766  0.00  0.00    +0.000 A 
ATOM     32  C   UNL     1       1.474  -0.286  22.739  0.00  0.00    +0.001 A 
ATOM     33  C   UNL     1       0.850   0.145  23.061  0.00  0.00    +0.015 A 
ENDBRANCH  25  28
ENDBRANCH   3   2
ENDBRANCH   4   3
BRANCH   9  10
ATOM     10  C   UNL     1      -3.788   1.868  24.187  0.00  0.00    +0.051 C 
BRANCH  10  11
ATOM     11  C   UNL     1      -4.075   1.132  24.423  0.00  0.00    +0.101 A 
ATOM     12  N   UNL     1      -4.770   0.995  24.846  0.00  0.00    -0.081 NA
ATOM     13  O   UNL     1      -4.843   0.182  24.962  0.00  0.00    -0.354 OA
ATOM     14  C   UNL     1      -4.192  -0.184  24.612  0.00  0.00    +0.177 A 
ATOM     15  C   UNL     1      -3.718   0.402  24.278  0.00  0.00    +0.058 A 
BRANCH  14  16
ATOM     16  C   UNL     1      -4.043  -0.996  24.597  0.00  0.00    +0.037 A 
ATOM     17  C   UNL     1      -3.654  -1.355  25.230  0.00  0.00    +0.003 A 
ATOM     18  C   UNL     1      -3.505  -2.167  25.215  0.00  0.00    +0.000 A 
ATOM     19  C   UNL     1      -3.744  -2.618  24.568  0.00  0.00    +0.000 A 
ATOM     20  C   UNL     1      -4.133  -2.259  23.935  0.00  0.00    +0.000 A 
ATOM     21  C   UNL     1      -4.282  -1.447  23.950  0.00  0.00    +0.003 A 
ENDBRANCH  14  16
ENDBRANCH  10  11
ENDBRANCH   9  10
TORSDOF 6
ENDMDL
