MODEL 1
REMARK VINA RESULT:     -12.1      0.000      0.000
REMARK  Name = 
REMARK  6 active torsions:
REMARK  status: ('A' for Active; 'I' for Inactive)
REMARK    1  A    between atoms: O_2  and  C_3
REMARK    2  A    between atoms: C_6  and  C_9
REMARK    3  A    between atoms: C_12  and  C_14
REMARK    4  A    between atoms: N_18  and  C_19
REMARK    5  A    between atoms: C_19  and  C_20
REMARK    6  A    between atoms: C_23  and  C_26
REMARK                            x       y       z     vdW  Elec       q    Type
REMARK                         _______ _______ _______ _____ _____    ______ ____
ROOT
ATOM     14  C   UNL     1      -4.772   1.707  24.934  0.00  0.00    +0.138 C 
ATOM     15  C   UNL     1      -5.482   1.835  25.335  0.00  0.00    +0.027 C 
ATOM     16  C   UNL     1      -5.803   1.100  25.526  0.00  0.00    +0.019 C 
ATOM     17  C   UNL     1      -5.292   0.517  25.244  0.00  0.00    +0.073 C 
ATOM     18  N   UNL     1      -4.655   0.892  24.878  0.00  0.00    -0.263 NA
ENDROOT
BRANCH  14  12
ATOM      9  C   UNL     1      -3.271   3.172  24.538  0.00  0.00    +0.205 A 
ATOM     10  N   UNL     1      -3.716   3.208  23.844  0.00  0.00    -0.056 NA
ATOM     11  O   UNL     1      -4.333   2.664  23.908  0.00  0.00    -0.336 OA
ATOM     12  C   UNL     1      -4.269   2.291  24.641  0.00  0.00    +0.251 A 
ATOM     13  N   UNL     1      -3.612   2.605  25.031  0.00  0.00    -0.190 NA
BRANCH   9   6
ATOM      3  C   UNL     1      -1.263   4.525  25.051  0.00  0.00    +0.225 A 
ATOM      4  N   UNL     1      -1.194   3.840  24.597  0.00  0.00    -0.210 NA
ATOM      5  C   UNL     1      -1.863   3.388  24.426  0.00  0.00    +0.105 A 
ATOM      6  C   UNL     1      -2.601   3.623  24.709  0.00  0.00    +0.058 A 
ATOM      7  C   UNL     1      -2.671   4.308  25.164  0.00  0.00    +0.010 A 
ATOM      8  C   UNL     1      -2.002   4.759  25.335  0.00  0.00    +0.058 A 
BRANCH   3   2
ATOM      1  C   UNL     1      -0.226   5.411  24.625  0.00  0.00    +0.254 C 
ATOM      2  O   UNL     1      -0.594   4.976  25.222  0.00  0.00    -0.456 OA
ENDBRANCH   3   2
ENDBRANCH   9   6
ENDBRANCH  14  12
BRANCH  18  19
ATOM     19  C   UNL     1      -4.013   0.518  24.519  0.00  0.00    +0.099 C 
BRANCH  19  20
ATOM     20  C   UNL     1      -3.929  -0.300  24.573  0.00  0.00    -0.006 A 
ATOM     21  C   UNL     1      -4.225  -0.786  23.976  0.00  0.00    -0.003 A 
ATOM     22  C   UNL     1      -4.141  -1.605  24.030  0.00  0.00    +0.004 A 
ATOM     23  C   UNL     1      -3.761  -1.938  24.682  0.00  0.00    +0.071 A 
ATOM     24  C   UNL     1      -3.465  -1.452  25.280  0.00  0.00    +0.004 A 
ATOM     25  C   UNL     1      -3.549  -0.634  25.226  0.00  0.00    -0.003 A 
BRANCH  23  26
ATOM     26  C   UNL     1      -3.677  -2.757  24.736  0.00  0.00    +0.419 C 
ATOM     27  F   UNL     1      -3.593  -3.576  24.791  0.00  0.00    -0.166 F 
ATOM     28  F   UNL     1      -3.642  -2.700  25.558  0.00  0.00    -0.166 F 
ATOM     29  F   UNL     1      -3.712  -2.815  23.914  0.00  0.00    -0.166 F 
ENDBRANCH  23  26
ENDBRANCH  19  20
ENDBRANCH  18  19
TORSDOF 6
ENDMDL
MODEL 2
REMARK VINA RESULT:     -11.9      3.074      5.552
REMARK  Name = 
REMARK  6 active torsions:
REMARK  status: ('A' for Active; 'I' for Inactive)
REMARK    1  A    between atoms: O_2  and  C_3
REMARK    2  A    between atoms: C_6  and  C_9
REMARK    3  A    between atoms: C_12  and  C_14
REMARK    4  A    between atoms: N_18  and  C_19
REMARK    5  A    between atoms: C_19  and  C_20
REMARK    6  A    between atoms: C_23  and  C_26
REMARK                            x       y       z     vdW  Elec       q    Type
REMARK                         _______ _______ _______ _____ _____    ______ ____
ROOT
ATOM     14  C   UNL     1      -4.507   2.161  24.686  0.00  0.00    +0.138 C 
ATOM     15  C   UNL     1      -5.114   2.497  24.238  0.00  0.00    +0.027 C 
ATOM     16  C   UNL     1      -4.911   3.282  24.082  0.00  0.00    +0.019 C 
ATOM     17  C   UNL     1      -4.180   3.431  24.434  0.00  0.00    +0.073 C 
ATOM     18  N   UNL     1      -3.930   2.738  24.807  0.00  0.00    -0.263 NA
ENDROOT
BRANCH  14  12
ATOM      9  C   UNL     1      -4.223   0.079  25.058  0.00  0.00    +0.205 A 
ATOM     10  N   UNL     1      -4.665   0.300  25.720  0.00  0.00    -0.056 NA
ATOM     11  O   UNL     1      -4.825   1.108  25.660  0.00  0.00    -0.336 OA
ATOM     12  C   UNL     1      -4.482   1.385  24.963  0.00  0.00    +0.251 A 
ATOM     13  N   UNL     1      -4.111   0.749  24.591  0.00  0.00    -0.190 NA
BRANCH   9   6
ATOM      3  C   UNL     1      -3.386  -2.197  24.566  0.00  0.00    +0.225 A 
ATOM      4  N   UNL     1      -3.134  -1.803  25.245  0.00  0.00    -0.210 NA
ATOM      5  C   UNL     1      -3.414  -1.044  25.409  0.00  0.00    +0.105 A 
ATOM      6  C   UNL     1      -3.944  -0.680  24.894  0.00  0.00    +0.058 A 
ATOM      7  C   UNL     1      -4.196  -1.074  24.214  0.00  0.00    +0.010 A 
ATOM      8  C   UNL     1      -3.917  -1.832  24.050  0.00  0.00    +0.058 A 
BRANCH   3   2
ATOM      1  C   UNL     1      -2.307  -3.073  24.230  0.00  0.00    +0.254 C 
ATOM      2  O   UNL     1      -3.106  -2.956  24.401  0.00  0.00    -0.456 OA
ENDBRANCH   3   2
ENDBRANCH   9   6
ENDBRANCH  14  12
BRANCH  18  19
ATOM     19  C   UNL     1      -3.227   2.640  25.226  0.00  0.00    +0.099 C 
BRANCH  19  20
ATOM     20  C   UNL     1      -2.640   3.218  25.189  0.00  0.00    -0.006 A 
ATOM     21  C   UNL     1      -2.031   3.153  24.637  0.00  0.00    -0.003 A 
ATOM     22  C   UNL     1      -1.443   3.732  24.599  0.00  0.00    +0.004 A 
ATOM     23  C   UNL     1      -1.466   4.375  25.115  0.00  0.00    +0.071 A 
ATOM     24  C   UNL     1      -2.075   4.441  25.667  0.00  0.00    +0.004 A 
ATOM     25  C   UNL     1      -2.662   3.863  25.704  0.00  0.00    -0.003 A 
BRANCH  23  26
ATOM     26  C   UNL     1      -0.878   4.954  25.077  0.00  0.00    +0.419 C 
ATOM     27  F   UNL     1      -0.291   5.532  25.040  0.00  0.00    -0.166 F 
ATOM     28  F   UNL     1      -1.457   5.541  25.073  0.00  0.00    -0.166 F 
ATOM     29  F   UNL     1      -0.299   4.366  25.082  0.00  0.00    -0.166 F 
ENDBRANCH  23  26
ENDBRANCH  19  20
ENDBRANCH  18  19
TORSDOF 6
ENDMDL
MODEL 3
REMARK VINA RESULT:     -11.6      2.012      2.810
REMARK  Name = 
REMARK  6 active torsions:
REMARK  status: ('A' for Active; 'I' for Inactive)
REMARK    1  A    between atoms: O_2  and  C_3
REMARK    2  A    between atoms: C_6  and  C_9
REMARK    3  A    between atoms: C_12  and  C_14
REMARK    4  A    between atoms: N_18  and  C_19
REMARK    5  A    between atoms: C_19  and  C_20
REMARK    6  A    between atoms: C_23  and  C_26
REMARK                            x       y       z     vdW  Elec       q    Type
REMARK                         _______ _______ _______ _____ _____    ______ ____
ROOT
ATOM     14  C   UNL     1      -0.656   0.173  24.775  0.00  0.00    +0.138 C 
ATOM     15  C   UNL     1      -0.005  -0.060  24.325  0.00  0.00    +0.027 C 
ATOM     16  C   UNL     1      -0.167  -0.803  24.006  0.00  0.00    +0.019 C 
ATOM     17  C   UNL     1      -0.919  -1.030  24.259  0.00  0.00    +0.073 C 
ATOM     18  N   UNL     1      -1.221  -0.427  24.735  0.00  0.00    -0.263 NA
ENDROOT
BRANCH  14  12
ATOM      9  C   UNL     1      -0.953   2.163  25.487  0.00  0.00    +0.205 A 
ATOM     10  N   UNL     1      -0.729   1.777  26.182  0.00  0.00    -0.056 NA
ATOM     11  O   UNL     1      -0.590   0.984  25.999  0.00  0.00    -0.336 OA
ATOM     12  C   UNL     1      -0.729   0.880  25.193  0.00  0.00    +0.251 A 
ATOM     13  N   UNL     1      -0.953   1.609  24.876  0.00  0.00    -0.190 NA
BRANCH   9   6
ATOM      3  C   UNL     1      -1.526   4.562  25.276  0.00  0.00    +0.225 A 
ATOM      4  N   UNL     1      -0.797   4.285  25.005  0.00  0.00    -0.210 NA
ATOM      5  C   UNL     1      -0.607   3.486  25.075  0.00  0.00    +0.105 A 
ATOM      6  C   UNL     1      -1.144   2.963  25.417  0.00  0.00    +0.058 A 
ATOM      7  C   UNL     1      -1.873   3.238  25.688  0.00  0.00    +0.010 A 
ATOM      8  C   UNL     1      -2.064   4.037  25.618  0.00  0.00    +0.058 A 
BRANCH   3   2
ATOM      1  C   UNL     1      -1.205   5.873  24.809  0.00  0.00    +0.254 C 
ATOM      2  O   UNL     1      -1.717   5.361  25.206  0.00  0.00    -0.456 OA
ENDBRANCH   3   2
ENDBRANCH   9   6
ENDBRANCH  14  12
BRANCH  18  19
ATOM     19  C   UNL     1      -1.958  -0.425  25.105  0.00  0.00    +0.099 C 
BRANCH  19  20
ATOM     20  C   UNL     1      -2.564  -0.907  24.821  0.00  0.00    -0.006 A 
ATOM     21  C   UNL     1      -3.089  -0.620  24.254  0.00  0.00    -0.003 A 
ATOM     22  C   UNL     1      -3.696  -1.103  23.970  0.00  0.00    +0.004 A 
ATOM     23  C   UNL     1      -3.775  -1.873  24.254  0.00  0.00    +0.071 A 
ATOM     24  C   UNL     1      -3.250  -2.161  24.821  0.00  0.00    +0.004 A 
ATOM     25  C   UNL     1      -2.644  -1.678  25.105  0.00  0.00    -0.003 A 
BRANCH  23  26
ATOM     26  C   UNL     1      -4.382  -2.356  23.970  0.00  0.00    +0.419 C 
ATOM     27  F   UNL     1      -4.987  -2.839  23.687  0.00  0.00    -0.166 F 
ATOM     28  F   UNL     1      -3.891  -3.015  24.045  0.00  0.00    -0.166 F 
ATOM     29  F   UNL     1      -4.872  -1.697  23.896  0.00  0.00    -0.166 F 
ENDBRANCH  23  26
ENDBRANCH  19  20
ENDBRANCH  18  19
TORSDOF 6
ENDMDL
MODEL 4
REMARK VINA RESULT:     -11.5      3.667      6.300
REMARK  Name = 
REMARK  6 active torsions:
REMARK  status: ('A' for Active; 'I' for Inactive)
REMARK    1  A    between atoms: O_2  and  C_3
REMARK    2  A    between atoms: C_6  and  C_9
REMARK    3  A    between atoms: C_12  and  C_14
REMARK    4  A    between atoms: N_18  and  C_19
REMARK    5  A    between atoms: C_19  and  C_20
REMARK    6  A    between atoms: C_23  and  C_26
REMARK                            x       y       z     vdW  Elec       q    Type
REMARK                         _______ _______ _______ _____ _____    ______ ____
ROOT
ATOM     14  C   UNL     1      -0.268   0.745  24.532  0.00  0.00    +0.138 C 
ATOM     15  C   UNL     1       0.348   0.666  23.989  0.00  0.00    +0.027 C 
ATOM     16  C   UNL     1       0.639   1.419  23.822  0.00  0.00    +0.019 C 
ATOM     17  C   UNL     1       0.203   1.965  24.261  0.00  0.00    +0.073 C 
ATOM     18  N   UNL     1      -0.358   1.548  24.700  0.00  0.00    -0.263 NA
ENDROOT
BRANCH  14  12
ATOM      9  C   UNL     1      -1.616  -0.847  24.986  0.00  0.00    +0.205 A 
ATOM     10  N   UNL     1      -1.193  -0.789  25.693  0.00  0.00    -0.056 NA
ATOM     11  O   UNL     1      -0.637  -0.185  25.609  0.00  0.00    -0.336 OA
ATOM     12  C   UNL     1      -0.716   0.130  24.850  0.00  0.00    +0.251 A 
ATOM     13  N   UNL     1      -1.321  -0.279  24.466  0.00  0.00    -0.190 NA
BRANCH   9   6
ATOM      3  C   UNL     1      -3.447  -2.443  24.513  0.00  0.00    +0.225 A 
ATOM      4  N   UNL     1      -2.663  -2.666  24.391  0.00  0.00    -0.210 NA
ATOM      5  C   UNL     1      -2.052  -2.134  24.549  0.00  0.00    +0.105 A 
ATOM      6  C   UNL     1      -2.226  -1.379  24.829  0.00  0.00    +0.058 A 
ATOM      7  C   UNL     1      -3.011  -1.154  24.952  0.00  0.00    +0.010 A 
ATOM      8  C   UNL     1      -3.621  -1.686  24.794  0.00  0.00    +0.058 A 
BRANCH   3   2
ATOM      1  C   UNL     1      -4.503  -2.899  23.665  0.00  0.00    +0.254 C 
ATOM      2  O   UNL     1      -4.058  -2.975  24.356  0.00  0.00    -0.456 OA
ENDBRANCH   3   2
ENDBRANCH   9   6
ENDBRANCH  14  12
BRANCH  18  19
ATOM     19  C   UNL     1      -0.912   1.876  25.216  0.00  0.00    +0.099 C 
BRANCH  19  20
ATOM     20  C   UNL     1      -1.043   2.690  25.216  0.00  0.00    -0.006 A 
ATOM     21  C   UNL     1      -0.550   3.188  25.650  0.00  0.00    -0.003 A 
ATOM     22  C   UNL     1      -0.681   4.003  25.651  0.00  0.00    +0.004 A 
ATOM     23  C   UNL     1      -1.308   4.319  25.217  0.00  0.00    +0.071 A 
ATOM     24  C   UNL     1      -1.802   3.821  24.783  0.00  0.00    +0.004 A 
ATOM     25  C   UNL     1      -1.670   3.007  24.782  0.00  0.00    -0.003 A 
BRANCH  23  26
ATOM     26  C   UNL     1      -1.440   5.134  25.217  0.00  0.00    +0.419 C 
ATOM     27  F   UNL     1      -1.571   5.948  25.217  0.00  0.00    -0.166 F 
ATOM     28  F   UNL     1      -0.757   5.244  24.768  0.00  0.00    -0.166 F 
ATOM     29  F   UNL     1      -2.123   5.023  25.666  0.00  0.00    -0.166 F 
ENDBRANCH  23  26
ENDBRANCH  19  20
ENDBRANCH  18  19
TORSDOF 6
ENDMDL
MODEL 5
REMARK VINA RESULT:     -10.2      3.167      5.435
REMARK  Name = 
REMARK  6 active torsions:
REMARK  status: ('A' for Active; 'I' for Inactive)
REMARK    1  A    between atoms: O_2  and  C_3
REMARK    2  A    between atoms: C_6  and  C_9
REMARK    3  A    between atoms: C_12  and  C_14
REMARK    4  A    between atoms: N_18  and  C_19
REMARK    5  A    between atoms: C_19  and  C_20
REMARK    6  A    between atoms: C_23  and  C_26
REMARK                            x       y       z     vdW  Elec       q    Type
REMARK                         _______ _______ _______ _____ _____    ______ ____
ROOT
ATOM     14  C   UNL     1      -1.262   1.987  25.270  0.00  0.00    +0.138 C 
ATOM     15  C   UNL     1      -0.729   2.295  25.819  0.00  0.00    +0.027 C 
ATOM     16  C   UNL     1      -0.991   3.046  26.036  0.00  0.00    +0.019 C 
ATOM     17  C   UNL     1      -1.686   3.204  25.621  0.00  0.00    +0.073 C 
ATOM     18  N   UNL     1      -1.854   2.549  25.147  0.00  0.00    -0.263 NA
ENDROOT
BRANCH  14  12
ATOM      9  C   UNL     1      -1.429  -0.034  24.603  0.00  0.00    +0.205 A 
ATOM     10  N   UNL     1      -0.844   0.254  24.096  0.00  0.00    -0.056 NA
ATOM     11  O   UNL     1      -0.710   1.046  24.285  0.00  0.00    -0.336 OA
ATOM     12  C   UNL     1      -1.212   1.248  24.907  0.00  0.00    +0.251 A 
ATOM     13  N   UNL     1      -1.656   0.581  25.104  0.00  0.00    -0.190 NA
BRANCH   9   6
ATOM      3  C   UNL     1      -2.338  -2.335  24.616  0.00  0.00    +0.225 A 
ATOM      4  N   UNL     1      -1.524  -2.213  24.659  0.00  0.00    -0.210 NA
ATOM      5  C   UNL     1      -1.220  -1.446  24.655  0.00  0.00    +0.105 A 
ATOM      6  C   UNL     1      -1.732  -0.801  24.608  0.00  0.00    +0.058 A 
ATOM      7  C   UNL     1      -2.547  -0.922  24.565  0.00  0.00    +0.010 A 
ATOM      8  C   UNL     1      -2.850  -1.689  24.569  0.00  0.00    +0.058 A 
BRANCH   3   2
ATOM      1  C   UNL     1      -3.455  -3.225  24.550  0.00  0.00    +0.254 C 
ATOM      2  O   UNL     1      -2.642  -3.103  24.621  0.00  0.00    -0.456 OA
ENDBRANCH   3   2
ENDBRANCH   9   6
ENDBRANCH  14  12
BRANCH  18  19
ATOM     19  C   UNL     1      -2.500   2.470  24.641  0.00  0.00    +0.099 C 
BRANCH  19  20
ATOM     20  C   UNL     1      -3.221   2.821  24.833  0.00  0.00    -0.006 A 
ATOM     21  C   UNL     1      -3.747   2.434  25.337  0.00  0.00    -0.003 A 
ATOM     22  C   UNL     1      -4.469   2.785  25.530  0.00  0.00    +0.004 A 
ATOM     23  C   UNL     1      -4.663   3.524  25.218  0.00  0.00    +0.071 A 
ATOM     24  C   UNL     1      -4.137   3.911  24.714  0.00  0.00    +0.004 A 
ATOM     25  C   UNL     1      -3.416   3.560  24.522  0.00  0.00    -0.003 A 
BRANCH  23  26
ATOM     26  C   UNL     1      -5.385   3.875  25.411  0.00  0.00    +0.419 C 
ATOM     27  F   UNL     1      -6.106   4.226  25.603  0.00  0.00    -0.166 F 
ATOM     28  F   UNL     1      -5.785   3.228  25.092  0.00  0.00    -0.166 F 
ATOM     29  F   UNL     1      -4.984   4.523  25.729  0.00  0.00    -0.166 F 
ENDBRANCH  23  26
ENDBRANCH  19  20
ENDBRANCH  18  19
TORSDOF 6
ENDMDL
