MODEL 1
REMARK VINA RESULT:     -17.1      0.000      0.000
REMARK  Name = 
REMARK  4 active torsions:
REMARK  status: ('A' for Active; 'I' for Inactive)
REMARK    1  A    between atoms: C_5  and  C_8
REMARK    2  A    between atoms: C_19  and  C_24
REMARK    3  A    between atoms: C_27  and  O_28
REMARK    4  A    between atoms: O_28  and  C_29
REMARK                            x       y       z     vdW  Elec       q    Type
REMARK                         _______ _______ _______ _____ _____    ______ ____
ROOT
ATOM      8  C   UNL     1      -2.109  -0.720  25.294  0.00  0.00    +0.249 C 
ATOM      9  O   UNL     1      -1.308  -0.757  25.666  0.00  0.00    -0.270 OA
ATOM     10  N   UNL     1      -2.220  -1.504  25.050  0.00  0.00    -0.276 N 
ATOM     11  C   UNL     1      -1.931  -2.285  24.997  0.00  0.00    +0.096 C 
ATOM     12  C   UNL     1      -2.691  -2.712  24.532  0.00  0.00    +0.043 C 
ATOM     13  C   UNL     1      -3.223  -3.204  24.159  0.00  0.00    +0.011 C 
ATOM     14  C   UNL     1      -3.182  -2.528  24.343  0.00  0.00    +0.058 C 
ATOM     15  C   UNL     1      -2.440  -2.130  24.793  0.00  0.00    +0.099 C 
ATOM     16  C   UNL     1      -3.658  -1.742  24.309  0.00  0.00    +0.041 A 
ATOM     17  C   UNL     1      -4.377  -1.439  24.042  0.00  0.00    +0.013 A 
ATOM     18  C   UNL     1      -4.555  -0.641  24.152  0.00  0.00    +0.006 A 
ATOM     19  C   UNL     1      -4.014  -0.146  24.530  0.00  0.00    +0.056 A 
ATOM     20  C   UNL     1      -3.295  -0.448  24.797  0.00  0.00    +0.261 A 
ATOM     21  O   UNL     1      -2.447  -0.111  25.283  0.00  0.00    -0.267 OA
ATOM     22  N   UNL     1      -3.117  -1.246  24.687  0.00  0.00    -0.299 N 
ATOM     23  C   UNL     1      -3.180  -1.886  24.501  0.00  0.00    +0.110 C 
ENDROOT
BRANCH   8   5
ATOM      1  F   UNL     1      -5.330   1.264  24.213  0.00  0.00    -0.204 F 
ATOM      2  C   UNL     1      -4.518   0.758  24.493  0.00  0.00    +0.140 A 
ATOM      3  C   UNL     1      -4.361   0.211  25.191  0.00  0.00    +0.030 A 
ATOM      4  C   UNL     1      -3.601  -0.267  25.460  0.00  0.00    +0.007 A 
ATOM      5  C   UNL     1      -2.893  -0.242  25.038  0.00  0.00    +0.054 A 
ATOM      6  C   UNL     1      -2.835   0.214  24.354  0.00  0.00    +0.007 A 
ATOM      7  C   UNL     1      -3.273   0.556  24.104  0.00  0.00    +0.030 A 
ENDBRANCH   8   5
BRANCH  19  24
ATOM     24  C   UNL     1      -4.193   0.651  24.639  0.00  0.00    +0.005 A 
ATOM     25  C   UNL     1      -4.596   0.894  25.318  0.00  0.00    +0.003 A 
ATOM     26  C   UNL     1      -4.775   1.691  25.428  0.00  0.00    +0.037 A 
ATOM     27  C   UNL     1      -4.552   2.247  24.861  0.00  0.00    +0.147 A 
ATOM     33  C   UNL     1      -4.149   2.005  24.182  0.00  0.00    +0.037 A 
ATOM     34  C   UNL     1      -3.969   1.207  24.072  0.00  0.00    +0.003 A 
BRANCH  27  28
ATOM     28  O   UNL     1      -4.704   3.125  24.899  0.00  0.00    -0.404 OA
BRANCH  28  29
ATOM     29  C   UNL     1      -4.456   3.776  25.466  0.00  0.00    +0.575 C 
ATOM     30  F   UNL     1      -4.333   4.439  26.004  0.00  0.00    -0.133 F 
ATOM     31  F   UNL     1      -3.645   3.827  25.753  0.00  0.00    -0.133 F 
ATOM     32  F   UNL     1      -5.237   4.100  25.471  0.00  0.00    -0.133 F 
ENDBRANCH  28  29
ENDBRANCH  27  28
ENDBRANCH  19  24
TORSDOF 4
ENDMDL
MODEL 2
REMARK VINA RESULT:     -17.1      2.127      4.341
REMARK  Name = 
REMARK  4 active torsions:
REMARK  status: ('A' for Active; 'I' for Inactive)
REMARK    1  A    between atoms: C_5  and  C_8
REMARK    2  A    between atoms: C_19  and  C_24
REMARK    3  A    between atoms: C_27  and  O_28
REMARK    4  A    between atoms: O_28  and  C_29
REMARK                            x       y       z     vdW  Elec       q    Type
REMARK                         _______ _______ _______ _____ _____    ______ ____
ROOT
ATOM      8  C   UNL     1      -2.737   2.197  24.856  0.00  0.00    +0.249 C 
ATOM      9  O   UNL     1      -1.966   2.630  24.852  0.00  0.00    -0.270 OA
ATOM     10  N   UNL     1      -3.278   2.814  24.964  0.00  0.00    -0.276 N 
ATOM     11  C   UNL     1      -3.425   3.630  25.068  0.00  0.00    +0.096 C 
ATOM     12  C   UNL     1      -4.410   3.614  25.134  0.00  0.00    +0.043 C 
ATOM     13  C   UNL     1      -5.207   3.769  25.207  0.00  0.00    +0.011 C 
ATOM     14  C   UNL     1      -4.794   3.209  25.114  0.00  0.00    +0.058 C 
ATOM     15  C   UNL     1      -3.841   3.241  25.052  0.00  0.00    +0.099 C 
ATOM     16  C   UNL     1      -4.829   2.297  25.011  0.00  0.00    +0.041 A 
ATOM     17  C   UNL     1      -5.371   1.676  24.977  0.00  0.00    +0.013 A 
ATOM     18  C   UNL     1      -5.106   0.903  24.870  0.00  0.00    +0.006 A 
ATOM     19  C   UNL     1      -4.299   0.749  24.797  0.00  0.00    +0.056 A 
ATOM     20  C   UNL     1      -3.757   1.369  24.831  0.00  0.00    +0.261 A 
ATOM     21  O   UNL     1      -2.733   1.505  24.776  0.00  0.00    -0.267 OA
ATOM     22  N   UNL     1      -4.021   2.143  24.938  0.00  0.00    -0.299 N 
ATOM     23  C   UNL     1      -4.437   2.660  25.026  0.00  0.00    +0.110 C 
ENDROOT
BRANCH   8   5
ATOM      1  F   UNL     1      -4.837  -1.118  24.587  0.00  0.00    -0.204 F 
ATOM      2  C   UNL     1      -4.306  -0.278  24.662  0.00  0.00    +0.140 A 
ATOM      3  C   UNL     1      -4.062   0.217  25.374  0.00  0.00    +0.030 A 
ATOM      4  C   UNL     1      -3.563   1.006  25.453  0.00  0.00    +0.007 A 
ATOM      5  C   UNL     1      -3.247   1.394  24.798  0.00  0.00    +0.054 A 
ATOM      6  C   UNL     1      -3.364   1.090  24.041  0.00  0.00    +0.007 A 
ATOM      7  C   UNL     1      -3.672   0.586  23.893  0.00  0.00    +0.030 A 
ENDBRANCH   8   5
BRANCH  19  24
ATOM     24  C   UNL     1      -4.035  -0.025  24.689  0.00  0.00    +0.005 A 
ATOM     25  C   UNL     1      -4.036  -0.360  23.935  0.00  0.00    +0.003 A 
ATOM     26  C   UNL     1      -3.772  -1.134  23.827  0.00  0.00    +0.037 A 
ATOM     27  C   UNL     1      -3.508  -1.573  24.473  0.00  0.00    +0.147 A 
ATOM     33  C   UNL     1      -3.506  -1.239  25.227  0.00  0.00    +0.037 A 
ATOM     34  C   UNL     1      -3.771  -0.464  25.335  0.00  0.00    +0.003 A 
BRANCH  27  28
ATOM     28  O   UNL     1      -3.206  -2.413  24.447  0.00  0.00    -0.404 OA
BRANCH  28  29
ATOM     29  C   UNL     1      -2.423  -2.786  24.219  0.00  0.00    +0.575 C 
ATOM     30  F   UNL     1      -1.736  -3.228  23.941  0.00  0.00    -0.133 F 
ATOM     31  F   UNL     1      -1.676  -2.439  24.473  0.00  0.00    -0.133 F 
ATOM     32  F   UNL     1      -2.814  -3.403  23.793  0.00  0.00    -0.133 F 
ENDBRANCH  28  29
ENDBRANCH  27  28
ENDBRANCH  19  24
TORSDOF 4
ENDMDL
MODEL 3
REMARK VINA RESULT:     -16.6      2.299      4.227
REMARK  Name = 
REMARK  4 active torsions:
REMARK  status: ('A' for Active; 'I' for Inactive)
REMARK    1  A    between atoms: C_5  and  C_8
REMARK    2  A    between atoms: C_19  and  C_24
REMARK    3  A    between atoms: C_27  and  O_28
REMARK    4  A    between atoms: O_28  and  C_29
REMARK                            x       y       z     vdW  Elec       q    Type
REMARK                         _______ _______ _______ _____ _____    ______ ____
ROOT
ATOM      8  C   UNL     1      -1.158   1.740  24.888  0.00  0.00    +0.249 C 
ATOM      9  O   UNL     1      -0.280   1.633  24.895  0.00  0.00    -0.270 OA
ATOM     10  N   UNL     1      -1.234   2.539  25.090  0.00  0.00    -0.276 N 
ATOM     11  C   UNL     1      -0.873   3.265  25.291  0.00  0.00    +0.096 C 
ATOM     12  C   UNL     1      -1.680   3.825  25.403  0.00  0.00    +0.043 C 
ATOM     13  C   UNL     1      -2.232   4.409  25.532  0.00  0.00    +0.011 C 
ATOM     14  C   UNL     1      -2.227   3.729  25.357  0.00  0.00    +0.058 C 
ATOM     15  C   UNL     1      -1.438   3.201  25.253  0.00  0.00    +0.099 C 
ATOM     16  C   UNL     1      -2.791   3.032  25.156  0.00  0.00    +0.041 A 
ATOM     17  C   UNL     1      -3.594   2.860  25.080  0.00  0.00    +0.013 A 
ATOM     18  C   UNL     1      -3.834   2.098  24.875  0.00  0.00    +0.006 A 
ATOM     19  C   UNL     1      -3.272   1.508  24.745  0.00  0.00    +0.056 A 
ATOM     20  C   UNL     1      -2.469   1.681  24.821  0.00  0.00    +0.261 A 
ATOM     21  O   UNL     1      -1.561   1.194  24.732  0.00  0.00    -0.267 OA
ATOM     22  N   UNL     1      -2.228   2.443  25.027  0.00  0.00    -0.299 N 
ATOM     23  C   UNL     1      -2.261   3.091  25.192  0.00  0.00    +0.110 C 
ENDROOT
BRANCH   8   5
ATOM      1  F   UNL     1      -4.804   0.341  24.417  0.00  0.00    -0.204 F 
ATOM      2  C   UNL     1      -3.881   0.699  24.530  0.00  0.00    +0.140 A 
ATOM      3  C   UNL     1      -3.366   1.212  23.998  0.00  0.00    +0.030 A 
ATOM      4  C   UNL     1      -2.498   1.552  24.096  0.00  0.00    +0.007 A 
ATOM      5  C   UNL     1      -2.042   1.404  24.767  0.00  0.00    +0.054 A 
ATOM      6  C   UNL     1      -2.344   0.944  25.380  0.00  0.00    +0.007 A 
ATOM      7  C   UNL     1      -2.894   0.683  25.405  0.00  0.00    +0.030 A 
ENDBRANCH   8   5
BRANCH  19  24
ATOM     24  C   UNL     1      -3.512   0.747  24.540  0.00  0.00    +0.005 A 
ATOM     25  C   UNL     1      -3.787   0.231  25.122  0.00  0.00    +0.003 A 
ATOM     26  C   UNL     1      -4.028  -0.531  24.918  0.00  0.00    +0.037 A 
ATOM     27  C   UNL     1      -3.995  -0.777  24.131  0.00  0.00    +0.147 A 
ATOM     33  C   UNL     1      -3.720  -0.261  23.548  0.00  0.00    +0.037 A 
ATOM     34  C   UNL     1      -3.479   0.501  23.753  0.00  0.00    +0.003 A 
BRANCH  27  28
ATOM     28  O   UNL     1      -4.235  -1.579  23.822  0.00  0.00    -0.404 OA
BRANCH  28  29
ATOM     29  C   UNL     1      -3.975  -2.419  24.004  0.00  0.00    +0.575 C 
ATOM     30  F   UNL     1      -3.837  -3.259  24.145  0.00  0.00    -0.133 F 
ATOM     31  F   UNL     1      -3.179  -2.583  24.292  0.00  0.00    -0.133 F 
ATOM     32  F   UNL     1      -4.731  -2.726  23.782  0.00  0.00    -0.133 F 
ENDBRANCH  28  29
ENDBRANCH  27  28
ENDBRANCH  19  24
TORSDOF 4
ENDMDL
MODEL 4
REMARK VINA RESULT:     -15.7      2.100      2.844
REMARK  Name = 
REMARK  4 active torsions:
REMARK  status: ('A' for Active; 'I' for Inactive)
REMARK    1  A    between atoms: C_5  and  C_8
REMARK    2  A    between atoms: C_19  and  C_24
REMARK    3  A    between atoms: C_27  and  O_28
REMARK    4  A    between atoms: O_28  and  C_29
REMARK                            x       y       z     vdW  Elec       q    Type
REMARK                         _______ _______ _______ _____ _____    ______ ____
ROOT
ATOM      8  C   UNL     1      -4.082   0.818  24.676  0.00  0.00    +0.249 C 
ATOM      9  O   UNL     1      -4.954   0.964  24.681  0.00  0.00    -0.270 OA
ATOM     10  N   UNL     1      -4.048  -0.005  24.594  0.00  0.00    -0.276 N 
ATOM     11  C   UNL     1      -4.447  -0.735  24.516  0.00  0.00    +0.096 C 
ATOM     12  C   UNL     1      -3.670  -1.343  24.463  0.00  0.00    +0.043 C 
ATOM     13  C   UNL     1      -3.148  -1.966  24.406  0.00  0.00    +0.011 C 
ATOM     14  C   UNL     1      -3.117  -1.269  24.477  0.00  0.00    +0.058 C 
ATOM     15  C   UNL     1      -3.878  -0.694  24.526  0.00  0.00    +0.099 C 
ATOM     16  C   UNL     1      -2.517  -0.577  24.553  0.00  0.00    +0.041 A 
ATOM     17  C   UNL     1      -1.705  -0.434  24.576  0.00  0.00    +0.013 A 
ATOM     18  C   UNL     1      -1.424   0.338  24.657  0.00  0.00    +0.006 A 
ATOM     19  C   UNL     1      -1.956   0.966  24.714  0.00  0.00    +0.056 A 
ATOM     20  C   UNL     1      -2.768   0.823  24.691  0.00  0.00    +0.261 A 
ATOM     21  O   UNL     1      -3.650   1.361  24.735  0.00  0.00    -0.267 OA
ATOM     22  N   UNL     1      -3.048   0.051  24.610  0.00  0.00    -0.299 N 
ATOM     23  C   UNL     1      -3.050  -0.615  24.543  0.00  0.00    +0.110 C 
ENDROOT
BRANCH   8   5
ATOM      1  F   UNL     1      -0.364   2.095  24.813  0.00  0.00    -0.204 F 
ATOM      2  C   UNL     1      -1.305   1.769  24.786  0.00  0.00    +0.140 A 
ATOM      3  C   UNL     1      -1.819   1.362  25.404  0.00  0.00    +0.030 A 
ATOM      4  C   UNL     1      -2.703   1.053  25.385  0.00  0.00    +0.007 A 
ATOM      5  C   UNL     1      -3.180   1.125  24.717  0.00  0.00    +0.054 A 
ATOM      6  C   UNL     1      -2.884   1.478  24.033  0.00  0.00    +0.007 A 
ATOM      7  C   UNL     1      -2.326   1.706  23.952  0.00  0.00    +0.030 A 
ENDBRANCH   8   5
BRANCH  19  24
ATOM     24  C   UNL     1      -1.675   1.737  24.795  0.00  0.00    +0.005 A 
ATOM     25  C   UNL     1      -1.476   2.175  24.124  0.00  0.00    +0.003 A 
ATOM     26  C   UNL     1      -1.195   2.947  24.204  0.00  0.00    +0.037 A 
ATOM     27  C   UNL     1      -1.113   3.280  24.954  0.00  0.00    +0.147 A 
ATOM     33  C   UNL     1      -1.312   2.843  25.625  0.00  0.00    +0.037 A 
ATOM     34  C   UNL     1      -1.593   2.070  25.545  0.00  0.00    +0.003 A 
BRANCH  27  28
ATOM     28  O   UNL     1      -0.818   4.104  25.132  0.00  0.00    -0.404 OA
BRANCH  28  29
ATOM     29  C   UNL     1      -1.202   4.915  25.134  0.00  0.00    +0.575 C 
ATOM     30  F   UNL     1      -1.467   5.734  25.085  0.00  0.00    -0.133 F 
ATOM     31  F   UNL     1      -1.999   5.026  25.441  0.00  0.00    -0.133 F 
ATOM     32  F   UNL     1      -0.516   5.266  24.784  0.00  0.00    -0.133 F 
ENDBRANCH  28  29
ENDBRANCH  27  28
ENDBRANCH  19  24
TORSDOF 4
ENDMDL
