REMARK  Name = 
REMARK  6 active torsions:
REMARK  status: ('A' for Active; 'I' for Inactive)
REMARK    1  A    between atoms: O_2  and  C_3
REMARK    2  A    between atoms: C_10  and  C_12
REMARK    3  A    between atoms: C_17  and  C_19
REMARK    4  A    between atoms: C_19  and  O_20
REMARK    5  A    between atoms: O_20  and  C_21
REMARK    6  A    between atoms: C_21  and  C_22
REMARK                            x       y       z     vdW  Elec       q    Type
REMARK                         _______ _______ _______ _____ _____    ______ ____
ROOT
ATOM     12  C   UNL     1      -2.901   5.661   0.000  0.00  0.00    +0.080 C 
ATOM     13  C   UNL     1      -2.489   6.376   0.000  0.00  0.00    +0.031 C 
ATOM     14  C   UNL     1      -1.682   6.204   0.000  0.00  0.00    +0.094 C 
ATOM     15  N   UNL     1      -1.596   5.384   0.000  0.00  0.00    -0.277 N 
ATOM     16  C   UNL     1      -2.349   5.048   0.000  0.00  0.00    +0.101 C 
ATOM     17  C   UNL     1      -0.881   4.971   0.000  0.00  0.00    +0.256 C 
ATOM     18  O   UNL     1      -0.881   4.146   0.000  0.00  0.00    -0.272 OA
ENDROOT
BRANCH  12  10
ATOM      3  C   UNL     1      -6.449   5.703   0.000  0.00  0.00    +0.140 A 
ATOM      4  C   UNL     1      -5.781   6.188   0.000  0.00  0.00    +0.058 A 
ATOM      5  C   UNL     1      -5.028   5.853   0.000  0.00  0.00    +0.103 A 
ATOM      6  C   UNL     1      -4.941   5.032   0.000  0.00  0.00    +0.100 A 
ATOM      7  C   UNL     1      -5.609   4.547   0.000  0.00  0.00    +0.024 A 
ATOM      8  C   UNL     1      -6.363   4.883   0.000  0.00  0.00    +0.039 A 
ATOM      9  N   UNL     1      -4.135   4.861   0.000  0.00  0.00    -0.229 NA
ATOM     10  C   UNL     1      -3.722   5.575   0.000  0.00  0.00    +0.140 A 
ATOM     11  N   UNL     1      -4.274   6.188   0.000  0.00  0.00    -0.229 NA
BRANCH   3   2
ATOM      1  C   UNL     1      -7.870   5.554   0.000  0.00  0.00    +0.252 C 
ATOM      2  O   UNL     1      -7.202   6.039   0.000  0.00  0.00    -0.471 OA
ENDBRANCH   3   2
ENDBRANCH  12  10
BRANCH  17  19
ATOM     19  C   UNL     1      -0.167   5.384   0.000  0.00  0.00    +0.228 C 
BRANCH  19  20
ATOM     20  O   UNL     1       0.548   4.971   0.000  0.00  0.00    -0.333 OA
BRANCH  20  21
ATOM     21  C   UNL     1       1.262   5.384   0.000  0.00  0.00    +0.257 C 
BRANCH  21  22
ATOM     22  C   UNL     1       1.976   4.971   0.000  0.00  0.00    +0.394 C 
ATOM     23  O   UNL     1       2.691   5.384   0.000  0.00  0.00    -0.243 OA
ATOM     24  O   UNL     1       1.976   4.146   0.000  0.00  0.00    -0.243 OA
ENDBRANCH  21  22
ENDBRANCH  20  21
ENDBRANCH  19  20
ENDBRANCH  17  19
TORSDOF 6
