MODEL 1
REMARK VINA RESULT:      -9.1      0.000      0.000
REMARK  Name = 
REMARK  5 active torsions:
REMARK  status: ('A' for Active; 'I' for Inactive)
REMARK    1  A    between atoms: C_8  and  C_10
REMARK    2  A    between atoms: C_10  and  C_11
REMARK    3  A    between atoms: C_11  and  C_12
REMARK    4  A    between atoms: N_21  and  C_22
REMARK    5  A    between atoms: C_22  and  C_23
REMARK                            x       y       z     vdW  Elec       q    Type
REMARK                         _______ _______ _______ _____ _____    ______ ____
ROOT
ATOM     12  C   UNL     1      -0.958   0.756  23.842  0.00  0.00    +0.080 C 
ATOM     13  C   UNL     1      -0.949   1.434  23.372  0.00  0.00    +0.131 C 
ATOM     14  N   UNL     1      -1.532   2.012  23.290  0.00  0.00    -0.203 NA
ATOM     15  C   UNL     1      -2.268   2.055  23.658  0.00  0.00    +0.257 C 
ATOM     16  O   UNL     1      -2.731   2.709  23.459  0.00  0.00    -0.272 OA
ATOM     17  C   UNL     1      -2.604   1.531  24.199  0.00  0.00    +0.151 C 
ATOM     18  C   UNL     1      -2.286   0.834  24.505  0.00  0.00    +0.083 C 
ATOM     19  C   UNL     1      -2.838   0.509  25.026  0.00  0.00    +0.035 C 
ATOM     20  C   UNL     1      -3.497   1.006  25.041  0.00  0.00    +0.074 C 
ATOM     21  N   UNL     1      -3.353   1.636  24.530  0.00  0.00    -0.262 NA
ATOM     30  N   UNL     1      -1.554   0.489  24.346  0.00  0.00    -0.271 NA
ATOM     31  C   UNL     1      -1.396  -0.216  24.745  0.00  0.00    +0.090 C 
ENDROOT
BRANCH  12  11
ATOM     11  C   UNL     1      -0.284   0.283  23.803  0.00  0.00    +0.027 C 
BRANCH  11  10
ATOM     10  C   UNL     1       0.396   0.565  23.431  0.00  0.00    +0.087 C 
BRANCH  10   8
ATOM      1  C   UNL     1       4.084   0.897  22.666  0.00  0.00    +0.090 C 
ATOM      2  N   UNL     1       3.295   0.682  22.770  0.00  0.00    -0.269 NA
ATOM      3  C   UNL     1       2.765   1.211  23.118  0.00  0.00    +0.094 C 
ATOM      4  C   UNL     1       1.976   0.996  23.222  0.00  0.00    +0.111 C 
ATOM      5  N   UNL     1       1.715   0.251  22.979  0.00  0.00    -0.277 N 
ATOM      6  C   UNL     1       2.245  -0.277  22.631  0.00  0.00    +0.111 C 
ATOM      7  C   UNL     1       3.034  -0.062  22.527  0.00  0.00    +0.094 C 
ATOM      8  C   UNL     1       0.926   0.036  23.083  0.00  0.00    +0.226 C 
ATOM      9  O   UNL     1       0.665  -0.708  22.840  0.00  0.00    -0.275 OA
ENDBRANCH  10   8
ENDBRANCH  11  10
ENDBRANCH  12  11
BRANCH  21  22
ATOM     22  C   UNL     1      -3.867   2.264  24.377  0.00  0.00    +0.100 C 
BRANCH  22  23
ATOM     23  C   UNL     1      -4.540   2.368  24.842  0.00  0.00    -0.005 A 
ATOM     24  C   UNL     1      -4.511   2.859  25.505  0.00  0.00    -0.003 A 
ATOM     25  C   UNL     1      -5.184   2.963  25.970  0.00  0.00    +0.001 A 
ATOM     26  C   UNL     1      -5.886   2.577  25.773  0.00  0.00    +0.011 A 
ATOM     27  C   UNL     1      -5.915   2.086  25.110  0.00  0.00    +0.057 A 
ATOM     28 CL   UNL     1      -6.617   1.700  24.913  0.00  0.00    -0.082 Cl
ATOM     29  C   UNL     1      -5.242   1.982  24.645  0.00  0.00    +0.008 A 
ENDBRANCH  22  23
ENDBRANCH  21  22
TORSDOF 5
ENDMDL
MODEL 2
REMARK VINA RESULT:      -8.1      3.114      4.575
REMARK  Name = 
REMARK  5 active torsions:
REMARK  status: ('A' for Active; 'I' for Inactive)
REMARK    1  A    between atoms: C_8  and  C_10
REMARK    2  A    between atoms: C_10  and  C_11
REMARK    3  A    between atoms: C_11  and  C_12
REMARK    4  A    between atoms: N_21  and  C_22
REMARK    5  A    between atoms: C_22  and  C_23
REMARK                            x       y       z     vdW  Elec       q    Type
REMARK                         _______ _______ _______ _____ _____    ______ ____
ROOT
ATOM     12  C   UNL     1      -0.885   0.193  24.910  0.00  0.00    +0.080 C 
ATOM     13  C   UNL     1      -0.803   0.293  25.726  0.00  0.00    +0.131 C 
ATOM     14  N   UNL     1      -0.684   0.990  26.149  0.00  0.00    -0.203 NA
ATOM     15  C   UNL     1      -0.618   1.761  25.862  0.00  0.00    +0.257 C 
ATOM     16  O   UNL     1      -0.500   2.346  26.432  0.00  0.00    -0.272 OA
ATOM     17  C   UNL     1      -0.654   2.024  25.081  0.00  0.00    +0.151 C 
ATOM     18  C   UNL     1      -0.765   1.581  24.394  0.00  0.00    +0.083 C 
ATOM     19  C   UNL     1      -0.759   2.101  23.752  0.00  0.00    +0.035 C 
ATOM     20  C   UNL     1      -0.643   2.865  24.044  0.00  0.00    +0.074 C 
ATOM     21  N   UNL     1      -0.579   2.817  24.865  0.00  0.00    -0.262 NA
ATOM     30  N   UNL     1      -0.868   0.767  24.318  0.00  0.00    -0.271 NA
ATOM     31  C   UNL     1      -0.967   0.489  23.547  0.00  0.00    +0.090 C 
ENDROOT
BRANCH  12  11
ATOM     11  C   UNL     1      -0.998  -0.583  24.654  0.00  0.00    +0.027 C 
BRANCH  11  10
ATOM     10  C   UNL     1      -1.635  -1.023  24.940  0.00  0.00    +0.087 C 
BRANCH  10   8
ATOM      1  C   UNL     1      -4.696  -2.949  23.839  0.00  0.00    +0.090 C 
ATOM      2  N   UNL     1      -3.954  -2.665  24.059  0.00  0.00    -0.269 NA
ATOM      3  C   UNL     1      -3.863  -1.875  24.282  0.00  0.00    +0.094 C 
ATOM      4  C   UNL     1      -3.121  -1.592  24.501  0.00  0.00    +0.111 C 
ATOM      5  N   UNL     1      -2.468  -2.096  24.497  0.00  0.00    -0.277 N 
ATOM      6  C   UNL     1      -2.558  -2.885  24.274  0.00  0.00    +0.111 C 
ATOM      7  C   UNL     1      -3.300  -3.169  24.055  0.00  0.00    +0.094 C 
ATOM      8  C   UNL     1      -1.726  -1.812  24.717  0.00  0.00    +0.226 C 
ATOM      9  O   UNL     1      -1.072  -2.317  24.713  0.00  0.00    -0.275 OA
ENDBRANCH  10   8
ENDBRANCH  11  10
ENDBRANCH  12  11
BRANCH  21  22
ATOM     22  C   UNL     1      -0.460   3.451  25.379  0.00  0.00    +0.100 C 
BRANCH  22  23
ATOM     23  C   UNL     1      -0.838   4.171  25.241  0.00  0.00    -0.005 A 
ATOM     24  C   UNL     1      -0.445   4.772  24.835  0.00  0.00    -0.003 A 
ATOM     25  C   UNL     1      -0.823   5.492  24.697  0.00  0.00    +0.001 A 
ATOM     26  C   UNL     1      -1.595   5.611  24.963  0.00  0.00    +0.011 A 
ATOM     27  C   UNL     1      -1.988   5.009  25.369  0.00  0.00    +0.057 A 
ATOM     28 CL   UNL     1      -2.760   5.128  25.635  0.00  0.00    -0.082 Cl
ATOM     29  C   UNL     1      -1.610   4.289  25.507  0.00  0.00    +0.008 A 
ENDBRANCH  22  23
ENDBRANCH  21  22
TORSDOF 5
ENDMDL
MODEL 3
REMARK VINA RESULT:      -7.4     13.938     14.458
REMARK  Name = 
REMARK  5 active torsions:
REMARK  status: ('A' for Active; 'I' for Inactive)
REMARK    1  A    between atoms: C_8  and  C_10
REMARK    2  A    between atoms: C_10  and  C_11
REMARK    3  A    between atoms: C_11  and  C_12
REMARK    4  A    between atoms: N_21  and  C_22
REMARK    5  A    between atoms: C_22  and  C_23
REMARK                            x       y       z     vdW  Elec       q    Type
REMARK                         _______ _______ _______ _____ _____    ______ ____
ROOT
ATOM     12  C   UNL     1      -5.684 -10.196  15.525  0.00  0.00    +0.080 C 
ATOM     13  C   UNL     1      -5.428 -10.107  16.305  0.00  0.00    +0.131 C 
ATOM     14  N   UNL     1      -5.870  -9.899  16.970  0.00  0.00    -0.203 NA
ATOM     15  C   UNL     1      -6.675  -9.728  17.020  0.00  0.00    +0.257 C 
ATOM     16  O   UNL     1      -6.955  -9.537  17.773  0.00  0.00    -0.272 OA
ATOM     17  C   UNL     1      -7.238  -9.724  16.417  0.00  0.00    +0.151 C 
ATOM     18  C   UNL     1      -7.135  -9.888  15.615  0.00  0.00    +0.083 C 
ATOM     19  C   UNL     1      -7.867  -9.809  15.242  0.00  0.00    +0.035 C 
ATOM     20  C   UNL     1      -8.422  -9.594  15.814  0.00  0.00    +0.074 C 
ATOM     21  N   UNL     1      -8.034  -9.542  16.540  0.00  0.00    -0.262 NA
ATOM     30  N   UNL     1      -6.443 -10.099  15.219  0.00  0.00    -0.271 NA
ATOM     31  C   UNL     1      -6.521 -10.229  14.407  0.00  0.00    +0.090 C 
ENDROOT
BRANCH  12  11
ATOM     11  C   UNL     1      -5.103 -10.410  14.980  0.00  0.00    +0.027 C 
BRANCH  11  10
ATOM     10  C   UNL     1      -4.335 -10.571  15.237  0.00  0.00    +0.087 C 
BRANCH  10   8
ATOM      1  C   UNL     1      -0.587 -10.735  15.707  0.00  0.00    +0.090 C 
ATOM      2  N   UNL     1      -1.372 -10.716  15.452  0.00  0.00    -0.269 NA
ATOM      3  C   UNL     1      -1.982 -10.630  16.001  0.00  0.00    +0.094 C 
ATOM      4  C   UNL     1      -2.766 -10.611  15.747  0.00  0.00    +0.111 C 
ATOM      5  N   UNL     1      -2.941 -10.676  14.943  0.00  0.00    -0.277 N 
ATOM      6  C   UNL     1      -2.331 -10.762  14.394  0.00  0.00    +0.111 C 
ATOM      7  C   UNL     1      -1.547 -10.781  14.648  0.00  0.00    +0.094 C 
ATOM      8  C   UNL     1      -3.725 -10.657  14.688  0.00  0.00    +0.226 C 
ATOM      9  O   UNL     1      -3.900 -10.722  13.885  0.00  0.00    -0.275 OA
ENDBRANCH  10   8
ENDBRANCH  11  10
ENDBRANCH  12  11
BRANCH  21  22
ATOM     22  C   UNL     1      -8.380  -9.343  17.262  0.00  0.00    +0.100 C 
BRANCH  22  23
ATOM     23  C   UNL     1      -9.159  -9.070  17.284  0.00  0.00    -0.005 A 
ATOM     24  C   UNL     1      -9.777  -9.601  17.412  0.00  0.00    -0.003 A 
ATOM     25  C   UNL     1     -10.556  -9.329  17.435  0.00  0.00    +0.001 A 
ATOM     26  C   UNL     1     -10.716  -8.527  17.329  0.00  0.00    +0.011 A 
ATOM     27  C   UNL     1     -10.097  -7.996  17.201  0.00  0.00    +0.057 A 
ATOM     28 CL   UNL     1     -10.257  -7.193  17.096  0.00  0.00    -0.082 Cl
ATOM     29  C   UNL     1      -9.319  -8.268  17.179  0.00  0.00    +0.008 A 
ENDBRANCH  22  23
ENDBRANCH  21  22
TORSDOF 5
ENDMDL
MODEL 4
REMARK VINA RESULT:      -7.4     17.451     18.761
REMARK  Name = 
REMARK  5 active torsions:
REMARK  status: ('A' for Active; 'I' for Inactive)
REMARK    1  A    between atoms: C_8  and  C_10
REMARK    2  A    between atoms: C_10  and  C_11
REMARK    3  A    between atoms: C_11  and  C_12
REMARK    4  A    between atoms: N_21  and  C_22
REMARK    5  A    between atoms: C_22  and  C_23
REMARK                            x       y       z     vdW  Elec       q    Type
REMARK                         _______ _______ _______ _____ _____    ______ ____
ROOT
ATOM     12  C   UNL     1      -6.684  -9.108   9.915  0.00  0.00    +0.080 C 
ATOM     13  C   UNL     1      -6.389  -9.221   9.152  0.00  0.00    +0.131 C 
ATOM     14  N   UNL     1      -5.623  -9.422   8.921  0.00  0.00    -0.203 NA
ATOM     15  C   UNL     1      -4.963  -9.561   9.396  0.00  0.00    +0.257 C 
ATOM     16  O   UNL     1      -4.268  -9.754   8.994  0.00  0.00    -0.272 OA
ATOM     17  C   UNL     1      -4.905  -9.533  10.218  0.00  0.00    +0.151 C 
ATOM     18  C   UNL     1      -5.493  -9.358  10.769  0.00  0.00    +0.083 C 
ATOM     19  C   UNL     1      -5.158  -9.402  11.522  0.00  0.00    +0.035 C 
ATOM     20  C   UNL     1      -4.362  -9.604  11.436  0.00  0.00    +0.074 C 
ATOM     21  N   UNL     1      -4.206  -9.684  10.630  0.00  0.00    -0.262 NA
ATOM     30  N   UNL     1      -6.285  -9.170  10.634  0.00  0.00    -0.271 NA
ATOM     31  C   UNL     1      -6.738  -9.023  11.309  0.00  0.00    +0.090 C 
ENDROOT
BRANCH  12  11
ATOM     11  C   UNL     1      -7.482  -8.908   9.965  0.00  0.00    +0.027 C 
BRANCH  11  10
ATOM     10  C   UNL     1      -7.837  -8.474   9.360  0.00  0.00    +0.087 C 
BRANCH  10   8
ATOM      1  C   UNL     1      -9.941  -5.585   8.124  0.00  0.00    +0.090 C 
ATOM      2  N   UNL     1      -9.619  -6.280   8.432  0.00  0.00    -0.269 NA
ATOM      3  C   UNL     1      -8.801  -6.390   8.437  0.00  0.00    +0.094 C 
ATOM      4  C   UNL     1      -8.480  -7.084   8.744  0.00  0.00    +0.111 C 
ATOM      5  N   UNL     1      -8.976  -7.670   9.047  0.00  0.00    -0.277 N 
ATOM      6  C   UNL     1      -9.794  -7.560   9.042  0.00  0.00    +0.111 C 
ATOM      7  C   UNL     1     -10.115  -6.866   8.735  0.00  0.00    +0.094 C 
ATOM      8  C   UNL     1      -8.655  -8.364   9.355  0.00  0.00    +0.226 C 
ATOM      9  O   UNL     1      -9.151  -8.950   9.658  0.00  0.00    -0.275 OA
ENDBRANCH  10   8
ENDBRANCH  11  10
ENDBRANCH  12  11
BRANCH  21  22
ATOM     22  C   UNL     1      -3.478  -9.882  10.295  0.00  0.00    +0.100 C 
BRANCH  22  23
ATOM     23  C   UNL     1      -2.804  -9.924  10.768  0.00  0.00    -0.005 A 
ATOM     24  C   UNL     1      -2.722 -10.539  11.313  0.00  0.00    -0.003 A 
ATOM     25  C   UNL     1      -2.048 -10.581  11.787  0.00  0.00    +0.001 A 
ATOM     26  C   UNL     1      -1.457 -10.010  11.716  0.00  0.00    +0.011 A 
ATOM     27  C   UNL     1      -1.539  -9.396  11.172  0.00  0.00    +0.057 A 
ATOM     28 CL   UNL     1      -0.948  -8.825  11.101  0.00  0.00    -0.082 Cl
ATOM     29  C   UNL     1      -2.213  -9.353  10.698  0.00  0.00    +0.008 A 
ENDBRANCH  22  23
ENDBRANCH  21  22
TORSDOF 5
ENDMDL
MODEL 5
REMARK VINA RESULT:      -7.4      2.244      6.533
REMARK  Name = 
REMARK  5 active torsions:
REMARK  status: ('A' for Active; 'I' for Inactive)
REMARK    1  A    between atoms: C_8  and  C_10
REMARK    2  A    between atoms: C_10  and  C_11
REMARK    3  A    between atoms: C_11  and  C_12
REMARK    4  A    between atoms: N_21  and  C_22
REMARK    5  A    between atoms: C_22  and  C_23
REMARK                            x       y       z     vdW  Elec       q    Type
REMARK                         _______ _______ _______ _____ _____    ______ ____
ROOT
ATOM     12  C   UNL     1      -1.550   1.768  24.836  0.00  0.00    +0.080 C 
ATOM     13  C   UNL     1      -1.751   0.969  24.892  0.00  0.00    +0.131 C 
ATOM     14  N   UNL     1      -1.312   0.312  24.657  0.00  0.00    -0.203 NA
ATOM     15  C   UNL     1      -0.565   0.290  24.308  0.00  0.00    +0.257 C 
ATOM     16  O   UNL     1      -0.273  -0.463  24.136  0.00  0.00    -0.272 OA
ATOM     17  C   UNL     1      -0.072   0.919  24.108  0.00  0.00    +0.151 C 
ATOM     18  C   UNL     1      -0.204   1.728  24.207  0.00  0.00    +0.083 C 
ATOM     19  C   UNL     1       0.456   2.131  23.919  0.00  0.00    +0.035 C 
ATOM     20  C   UNL     1       0.996   1.572  23.642  0.00  0.00    +0.074 C 
ATOM     21  N   UNL     1       0.669   0.823  23.758  0.00  0.00    -0.262 NA
ATOM     30  N   UNL     1      -0.862   2.105  24.532  0.00  0.00    -0.271 NA
ATOM     31  C   UNL     1      -0.826   2.930  24.554  0.00  0.00    +0.090 C 
ENDROOT
BRANCH  12  11
ATOM     11  C   UNL     1      -2.112   2.300  25.123  0.00  0.00    +0.027 C 
BRANCH  11  10
ATOM     10  C   UNL     1      -2.916   2.147  25.017  0.00  0.00    +0.087 C 
BRANCH  10   8
ATOM      1  C   UNL     1      -6.692   1.961  25.066  0.00  0.00    +0.090 C 
ATOM      2  N   UNL     1      -5.889   2.138  25.129  0.00  0.00    -0.269 NA
ATOM      3  C   UNL     1      -5.325   1.616  24.827  0.00  0.00    +0.094 C 
ATOM      4  C   UNL     1      -4.523   1.793  24.890  0.00  0.00    +0.111 C 
ATOM      5  N   UNL     1      -4.282   2.492  25.256  0.00  0.00    -0.277 N 
ATOM      6  C   UNL     1      -4.845   3.014  25.558  0.00  0.00    +0.111 C 
ATOM      7  C   UNL     1      -5.647   2.837  25.495  0.00  0.00    +0.094 C 
ATOM      8  C   UNL     1      -3.479   2.669  25.319  0.00  0.00    +0.226 C 
ATOM      9  O   UNL     1      -3.238   3.368  25.685  0.00  0.00    -0.275 OA
ENDBRANCH  10   8
ENDBRANCH  11  10
ENDBRANCH  12  11
BRANCH  21  22
ATOM     22  C   UNL     1       1.023   0.104  23.560  0.00  0.00    +0.100 C 
BRANCH  22  23
ATOM     23  C   UNL     1       1.629   0.083  23.001  0.00  0.00    -0.005 A 
ATOM     24  C   UNL     1       1.471  -0.164  22.230  0.00  0.00    -0.003 A 
ATOM     25  C   UNL     1       2.078  -0.185  21.672  0.00  0.00    +0.001 A 
ATOM     26  C   UNL     1       2.843   0.041  21.884  0.00  0.00    +0.011 A 
ATOM     27  C   UNL     1       3.001   0.288  22.655  0.00  0.00    +0.057 A 
ATOM     28 CL   UNL     1       3.765   0.514  22.868  0.00  0.00    -0.082 Cl
ATOM     29  C   UNL     1       2.394   0.309  23.214  0.00  0.00    +0.008 A 
ENDBRANCH  22  23
ENDBRANCH  21  22
TORSDOF 5
ENDMDL
MODEL 6
REMARK VINA RESULT:      -7.3      2.976      4.587
REMARK  Name = 
REMARK  5 active torsions:
REMARK  status: ('A' for Active; 'I' for Inactive)
REMARK    1  A    between atoms: C_8  and  C_10
REMARK    2  A    between atoms: C_10  and  C_11
REMARK    3  A    between atoms: C_11  and  C_12
REMARK    4  A    between atoms: N_21  and  C_22
REMARK    5  A    between atoms: C_22  and  C_23
REMARK                            x       y       z     vdW  Elec       q    Type
REMARK                         _______ _______ _______ _____ _____    ______ ____
ROOT
ATOM     12  C   UNL     1      -0.586   1.046  25.037  0.00  0.00    +0.080 C 
ATOM     13  C   UNL     1      -0.975   1.019  25.765  0.00  0.00    +0.131 C 
ATOM     14  N   UNL     1      -1.438   0.413  26.079  0.00  0.00    -0.203 NA
ATOM     15  C   UNL     1      -1.628  -0.315  25.743  0.00  0.00    +0.257 C 
ATOM     16  O   UNL     1      -2.108  -0.807  26.200  0.00  0.00    -0.272 OA
ATOM     17  C   UNL     1      -1.401  -0.619  25.010  0.00  0.00    +0.151 C 
ATOM     18  C   UNL     1      -0.929  -0.268  24.432  0.00  0.00    +0.083 C 
ATOM     19  C   UNL     1      -0.866  -0.795  23.800  0.00  0.00    +0.035 C 
ATOM     20  C   UNL     1      -1.299  -1.472  23.988  0.00  0.00    +0.074 C 
ATOM     21  N   UNL     1      -1.630  -1.363  24.735  0.00  0.00    -0.262 NA
ATOM     30  N   UNL     1      -0.566   0.473  24.444  0.00  0.00    -0.271 NA
ATOM     31  C   UNL     1      -0.125   0.666  23.774  0.00  0.00    +0.090 C 
ENDROOT
BRANCH  12  11
ATOM     11  C   UNL     1      -0.163   1.736  24.881  0.00  0.00    +0.027 C 
BRANCH  11  10
ATOM     10  C   UNL     1      -0.427   2.458  25.181  0.00  0.00    +0.087 C 
BRANCH  10   8
ATOM      1  C   UNL     1      -1.961   5.914  25.199  0.00  0.00    +0.090 C 
ATOM      2  N   UNL     1      -1.513   5.226  25.110  0.00  0.00    -0.269 NA
ATOM      3  C   UNL     1      -1.769   4.519  25.450  0.00  0.00    +0.094 C 
ATOM      4  C   UNL     1      -1.322   3.833  25.360  0.00  0.00    +0.111 C 
ATOM      5  N   UNL     1      -0.618   3.852  24.930  0.00  0.00    -0.277 N 
ATOM      6  C   UNL     1      -0.362   4.559  24.590  0.00  0.00    +0.111 C 
ATOM      7  C   UNL     1      -0.809   5.245  24.680  0.00  0.00    +0.094 C 
ATOM      8  C   UNL     1      -0.171   3.165  24.841  0.00  0.00    +0.226 C 
ATOM      9  O   UNL     1       0.534   3.184  24.411  0.00  0.00    -0.275 OA
ENDBRANCH  10   8
ENDBRANCH  11  10
ENDBRANCH  12  11
BRANCH  21  22
ATOM     22  C   UNL     1      -2.107  -1.903  25.138  0.00  0.00    +0.100 C 
BRANCH  22  23
ATOM     23  C   UNL     1      -2.709  -2.300  24.737  0.00  0.00    -0.005 A 
ATOM     24  C   UNL     1      -2.632  -3.105  24.571  0.00  0.00    -0.003 A 
ATOM     25  C   UNL     1      -3.233  -3.502  24.170  0.00  0.00    +0.001 A 
ATOM     26  C   UNL     1      -3.912  -3.096  23.936  0.00  0.00    +0.011 A 
ATOM     27  C   UNL     1      -3.989  -2.291  24.103  0.00  0.00    +0.057 A 
ATOM     28 CL   UNL     1      -4.668  -1.884  23.869  0.00  0.00    -0.082 Cl
ATOM     29  C   UNL     1      -3.387  -1.894  24.503  0.00  0.00    +0.008 A 
ENDBRANCH  22  23
ENDBRANCH  21  22
TORSDOF 5
ENDMDL
MODEL 7
REMARK VINA RESULT:      -7.3     15.342     16.629
REMARK  Name = 
REMARK  5 active torsions:
REMARK  status: ('A' for Active; 'I' for Inactive)
REMARK    1  A    between atoms: C_8  and  C_10
REMARK    2  A    between atoms: C_10  and  C_11
REMARK    3  A    between atoms: C_11  and  C_12
REMARK    4  A    between atoms: N_21  and  C_22
REMARK    5  A    between atoms: C_22  and  C_23
REMARK                            x       y       z     vdW  Elec       q    Type
REMARK                         _______ _______ _______ _____ _____    ______ ____
ROOT
ATOM     12  C   UNL     1      -5.862 -10.101  14.453  0.00  0.00    +0.080 C 
ATOM     13  C   UNL     1      -5.109 -10.378  14.645  0.00  0.00    +0.131 C 
ATOM     14  N   UNL     1      -4.466 -10.510  14.145  0.00  0.00    -0.203 NA
ATOM     15  C   UNL     1      -4.419 -10.399  13.329  0.00  0.00    +0.257 C 
ATOM     16  O   UNL     1      -3.692 -10.583  12.985  0.00  0.00    -0.272 OA
ATOM     17  C   UNL     1      -5.001 -10.128  12.812  0.00  0.00    +0.151 C 
ATOM     18  C   UNL     1      -5.776  -9.901  12.983  0.00  0.00    +0.083 C 
ATOM     19  C   UNL     1      -6.136  -9.673  12.277  0.00  0.00    +0.035 C 
ATOM     20  C   UNL     1      -5.584  -9.759  11.669  0.00  0.00    +0.074 C 
ATOM     21  N   UNL     1      -4.883 -10.040  12.000  0.00  0.00    -0.262 NA
ATOM     30  N   UNL     1      -6.159  -9.889  13.713  0.00  0.00    -0.271 NA
ATOM     31  C   UNL     1      -6.943  -9.631  13.702  0.00  0.00    +0.090 C 
ENDROOT
BRANCH  12  11
ATOM     11  C   UNL     1      -6.389 -10.028  15.084  0.00  0.00    +0.027 C 
BRANCH  11  10
ATOM     10  C   UNL     1      -6.121 -10.126  15.858  0.00  0.00    +0.087 C 
BRANCH  10   8
ATOM      1  C   UNL     1      -5.693 -10.781  19.558  0.00  0.00    +0.090 C 
ATOM      2  N   UNL     1      -5.928 -10.586  18.791  0.00  0.00    -0.269 NA
ATOM      3  C   UNL     1      -5.415 -10.711  18.157  0.00  0.00    +0.094 C 
ATOM      4  C   UNL     1      -5.650 -10.516  17.391  0.00  0.00    +0.111 C 
ATOM      5  N   UNL     1      -6.399 -10.197  17.258  0.00  0.00    -0.277 N 
ATOM      6  C   UNL     1      -6.912 -10.072  17.892  0.00  0.00    +0.111 C 
ATOM      7  C   UNL     1      -6.677 -10.267  18.658  0.00  0.00    +0.094 C 
ATOM      8  C   UNL     1      -6.634 -10.002  16.492  0.00  0.00    +0.226 C 
ATOM      9  O   UNL     1      -7.383  -9.682  16.359  0.00  0.00    -0.275 OA
ENDBRANCH  10   8
ENDBRANCH  11  10
ENDBRANCH  12  11
BRANCH  21  22
ATOM     22  C   UNL     1      -4.186 -10.204  11.591  0.00  0.00    +0.100 C 
BRANCH  22  23
ATOM     23  C   UNL     1      -4.098  -9.956  10.809  0.00  0.00    -0.005 A 
ATOM     24  C   UNL     1      -3.841  -9.189  10.646  0.00  0.00    -0.003 A 
ATOM     25  C   UNL     1      -3.754  -8.941   9.864  0.00  0.00    +0.001 A 
ATOM     26  C   UNL     1      -3.924  -9.459   9.245  0.00  0.00    +0.011 A 
ATOM     27  C   UNL     1      -4.181 -10.226   9.408  0.00  0.00    +0.057 A 
ATOM     28 CL   UNL     1      -4.351 -10.744   8.789  0.00  0.00    -0.082 Cl
ATOM     29  C   UNL     1      -4.268 -10.474  10.190  0.00  0.00    +0.008 A 
ENDBRANCH  22  23
ENDBRANCH  21  22
TORSDOF 5
ENDMDL
MODEL 8
REMARK VINA RESULT:      -7.3      2.047      2.886
REMARK  Name = 
REMARK  5 active torsions:
REMARK  status: ('A' for Active; 'I' for Inactive)
REMARK    1  A    between atoms: C_8  and  C_10
REMARK    2  A    between atoms: C_10  and  C_11
REMARK    3  A    between atoms: C_11  and  C_12
REMARK    4  A    between atoms: N_21  and  C_22
REMARK    5  A    between atoms: C_22  and  C_23
REMARK                            x       y       z     vdW  Elec       q    Type
REMARK                         _______ _______ _______ _____ _____    ______ ____
ROOT
ATOM     12  C   UNL     1       0.997   0.412  23.489  0.00  0.00    +0.080 C 
ATOM     13  C   UNL     1       0.954  -0.361  23.200  0.00  0.00    +0.131 C 
ATOM     14  N   UNL     1       0.352  -0.915  23.302  0.00  0.00    -0.203 NA
ATOM     15  C   UNL     1      -0.356  -0.834  23.716  0.00  0.00    +0.257 C 
ATOM     16  O   UNL     1      -0.849  -1.497  23.715  0.00  0.00    -0.272 OA
ATOM     17  C   UNL     1      -0.638  -0.180  24.132  0.00  0.00    +0.151 C 
ATOM     18  C   UNL     1      -0.280   0.556  24.236  0.00  0.00    +0.083 C 
ATOM     19  C   UNL     1      -0.784   1.022  24.695  0.00  0.00    +0.035 C 
ATOM     20  C   UNL     1      -1.453   0.573  24.875  0.00  0.00    +0.074 C 
ATOM     21  N   UNL     1      -1.362  -0.170  24.527  0.00  0.00    -0.262 NA
ATOM     30  N   UNL     1       0.447   0.819  23.949  0.00  0.00    -0.271 NA
ATOM     31  C   UNL     1       0.652   1.593  24.151  0.00  0.00    +0.090 C 
ENDROOT
BRANCH  12  11
ATOM     11  C   UNL     1       1.679   0.832  23.290  0.00  0.00    +0.027 C 
BRANCH  11  10
ATOM     10  C   UNL     1       2.379   0.427  23.125  0.00  0.00    +0.087 C 
BRANCH  10   8
ATOM      1  C   UNL     1       5.981  -0.606  23.631  0.00  0.00    +0.090 C 
ATOM      2  N   UNL     1       5.256  -0.243  23.477  0.00  0.00    -0.269 NA
ATOM      3  C   UNL     1       4.553  -0.661  23.587  0.00  0.00    +0.094 C 
ATOM      4  C   UNL     1       3.829  -0.299  23.433  0.00  0.00    +0.111 C 
ATOM      5  N   UNL     1       3.806   0.483  23.169  0.00  0.00    -0.277 N 
ATOM      6  C   UNL     1       4.508   0.901  23.059  0.00  0.00    +0.111 C 
ATOM      7  C   UNL     1       5.233   0.539  23.213  0.00  0.00    +0.094 C 
ATOM      8  C   UNL     1       3.081   0.845  23.015  0.00  0.00    +0.226 C 
ATOM      9  O   UNL     1       3.058   1.627  22.751  0.00  0.00    -0.275 OA
ENDBRANCH  10   8
ENDBRANCH  11  10
ENDBRANCH  12  11
BRANCH  21  22
ATOM     22  C   UNL     1      -1.902  -0.793  24.567  0.00  0.00    +0.100 C 
BRANCH  22  23
ATOM     23  C   UNL     1      -2.655  -0.666  24.879  0.00  0.00    -0.005 A 
ATOM     24  C   UNL     1      -2.818  -0.873  25.661  0.00  0.00    -0.003 A 
ATOM     25  C   UNL     1      -3.571  -0.746  25.973  0.00  0.00    +0.001 A 
ATOM     26  C   UNL     1      -4.162  -0.413  25.503  0.00  0.00    +0.011 A 
ATOM     27  C   UNL     1      -3.999  -0.206  24.720  0.00  0.00    +0.057 A 
ATOM     28 CL   UNL     1      -4.590   0.127  24.251  0.00  0.00    -0.082 Cl
ATOM     29  C   UNL     1      -3.246  -0.333  24.409  0.00  0.00    +0.008 A 
ENDBRANCH  22  23
ENDBRANCH  21  22
TORSDOF 5
ENDMDL
MODEL 9
REMARK VINA RESULT:      -7.2      3.550      4.896
REMARK  Name = 
REMARK  5 active torsions:
REMARK  status: ('A' for Active; 'I' for Inactive)
REMARK    1  A    between atoms: C_8  and  C_10
REMARK    2  A    between atoms: C_10  and  C_11
REMARK    3  A    between atoms: C_11  and  C_12
REMARK    4  A    between atoms: N_21  and  C_22
REMARK    5  A    between atoms: C_22  and  C_23
REMARK                            x       y       z     vdW  Elec       q    Type
REMARK                         _______ _______ _______ _____ _____    ______ ____
ROOT
ATOM     12  C   UNL     1      -3.751   2.101  24.526  0.00  0.00    +0.080 C 
ATOM     13  C   UNL     1      -3.374   2.036  23.794  0.00  0.00    +0.131 C 
ATOM     14  N   UNL     1      -3.254   1.361  23.336  0.00  0.00    -0.203 NA
ATOM     15  C   UNL     1      -3.481   0.584  23.497  0.00  0.00    +0.257 C 
ATOM     16  O   UNL     1      -3.277   0.026  22.923  0.00  0.00    -0.272 OA
ATOM     17  C   UNL     1      -3.883   0.290  24.154  0.00  0.00    +0.151 C 
ATOM     18  C   UNL     1      -4.159   0.702  24.814  0.00  0.00    +0.083 C 
ATOM     19  C   UNL     1      -4.526   0.160  25.317  0.00  0.00    +0.035 C 
ATOM     20  C   UNL     1      -4.476  -0.587  24.967  0.00  0.00    +0.074 C 
ATOM     21  N   UNL     1      -4.079  -0.506  24.249  0.00  0.00    -0.262 NA
ATOM     30  N   UNL     1      -4.100   1.507  24.979  0.00  0.00    -0.271 NA
ATOM     31  C   UNL     1      -4.435   1.752  25.693  0.00  0.00    +0.090 C 
ENDROOT
BRANCH  12  11
ATOM     11  C   UNL     1      -3.783   2.861  24.846  0.00  0.00    +0.027 C 
BRANCH  11  10
ATOM     10  C   UNL     1      -3.091   3.228  25.105  0.00  0.00    +0.087 C 
BRANCH  10   8
ATOM      1  C   UNL     1      -0.143   5.587  24.891  0.00  0.00    +0.090 C 
ATOM      2  N   UNL     1      -0.871   5.203  24.956  0.00  0.00    -0.269 NA
ATOM      3  C   UNL     1      -0.909   4.380  24.910  0.00  0.00    +0.094 C 
ATOM      4  C   UNL     1      -1.636   3.997  24.975  0.00  0.00    +0.111 C 
ATOM      5  N   UNL     1      -2.326   4.435  25.087  0.00  0.00    -0.277 N 
ATOM      6  C   UNL     1      -2.288   5.258  25.133  0.00  0.00    +0.111 C 
ATOM      7  C   UNL     1      -1.561   5.642  25.068  0.00  0.00    +0.094 C 
ATOM      8  C   UNL     1      -3.052   4.052  25.152  0.00  0.00    +0.226 C 
ATOM      9  O   UNL     1      -3.743   4.490  25.263  0.00  0.00    -0.275 OA
ENDBRANCH  10   8
ENDBRANCH  11  10
ENDBRANCH  12  11
BRANCH  21  22
ATOM     22  C   UNL     1      -3.908  -1.114  23.718  0.00  0.00    +0.100 C 
BRANCH  22  23
ATOM     23  C   UNL     1      -3.684  -1.856  24.000  0.00  0.00    -0.005 A 
ATOM     24  C   UNL     1      -4.235  -2.471  24.027  0.00  0.00    -0.003 A 
ATOM     25  C   UNL     1      -4.011  -3.213  24.309  0.00  0.00    +0.001 A 
ATOM     26  C   UNL     1      -3.238  -3.341  24.565  0.00  0.00    +0.011 A 
ATOM     27  C   UNL     1      -2.687  -2.727  24.539  0.00  0.00    +0.057 A 
ATOM     28 CL   UNL     1      -1.913  -2.855  24.795  0.00  0.00    -0.082 Cl
ATOM     29  C   UNL     1      -2.911  -1.985  24.257  0.00  0.00    +0.008 A 
ENDBRANCH  22  23
ENDBRANCH  21  22
TORSDOF 5
ENDMDL
MODEL 10
REMARK VINA RESULT:      -7.1      2.295      6.422
REMARK  Name = 
REMARK  5 active torsions:
REMARK  status: ('A' for Active; 'I' for Inactive)
REMARK    1  A    between atoms: C_8  and  C_10
REMARK    2  A    between atoms: C_10  and  C_11
REMARK    3  A    between atoms: C_11  and  C_12
REMARK    4  A    between atoms: N_21  and  C_22
REMARK    5  A    between atoms: C_22  and  C_23
REMARK                            x       y       z     vdW  Elec       q    Type
REMARK                         _______ _______ _______ _____ _____    ______ ____
ROOT
ATOM     12  C   UNL     1      -1.806   0.848  24.529  0.00  0.00    +0.080 C 
ATOM     13  C   UNL     1      -1.603   1.648  24.533  0.00  0.00    +0.131 C 
ATOM     14  N   UNL     1      -0.883   1.997  24.334  0.00  0.00    -0.203 NA
ATOM     15  C   UNL     1      -0.187   1.633  24.082  0.00  0.00    +0.257 C 
ATOM     16  O   UNL     1       0.446   2.139  23.924  0.00  0.00    -0.272 OA
ATOM     17  C   UNL     1      -0.039   0.830  23.967  0.00  0.00    +0.151 C 
ATOM     18  C   UNL     1      -0.552   0.192  24.075  0.00  0.00    +0.083 C 
ATOM     19  C   UNL     1      -0.142  -0.499  23.887  0.00  0.00    +0.035 C 
ATOM     20  C   UNL     1       0.624  -0.288  23.662  0.00  0.00    +0.074 C 
ATOM     21  N   UNL     1       0.687   0.533  23.711  0.00  0.00    -0.262 NA
ATOM     30  N   UNL     1      -1.337   0.201  24.325  0.00  0.00    -0.271 NA
ATOM     31  C   UNL     1      -1.704  -0.537  24.379  0.00  0.00    +0.090 C 
ENDROOT
BRANCH  12  11
ATOM     11  C   UNL     1      -2.578   0.673  24.759  0.00  0.00    +0.027 C 
BRANCH  11  10
ATOM     10  C   UNL     1      -3.134   1.279  24.833  0.00  0.00    +0.087 C 
BRANCH  10   8
ATOM      1  C   UNL     1      -6.074   3.522  25.621  0.00  0.00    +0.090 C 
ATOM      2  N   UNL     1      -5.536   2.916  25.466  0.00  0.00    -0.269 NA
ATOM      3  C   UNL     1      -4.748   3.096  25.298  0.00  0.00    +0.094 C 
ATOM      4  C   UNL     1      -4.210   2.491  25.143  0.00  0.00    +0.111 C 
ATOM      5  N   UNL     1      -4.459   1.704  25.155  0.00  0.00    -0.277 N 
ATOM      6  C   UNL     1      -5.247   1.524  25.323  0.00  0.00    +0.111 C 
ATOM      7  C   UNL     1      -5.784   2.129  25.478  0.00  0.00    +0.094 C 
ATOM      8  C   UNL     1      -3.922   1.099  25.001  0.00  0.00    +0.226 C 
ATOM      9  O   UNL     1      -4.170   0.312  25.013  0.00  0.00    -0.275 OA
ENDBRANCH  10   8
ENDBRANCH  11  10
ENDBRANCH  12  11
BRANCH  21  22
ATOM     22  C   UNL     1       1.359   0.979  23.536  0.00  0.00    +0.100 C 
BRANCH  22  23
ATOM     23  C   UNL     1       1.956   0.657  23.067  0.00  0.00    -0.005 A 
ATOM     24  C   UNL     1       1.761   0.192  22.414  0.00  0.00    -0.003 A 
ATOM     25  C   UNL     1       2.359  -0.130  21.944  0.00  0.00    +0.001 A 
ATOM     26  C   UNL     1       3.150   0.014  22.127  0.00  0.00    +0.011 A 
ATOM     27  C   UNL     1       3.345   0.479  22.780  0.00  0.00    +0.057 A 
ATOM     28 CL   UNL     1       4.136   0.623  22.963  0.00  0.00    -0.082 Cl
ATOM     29  C   UNL     1       2.748   0.801  23.250  0.00  0.00    +0.008 A 
ENDBRANCH  22  23
ENDBRANCH  21  22
TORSDOF 5
ENDMDL
