MODEL 1
REMARK VINA RESULT:     -12.8      0.000      0.000
REMARK  Name = 
REMARK  4 active torsions:
REMARK  status: ('A' for Active; 'I' for Inactive)
REMARK    1  A    between atoms: C_4  and  C_13
REMARK    2  A    between atoms: N_5  and  C_7
REMARK    3  A    between atoms: C_15  and  C_18
REMARK    4  A    between atoms: C_21  and  C_24
REMARK                            x       y       z     vdW  Elec       q    Type
REMARK                         _______ _______ _______ _____ _____    ______ ____
ROOT
ATOM     13  C   UNL     1      -3.611   1.773  24.376  0.00  0.00    +0.251 A 
ATOM     14  N   UNL     1      -3.707   1.037  24.735  0.00  0.00    -0.190 NA
ATOM     15  C   UNL     1      -3.519   0.456  24.180  0.00  0.00    +0.203 A 
ATOM     16  N   UNL     1      -3.306   0.833  23.478  0.00  0.00    -0.056 NA
ATOM     17  O   UNL     1      -3.363   1.647  23.599  0.00  0.00    -0.336 OA
ENDROOT
BRANCH  13   4
ATOM      1  O   UNL     1      -4.927   4.120  25.467  0.00  0.00    -0.222 OA
ATOM      2  C   UNL     1      -4.344   3.585  25.232  0.00  0.00    +0.170 C 
ATOM      3  C   UNL     1      -4.474   2.857  24.867  0.00  0.00    +0.060 C 
ATOM      4  C   UNL     1      -3.739   2.506  24.731  0.00  0.00    +0.140 C 
ATOM      5  N   UNL     1      -3.156   3.018  25.011  0.00  0.00    -0.265 NA
ATOM      6  C   UNL     1      -3.531   3.685  25.321  0.00  0.00    +0.106 C 
BRANCH   5   7
ATOM      7  C   UNL     1      -2.343   2.887  24.986  0.00  0.00    +0.063 C 
ATOM      8  C   UNL     1      -1.961   2.540  25.631  0.00  0.00    +0.048 C 
ATOM      9  C   UNL     1      -1.147   2.408  25.606  0.00  0.00    +0.144 C 
ATOM     10  O   UNL     1      -0.714   2.624  24.937  0.00  0.00    -0.354 OA
ATOM     11  C   UNL     1      -1.095   2.972  24.294  0.00  0.00    +0.144 C 
ATOM     12  C   UNL     1      -1.910   3.103  24.318  0.00  0.00    +0.048 C 
ENDBRANCH   5   7
ENDBRANCH  13   4
BRANCH  15  18
ATOM     18  C   UNL     1      -3.540  -0.360  24.305  0.00  0.00    +0.039 A 
ATOM     19  C   UNL     1      -4.201  -0.796  24.073  0.00  0.00    +0.003 A 
ATOM     20  C   UNL     1      -4.221  -1.611  24.198  0.00  0.00    +0.004 A 
ATOM     21  C   UNL     1      -3.582  -1.990  24.556  0.00  0.00    +0.071 A 
ATOM     22  C   UNL     1      -2.921  -1.554  24.788  0.00  0.00    +0.004 A 
ATOM     23  C   UNL     1      -2.900  -0.738  24.663  0.00  0.00    +0.003 A 
BRANCH  21  24
ATOM     24  C   UNL     1      -3.603  -2.805  24.681  0.00  0.00    +0.419 C 
ATOM     25  F   UNL     1      -3.623  -3.620  24.806  0.00  0.00    -0.166 F 
ATOM     26  F   UNL     1      -3.636  -2.680  25.495  0.00  0.00    -0.166 F 
ATOM     27  F   UNL     1      -3.569  -2.931  23.866  0.00  0.00    -0.166 F 
ENDBRANCH  21  24
ENDBRANCH  15  18
TORSDOF 4
ENDMDL
MODEL 2
REMARK VINA RESULT:     -12.4      0.729      1.962
REMARK  Name = 
REMARK  4 active torsions:
REMARK  status: ('A' for Active; 'I' for Inactive)
REMARK    1  A    between atoms: C_4  and  C_13
REMARK    2  A    between atoms: N_5  and  C_7
REMARK    3  A    between atoms: C_15  and  C_18
REMARK    4  A    between atoms: C_21  and  C_24
REMARK                            x       y       z     vdW  Elec       q    Type
REMARK                         _______ _______ _______ _____ _____    ______ ____
ROOT
ATOM     13  C   UNL     1      -2.488   2.007  24.398  0.00  0.00    +0.251 A 
ATOM     14  N   UNL     1      -2.577   1.278  24.774  0.00  0.00    -0.190 NA
ATOM     15  C   UNL     1      -2.907   0.750  24.232  0.00  0.00    +0.203 A 
ATOM     16  N   UNL     1      -3.022   1.152  23.522  0.00  0.00    -0.056 NA
ATOM     17  O   UNL     1      -2.763   1.929  23.623  0.00  0.00    -0.336 OA
ENDROOT
BRANCH  13   4
ATOM      1  O   UNL     1      -0.621   4.004  25.376  0.00  0.00    -0.222 OA
ATOM      2  C   UNL     1      -1.321   3.611  25.185  0.00  0.00    +0.170 C 
ATOM      3  C   UNL     1      -1.378   2.873  24.820  0.00  0.00    +0.060 C 
ATOM      4  C   UNL     1      -2.179   2.693  24.736  0.00  0.00    +0.140 C 
ATOM      5  N   UNL     1      -2.616   3.319  25.048  0.00  0.00    -0.265 NA
ATOM      6  C   UNL     1      -2.085   3.887  25.326  0.00  0.00    +0.106 C 
BRANCH   5   7
ATOM      7  C   UNL     1      -3.438   3.370  25.078  0.00  0.00    +0.063 C 
ATOM      8  C   UNL     1      -3.843   3.114  25.750  0.00  0.00    +0.048 C 
ATOM      9  C   UNL     1      -4.666   3.164  25.780  0.00  0.00    +0.144 C 
ATOM     10  O   UNL     1      -5.084   3.471  25.138  0.00  0.00    -0.354 OA
ATOM     11  C   UNL     1      -4.680   3.726  24.466  0.00  0.00    +0.144 C 
ATOM     12  C   UNL     1      -3.856   3.676  24.436  0.00  0.00    +0.048 C 
ENDBRANCH   5   7
ENDBRANCH  13   4
BRANCH  15  18
ATOM     18  C   UNL     1      -3.090  -0.042  24.377  0.00  0.00    +0.039 A 
ATOM     19  C   UNL     1      -3.857  -0.317  24.253  0.00  0.00    +0.003 A 
ATOM     20  C   UNL     1      -4.040  -1.108  24.397  0.00  0.00    +0.004 A 
ATOM     21  C   UNL     1      -3.455  -1.624  24.666  0.00  0.00    +0.071 A 
ATOM     22  C   UNL     1      -2.687  -1.349  24.790  0.00  0.00    +0.004 A 
ATOM     23  C   UNL     1      -2.504  -0.557  24.645  0.00  0.00    +0.003 A 
BRANCH  21  24
ATOM     24  C   UNL     1      -3.637  -2.415  24.810  0.00  0.00    +0.419 C 
ATOM     25  F   UNL     1      -3.820  -3.207  24.954  0.00  0.00    -0.166 F 
ATOM     26  F   UNL     1      -3.632  -2.270  25.621  0.00  0.00    -0.166 F 
ATOM     27  F   UNL     1      -3.643  -2.562  23.998  0.00  0.00    -0.166 F 
ENDBRANCH  21  24
ENDBRANCH  15  18
TORSDOF 4
ENDMDL
MODEL 3
REMARK VINA RESULT:     -12.3      2.812      4.607
REMARK  Name = 
REMARK  4 active torsions:
REMARK  status: ('A' for Active; 'I' for Inactive)
REMARK    1  A    between atoms: C_4  and  C_13
REMARK    2  A    between atoms: N_5  and  C_7
REMARK    3  A    between atoms: C_15  and  C_18
REMARK    4  A    between atoms: C_21  and  C_24
REMARK                            x       y       z     vdW  Elec       q    Type
REMARK                         _______ _______ _______ _____ _____    ______ ____
ROOT
ATOM     13  C   UNL     1      -3.550  -0.394  24.210  0.00  0.00    +0.251 A 
ATOM     14  N   UNL     1      -3.984   0.115  24.692  0.00  0.00    -0.190 NA
ATOM     15  C   UNL     1      -3.966   0.866  24.352  0.00  0.00    +0.203 A 
ATOM     16  N   UNL     1      -3.520   0.822  23.660  0.00  0.00    -0.056 NA
ATOM     17  O   UNL     1      -3.262   0.043  23.572  0.00  0.00    -0.336 OA
ENDROOT
BRANCH  13   4
ATOM      1  O   UNL     1      -3.935  -3.270  24.306  0.00  0.00    -0.222 OA
ATOM      2  C   UNL     1      -3.601  -2.521  24.387  0.00  0.00    +0.170 C 
ATOM      3  C   UNL     1      -3.950  -1.808  24.162  0.00  0.00    +0.060 C 
ATOM      4  C   UNL     1      -3.424  -1.199  24.343  0.00  0.00    +0.140 C 
ATOM      5  N   UNL     1      -2.750  -1.535  24.679  0.00  0.00    -0.265 NA
ATOM      6  C   UNL     1      -2.860  -2.353  24.706  0.00  0.00    +0.106 C 
BRANCH   5   7
ATOM      7  C   UNL     1      -2.083  -1.127  24.942  0.00  0.00    +0.063 C 
ATOM      8  C   UNL     1      -1.457  -0.984  24.424  0.00  0.00    +0.048 C 
ATOM      9  C   UNL     1      -0.789  -0.575  24.687  0.00  0.00    +0.144 C 
ATOM     10  O   UNL     1      -0.749  -0.310  25.468  0.00  0.00    -0.354 OA
ATOM     11  C   UNL     1      -1.375  -0.454  25.984  0.00  0.00    +0.144 C 
ATOM     12  C   UNL     1      -2.043  -0.862  25.722  0.00  0.00    +0.048 C 
ENDBRANCH   5   7
ENDBRANCH  13   4
BRANCH  15  18
ATOM     18  C   UNL     1      -4.330   1.544  24.652  0.00  0.00    +0.039 A 
ATOM     19  C   UNL     1      -5.148   1.559  24.758  0.00  0.00    +0.003 A 
ATOM     20  C   UNL     1      -5.511   2.236  25.058  0.00  0.00    +0.004 A 
ATOM     21  C   UNL     1      -5.058   2.898  25.251  0.00  0.00    +0.071 A 
ATOM     22  C   UNL     1      -4.240   2.882  25.145  0.00  0.00    +0.004 A 
ATOM     23  C   UNL     1      -3.876   2.204  24.845  0.00  0.00    +0.003 A 
BRANCH  21  24
ATOM     24  C   UNL     1      -5.421   3.574  25.551  0.00  0.00    +0.419 C 
ATOM     25  F   UNL     1      -5.785   4.252  25.851  0.00  0.00    -0.166 F 
ATOM     26  F   UNL     1      -5.058   4.029  24.967  0.00  0.00    -0.166 F 
ATOM     27  F   UNL     1      -5.785   3.120  26.136  0.00  0.00    -0.166 F 
ENDBRANCH  21  24
ENDBRANCH  15  18
TORSDOF 4
ENDMDL
MODEL 4
REMARK VINA RESULT:     -11.9      3.258      5.309
REMARK  Name = 
REMARK  4 active torsions:
REMARK  status: ('A' for Active; 'I' for Inactive)
REMARK    1  A    between atoms: C_4  and  C_13
REMARK    2  A    between atoms: N_5  and  C_7
REMARK    3  A    between atoms: C_15  and  C_18
REMARK    4  A    between atoms: C_21  and  C_24
REMARK                            x       y       z     vdW  Elec       q    Type
REMARK                         _______ _______ _______ _____ _____    ______ ____
ROOT
ATOM     13  C   UNL     1      -1.479   0.565  24.481  0.00  0.00    +0.251 A 
ATOM     14  N   UNL     1      -1.425   1.260  24.922  0.00  0.00    -0.190 NA
ATOM     15  C   UNL     1      -1.531   1.897  24.408  0.00  0.00    +0.203 A 
ATOM     16  N   UNL     1      -1.650   1.596  23.650  0.00  0.00    -0.056 NA
ATOM     17  O   UNL     1      -1.618   0.772  23.695  0.00  0.00    -0.336 OA
ENDROOT
BRANCH  13   4
ATOM      1  O   UNL     1      -0.343  -1.913  25.481  0.00  0.00    -0.222 OA
ATOM      2  C   UNL     1      -0.885  -1.341  25.234  0.00  0.00    +0.170 C 
ATOM      3  C   UNL     1      -0.699  -0.585  24.960  0.00  0.00    +0.060 C 
ATOM      4  C   UNL     1      -1.406  -0.202  24.775  0.00  0.00    +0.140 C 
ATOM      5  N   UNL     1      -2.027  -0.721  24.935  0.00  0.00    -0.265 NA
ATOM      6  C   UNL     1      -1.704  -1.425  25.219  0.00  0.00    +0.106 C 
BRANCH   5   7
ATOM      7  C   UNL     1      -2.830  -0.564  24.829  0.00  0.00    +0.063 C 
ATOM      8  C   UNL     1      -3.276  -0.260  25.454  0.00  0.00    +0.048 C 
ATOM      9  C   UNL     1      -4.080  -0.103  25.349  0.00  0.00    +0.144 C 
ATOM     10  O   UNL     1      -4.436  -0.250  24.619  0.00  0.00    -0.354 OA
ATOM     11  C   UNL     1      -3.990  -0.553  23.995  0.00  0.00    +0.144 C 
ATOM     12  C   UNL     1      -3.187  -0.711  24.100  0.00  0.00    +0.048 C 
ENDBRANCH   5   7
ENDBRANCH  13   4
BRANCH  15  18
ATOM     18  C   UNL     1      -1.520   2.696  24.616  0.00  0.00    +0.039 A 
ATOM     19  C   UNL     1      -2.228   3.107  24.715  0.00  0.00    +0.003 A 
ATOM     20  C   UNL     1      -2.217   3.904  24.922  0.00  0.00    +0.004 A 
ATOM     21  C   UNL     1      -1.497   4.292  25.032  0.00  0.00    +0.071 A 
ATOM     22  C   UNL     1      -0.788   3.882  24.934  0.00  0.00    +0.004 A 
ATOM     23  C   UNL     1      -0.800   3.083  24.726  0.00  0.00    +0.003 A 
BRANCH  21  24
ATOM     24  C   UNL     1      -1.485   5.090  25.240  0.00  0.00    +0.419 C 
ATOM     25  F   UNL     1      -1.473   5.889  25.448  0.00  0.00    -0.166 F 
ATOM     26  F   UNL     1      -2.104   4.962  25.769  0.00  0.00    -0.166 F 
ATOM     27  F   UNL     1      -0.865   5.219  24.711  0.00  0.00    -0.166 F 
ENDBRANCH  21  24
ENDBRANCH  15  18
TORSDOF 4
ENDMDL
