MODEL 1
REMARK VINA RESULT:     -16.8      0.000      0.000
REMARK  Name = 
REMARK  3 active torsions:
REMARK  status: ('A' for Active; 'I' for Inactive)
REMARK    1  A    between atoms: C_4  and  C_5
REMARK    2  A    between atoms: C_5  and  N_6
REMARK    3  A    between atoms: C_15  and  C_16
REMARK                            x       y       z     vdW  Elec       q    Type
REMARK                         _______ _______ _______ _____ _____    ______ ____
ROOT
ATOM      6  N   UNL     1      -3.473   2.873  25.016  0.00  0.00    -0.269 NA
ATOM      7  C   UNL     1      -3.602   3.694  25.105  0.00  0.00    +0.074 C 
ATOM      8  C   UNL     1      -4.571   3.689  25.299  0.00  0.00    +0.039 C 
ATOM      9  C   UNL     1      -5.351   3.853  25.469  0.00  0.00    +0.011 C 
ATOM     10  C   UNL     1      -4.955   3.287  25.346  0.00  0.00    +0.054 C 
ATOM     11  C   UNL     1      -4.019   3.308  25.159  0.00  0.00    +0.078 C 
ATOM     12  C   UNL     1      -5.006   2.371  25.286  0.00  0.00    +0.041 A 
ATOM     13  C   UNL     1      -5.550   1.755  25.348  0.00  0.00    +0.013 A 
ATOM     14  C   UNL     1      -5.304   0.975  25.239  0.00  0.00    +0.006 A 
ATOM     15  C   UNL     1      -4.514   0.812  25.068  0.00  0.00    +0.062 A 
ATOM     25  C   UNL     1      -3.969   1.428  25.005  0.00  0.00    +0.261 A 
ATOM     26  O   UNL     1      -3.179   1.265  24.834  0.00  0.00    -0.267 OA
ATOM     27  N   UNL     1      -4.215   2.208  25.114  0.00  0.00    -0.299 N 
ATOM     28  C   UNL     1      -4.615   2.732  25.235  0.00  0.00    +0.110 C 
ENDROOT
BRANCH  15  16
ATOM     16  C   UNL     1      -4.268   0.032  24.959  0.00  0.00    +0.034 A 
ATOM     17  C   UNL     1      -3.901  -0.445  25.523  0.00  0.00    +0.007 A 
ATOM     18  C   UNL     1      -3.753  -1.180  25.179  0.00  0.00    +0.006 A 
ATOM     19  C   UNL     1      -4.029  -1.157  24.400  0.00  0.00    +0.029 A 
ATOM     20  S   UNL     1      -4.347  -0.409  24.265  0.00  0.00    -0.087 S 
ATOM     21  C   UNL     1      -3.954  -1.822  23.917  0.00  0.00    +0.006 A 
ATOM     22  C   UNL     1      -3.605  -2.508  24.211  0.00  0.00    +0.001 A 
ATOM     23  C   UNL     1      -3.329  -2.531  24.988  0.00  0.00    +0.000 A 
ATOM     24  C   UNL     1      -3.403  -1.867  25.471  0.00  0.00    +0.001 A 
ENDBRANCH  15  16
BRANCH   6   5
ATOM      5  C   UNL     1      -3.066   2.168  24.880  0.00  0.00    +0.101 C 
BRANCH   5   4
ATOM      1  C   UNL     1      -0.873   2.254  22.977  0.00  0.00    +0.130 C 
ATOM      2  N   UNL     1      -1.299   2.225  23.684  0.00  0.00    -0.324 N 
ATOM      3  C   UNL     1      -2.121   2.215  23.755  0.00  0.00    +0.073 A 
ATOM      4  C   UNL     1      -2.307   2.186  24.558  0.00  0.00    +0.012 A 
ATOM     29  C   UNL     1      -1.599   2.178  24.983  0.00  0.00    +0.015 A 
ATOM     30  C   UNL     1      -0.977   2.203  24.442  0.00  0.00    +0.060 A 
ATOM     31  C   UNL     1      -0.197   2.201  24.711  0.00  0.00    +0.017 A 
ATOM     32  C   UNL     1      -0.040   2.175  25.520  0.00  0.00    +0.001 A 
ATOM     33  C   UNL     1      -0.662   2.151  26.061  0.00  0.00    +0.000 A 
ATOM     34  C   UNL     1      -1.442   2.152  25.793  0.00  0.00    +0.001 A 
ENDBRANCH   5   4
ENDBRANCH   6   5
TORSDOF 3
ENDMDL
MODEL 2
REMARK VINA RESULT:     -15.2      1.057      3.560
REMARK  Name = 
REMARK  3 active torsions:
REMARK  status: ('A' for Active; 'I' for Inactive)
REMARK    1  A    between atoms: C_4  and  C_5
REMARK    2  A    between atoms: C_5  and  N_6
REMARK    3  A    between atoms: C_15  and  C_16
REMARK                            x       y       z     vdW  Elec       q    Type
REMARK                         _______ _______ _______ _____ _____    ______ ____
ROOT
ATOM      6  N   UNL     1      -4.865   1.122  25.038  0.00  0.00    -0.269 NA
ATOM      7  C   UNL     1      -5.695   1.126  25.130  0.00  0.00    +0.074 C 
ATOM      8  C   UNL     1      -5.843   2.094  25.257  0.00  0.00    +0.039 C 
ATOM      9  C   UNL     1      -6.128   2.848  25.374  0.00  0.00    +0.011 C 
ATOM     10  C   UNL     1      -5.507   2.539  25.270  0.00  0.00    +0.054 C 
ATOM     11  C   UNL     1      -5.381   1.600  25.149  0.00  0.00    +0.078 C 
ATOM     12  C   UNL     1      -4.611   2.729  25.193  0.00  0.00    +0.041 A 
ATOM     13  C   UNL     1      -4.088   3.367  25.207  0.00  0.00    +0.013 A 
ATOM     14  C   UNL     1      -3.280   3.240  25.103  0.00  0.00    +0.006 A 
ATOM     15  C   UNL     1      -2.994   2.475  24.985  0.00  0.00    +0.062 A 
ATOM     25  C   UNL     1      -3.517   1.837  24.970  0.00  0.00    +0.261 A 
ATOM     26  O   UNL     1      -3.232   1.072  24.852  0.00  0.00    -0.267 OA
ATOM     27  N   UNL     1      -4.326   1.964  25.074  0.00  0.00    -0.299 N 
ATOM     28  C   UNL     1      -4.905   2.284  25.174  0.00  0.00    +0.110 C 
ENDROOT
BRANCH  15  16
ATOM     16  C   UNL     1      -2.186   2.348  24.881  0.00  0.00    +0.034 A 
ATOM     17  C   UNL     1      -1.636   2.210  25.479  0.00  0.00    +0.007 A 
ATOM     18  C   UNL     1      -0.896   2.114  25.128  0.00  0.00    +0.006 A 
ATOM     19  C   UNL     1      -0.989   2.193  24.311  0.00  0.00    +0.029 A 
ATOM     20  S   UNL     1      -1.786   2.338  24.160  0.00  0.00    -0.087 S 
ATOM     21  C   UNL     1      -0.334   2.123  23.813  0.00  0.00    +0.006 A 
ATOM     22  C   UNL     1       0.412   1.974  24.131  0.00  0.00    +0.001 A 
ATOM     23  C   UNL     1       0.505   1.895  24.947  0.00  0.00    +0.000 A 
ATOM     24  C   UNL     1      -0.148   1.965  25.445  0.00  0.00    +0.001 A 
ENDBRANCH  15  16
BRANCH   6   5
ATOM      5  C   UNL     1      -4.105   0.822  24.920  0.00  0.00    +0.101 C 
BRANCH   5   4
ATOM      1  C   UNL     1      -4.024  -1.569  23.272  0.00  0.00    +0.130 C 
ATOM      2  N   UNL     1      -3.966  -1.058  23.918  0.00  0.00    -0.324 N 
ATOM      3  C   UNL     1      -4.137  -0.251  23.915  0.00  0.00    +0.073 A 
ATOM      4  C   UNL     1      -4.004   0.041  24.675  0.00  0.00    +0.012 A 
ATOM     29  C   UNL     1      -3.752  -0.588  25.148  0.00  0.00    +0.015 A 
ATOM     30  C   UNL     1      -3.729  -1.266  24.680  0.00  0.00    +0.060 A 
ATOM     31  C   UNL     1      -3.494  -1.986  25.008  0.00  0.00    +0.017 A 
ATOM     32  C   UNL     1      -3.283  -2.026  25.805  0.00  0.00    +0.001 A 
ATOM     33  C   UNL     1      -3.306  -1.347  26.273  0.00  0.00    +0.000 A 
ATOM     34  C   UNL     1      -3.540  -0.628  25.945  0.00  0.00    +0.001 A 
ENDBRANCH   5   4
ENDBRANCH   6   5
TORSDOF 3
ENDMDL
MODEL 3
REMARK VINA RESULT:     -15.1      1.469      4.372
REMARK  Name = 
REMARK  3 active torsions:
REMARK  status: ('A' for Active; 'I' for Inactive)
REMARK    1  A    between atoms: C_4  and  C_5
REMARK    2  A    between atoms: C_5  and  N_6
REMARK    3  A    between atoms: C_15  and  C_16
REMARK                            x       y       z     vdW  Elec       q    Type
REMARK                         _______ _______ _______ _____ _____    ______ ____
ROOT
ATOM      6  N   UNL     1      -3.938  -0.505  24.386  0.00  0.00    -0.269 NA
ATOM      7  C   UNL     1      -4.516  -1.075  24.188  0.00  0.00    +0.074 C 
ATOM      8  C   UNL     1      -3.960  -1.891  24.210  0.00  0.00    +0.039 C 
ATOM      9  C   UNL     1      -3.645  -2.642  24.187  0.00  0.00    +0.011 C 
ATOM     10  C   UNL     1      -3.421  -1.990  24.317  0.00  0.00    +0.054 C 
ATOM     11  C   UNL     1      -3.973  -1.210  24.291  0.00  0.00    +0.078 C 
ATOM     12  C   UNL     1      -2.665  -1.519  24.542  0.00  0.00    +0.041 A 
ATOM     13  C   UNL     1      -1.864  -1.633  24.705  0.00  0.00    +0.013 A 
ATOM     14  C   UNL     1      -1.386  -0.987  24.891  0.00  0.00    +0.006 A 
ATOM     15  C   UNL     1      -1.707  -0.228  24.913  0.00  0.00    +0.062 A 
ATOM     25  C   UNL     1      -2.508  -0.114  24.750  0.00  0.00    +0.261 A 
ATOM     26  O   UNL     1      -2.829   0.646  24.773  0.00  0.00    -0.267 OA
ATOM     27  N   UNL     1      -2.986  -0.759  24.565  0.00  0.00    -0.299 N 
ATOM     28  C   UNL     1      -3.175  -1.390  24.445  0.00  0.00    +0.110 C 
ENDROOT
BRANCH  15  16
ATOM     16  C   UNL     1      -1.228   0.417  25.099  0.00  0.00    +0.034 A 
ATOM     17  C   UNL     1      -1.173   0.785  25.835  0.00  0.00    +0.007 A 
ATOM     18  C   UNL     1      -0.630   1.403  25.772  0.00  0.00    +0.006 A 
ATOM     19  C   UNL     1      -0.349   1.417  24.995  0.00  0.00    +0.029 A 
ATOM     20  S   UNL     1      -0.719   0.808  24.580  0.00  0.00    -0.087 S 
ATOM     21  C   UNL     1       0.207   1.983  24.768  0.00  0.00    +0.006 A 
ATOM     22  C   UNL     1       0.482   2.534  25.316  0.00  0.00    +0.001 A 
ATOM     23  C   UNL     1       0.202   2.520  26.092  0.00  0.00    +0.000 A 
ATOM     24  C   UNL     1      -0.354   1.955  26.319  0.00  0.00    +0.001 A 
ENDBRANCH  15  16
BRANCH   6   5
ATOM      5  C   UNL     1      -3.611   0.235  24.550  0.00  0.00    +0.101 C 
BRANCH   5   4
ATOM      1  C   UNL     1      -5.623   1.971  25.722  0.00  0.00    +0.130 C 
ATOM      2  N   UNL     1      -5.028   1.679  25.230  0.00  0.00    -0.324 N 
ATOM      3  C   UNL     1      -4.663   0.941  25.294  0.00  0.00    +0.073 A 
ATOM      4  C   UNL     1      -4.103   0.881  24.691  0.00  0.00    +0.012 A 
ATOM     29  C   UNL     1      -4.122   1.582  24.254  0.00  0.00    +0.015 A 
ATOM     30  C   UNL     1      -4.694   2.074  24.588  0.00  0.00    +0.060 A 
ATOM     31  C   UNL     1      -4.836   2.819  24.263  0.00  0.00    +0.017 A 
ATOM     32  C   UNL     1      -4.407   3.071  23.605  0.00  0.00    +0.001 A 
ATOM     33  C   UNL     1      -3.835   2.578  23.272  0.00  0.00    +0.000 A 
ATOM     34  C   UNL     1      -3.693   1.833  23.596  0.00  0.00    +0.001 A 
ENDBRANCH   5   4
ENDBRANCH   6   5
TORSDOF 3
ENDMDL
MODEL 4
REMARK VINA RESULT:     -14.5      1.446      3.717
REMARK  Name = 
REMARK  3 active torsions:
REMARK  status: ('A' for Active; 'I' for Inactive)
REMARK    1  A    between atoms: C_4  and  C_5
REMARK    2  A    between atoms: C_5  and  N_6
REMARK    3  A    between atoms: C_15  and  C_16
REMARK                            x       y       z     vdW  Elec       q    Type
REMARK                         _______ _______ _______ _____ _____    ______ ____
ROOT
ATOM      6  N   UNL     1      -1.748  -0.800  24.688  0.00  0.00    -0.269 NA
ATOM      7  C   UNL     1      -1.415  -1.566  24.715  0.00  0.00    +0.074 C 
ATOM      8  C   UNL     1      -2.242  -2.106  24.680  0.00  0.00    +0.039 C 
ATOM      9  C   UNL     1      -2.816  -2.684  24.658  0.00  0.00    +0.011 C 
ATOM     10  C   UNL     1      -2.785  -1.983  24.650  0.00  0.00    +0.054 C 
ATOM     11  C   UNL     1      -1.977  -1.474  24.685  0.00  0.00    +0.078 C 
ATOM     12  C   UNL     1      -3.321  -1.238  24.613  0.00  0.00    +0.041 A 
ATOM     13  C   UNL     1      -4.116  -1.022  24.569  0.00  0.00    +0.013 A 
ATOM     14  C   UNL     1      -4.327  -0.225  24.548  0.00  0.00    +0.006 A 
ATOM     15  C   UNL     1      -3.743   0.357  24.570  0.00  0.00    +0.062 A 
ATOM     25  C   UNL     1      -2.948   0.142  24.614  0.00  0.00    +0.261 A 
ATOM     26  O   UNL     1      -2.364   0.724  24.636  0.00  0.00    -0.267 OA
ATOM     27  N   UNL     1      -2.737  -0.655  24.635  0.00  0.00    -0.299 N 
ATOM     28  C   UNL     1      -2.794  -1.322  24.641  0.00  0.00    +0.110 C 
ENDROOT
BRANCH  15  16
ATOM     16  C   UNL     1      -3.955   1.154  24.549  0.00  0.00    +0.034 A 
ATOM     17  C   UNL     1      -3.839   1.670  23.916  0.00  0.00    +0.007 A 
ATOM     18  C   UNL     1      -4.132   2.410  24.133  0.00  0.00    +0.006 A 
ATOM     19  C   UNL     1      -4.430   2.351  24.901  0.00  0.00    +0.029 A 
ATOM     20  S   UNL     1      -4.320   1.575  25.157  0.00  0.00    -0.087 S 
ATOM     21  C   UNL     1      -4.762   3.012  25.266  0.00  0.00    +0.006 A 
ATOM     22  C   UNL     1      -4.797   3.731  24.865  0.00  0.00    +0.001 A 
ATOM     23  C   UNL     1      -4.499   3.790  24.098  0.00  0.00    +0.000 A 
ATOM     24  C   UNL     1      -4.167   3.130  23.732  0.00  0.00    +0.001 A 
ENDBRANCH  15  16
BRANCH   6   5
ATOM      5  C   UNL     1      -1.781   0.025  24.675  0.00  0.00    +0.101 C 
BRANCH   5   4
ATOM      1  C   UNL     1       0.577   1.105  23.368  0.00  0.00    +0.130 C 
ATOM      2  N   UNL     1      -0.015   0.959  23.925  0.00  0.00    -0.324 N 
ATOM      3  C   UNL     1      -0.644   0.432  23.837  0.00  0.00    +0.073 A 
ATOM      4  C   UNL     1      -1.098   0.463  24.525  0.00  0.00    +0.012 A 
ATOM     29  C   UNL     1      -0.750   1.009  25.037  0.00  0.00    +0.015 A 
ATOM     30  C   UNL     1      -0.080   1.315  24.666  0.00  0.00    +0.060 A 
ATOM     31  C   UNL     1       0.383   1.879  25.050  0.00  0.00    +0.017 A 
ATOM     32  C   UNL     1       0.177   2.136  25.806  0.00  0.00    +0.001 A 
ATOM     33  C   UNL     1      -0.493   1.829  26.178  0.00  0.00    +0.000 A 
ATOM     34  C   UNL     1      -0.956   1.266  25.794  0.00  0.00    +0.001 A 
ENDBRANCH   5   4
ENDBRANCH   6   5
TORSDOF 3
ENDMDL
MODEL 5
REMARK VINA RESULT:     -14.4      1.195      3.112
REMARK  Name = 
REMARK  3 active torsions:
REMARK  status: ('A' for Active; 'I' for Inactive)
REMARK    1  A    between atoms: C_4  and  C_5
REMARK    2  A    between atoms: C_5  and  N_6
REMARK    3  A    between atoms: C_15  and  C_16
REMARK                            x       y       z     vdW  Elec       q    Type
REMARK                         _______ _______ _______ _____ _____    ______ ____
ROOT
ATOM      6  N   UNL     1      -1.844   2.662  25.336  0.00  0.00    -0.269 NA
ATOM      7  C   UNL     1      -1.383   3.328  25.539  0.00  0.00    +0.074 C 
ATOM      8  C   UNL     1      -0.545   2.877  25.802  0.00  0.00    +0.039 C 
ATOM      9  C   UNL     1       0.202   2.663  26.048  0.00  0.00    +0.011 C 
ATOM     10  C   UNL     1      -0.382   2.344  25.825  0.00  0.00    +0.054 C 
ATOM     11  C   UNL     1      -1.186   2.795  25.573  0.00  0.00    +0.078 C 
ATOM     12  C   UNL     1      -0.727   1.510  25.651  0.00  0.00    +0.041 A 
ATOM     13  C   UNL     1      -0.516   0.713  25.673  0.00  0.00    +0.013 A 
ATOM     14  C   UNL     1      -1.061   0.136  25.446  0.00  0.00    +0.006 A 
ATOM     15  C   UNL     1      -1.816   0.356  25.197  0.00  0.00    +0.062 A 
ATOM     25  C   UNL     1      -2.026   1.154  25.175  0.00  0.00    +0.261 A 
ATOM     26  O   UNL     1      -2.781   1.374  24.926  0.00  0.00    -0.267 OA
ATOM     27  N   UNL     1      -1.482   1.730  25.402  0.00  0.00    -0.299 N 
ATOM     28  C   UNL     1      -0.913   2.010  25.618  0.00  0.00    +0.110 C 
ENDROOT
BRANCH  15  16
ATOM     16  C   UNL     1      -2.359  -0.221  24.971  0.00  0.00    +0.034 A 
ATOM     17  C   UNL     1      -2.672  -0.323  24.214  0.00  0.00    +0.007 A 
ATOM     18  C   UNL     1      -3.192  -0.963  24.237  0.00  0.00    +0.006 A 
ATOM     19  C   UNL     1      -3.201  -1.257  25.009  0.00  0.00    +0.029 A 
ATOM     20  S   UNL     1      -2.687  -0.798  25.461  0.00  0.00    -0.087 S 
ATOM     21  C   UNL     1      -3.677  -1.904  25.198  0.00  0.00    +0.006 A 
ATOM     22  C   UNL     1      -4.143  -2.257  24.617  0.00  0.00    +0.001 A 
ATOM     23  C   UNL     1      -4.134  -1.964  23.846  0.00  0.00    +0.000 A 
ATOM     24  C   UNL     1      -3.659  -1.317  23.657  0.00  0.00    +0.001 A 
ENDBRANCH  15  16
BRANCH   6   5
ATOM      5  C   UNL     1      -2.496   2.226  25.080  0.00  0.00    +0.101 C 
BRANCH   5   4
ATOM      1  C   UNL     1      -4.131   3.525  23.061  0.00  0.00    +0.130 C 
ATOM      2  N   UNL     1      -3.876   3.203  23.777  0.00  0.00    -0.324 N 
ATOM      3  C   UNL     1      -3.144   2.848  23.917  0.00  0.00    +0.073 A 
ATOM      4  C   UNL     1      -3.125   2.606  24.705  0.00  0.00    +0.012 A 
ATOM     29  C   UNL     1      -3.846   2.811  25.052  0.00  0.00    +0.015 A 
ATOM     30  C   UNL     1      -4.309   3.179  24.479  0.00  0.00    +0.060 A 
ATOM     31  C   UNL     1      -5.066   3.446  24.669  0.00  0.00    +0.017 A 
ATOM     32  C   UNL     1      -5.359   3.344  25.434  0.00  0.00    +0.001 A 
ATOM     33  C   UNL     1      -4.895   2.975  26.007  0.00  0.00    +0.000 A 
ATOM     34  C   UNL     1      -4.138   2.708  25.817  0.00  0.00    +0.001 A 
ENDBRANCH   5   4
ENDBRANCH   6   5
TORSDOF 3
ENDMDL
MODEL 6
REMARK VINA RESULT:     -14.0      1.581      4.683
REMARK  Name = 
REMARK  3 active torsions:
REMARK  status: ('A' for Active; 'I' for Inactive)
REMARK    1  A    between atoms: C_4  and  C_5
REMARK    2  A    between atoms: C_5  and  N_6
REMARK    3  A    between atoms: C_15  and  C_16
REMARK                            x       y       z     vdW  Elec       q    Type
REMARK                         _______ _______ _______ _____ _____    ______ ____
ROOT
ATOM      6  N   UNL     1      -1.173  -0.044  24.311  0.00  0.00    -0.269 NA
ATOM      7  C   UNL     1      -0.520  -0.528  24.119  0.00  0.00    +0.074 C 
ATOM      8  C   UNL     1       0.126   0.166  23.842  0.00  0.00    +0.039 C 
ATOM      9  C   UNL     1       0.762   0.607  23.587  0.00  0.00    +0.011 C 
ATOM     10  C   UNL     1       0.106   0.723  23.808  0.00  0.00    +0.054 C 
ATOM     11  C   UNL     1      -0.507   0.040  24.073  0.00  0.00    +0.078 C 
ATOM     12  C   UNL     1      -0.492   1.402  23.966  0.00  0.00    +0.041 A 
ATOM     13  C   UNL     1      -0.553   2.224  23.926  0.00  0.00    +0.013 A 
ATOM     14  C   UNL     1      -1.256   2.596  24.144  0.00  0.00    +0.006 A 
ATOM     15  C   UNL     1      -1.898   2.147  24.402  0.00  0.00    +0.062 A 
ATOM     25  C   UNL     1      -1.837   1.325  24.442  0.00  0.00    +0.261 A 
ATOM     26  O   UNL     1      -2.480   0.876  24.700  0.00  0.00    -0.267 OA
ATOM     27  N   UNL     1      -1.134   0.953  24.224  0.00  0.00    -0.299 N 
ATOM     28  C   UNL     1      -0.505   0.870  24.010  0.00  0.00    +0.110 C 
ENDROOT
BRANCH  15  16
ATOM     16  C   UNL     1      -2.601   2.520  24.620  0.00  0.00    +0.034 A 
ATOM     17  C   UNL     1      -3.286   2.570  24.163  0.00  0.00    +0.007 A 
ATOM     18  C   UNL     1      -3.850   2.990  24.594  0.00  0.00    +0.006 A 
ATOM     19  C   UNL     1      -3.513   3.199  25.319  0.00  0.00    +0.029 A 
ATOM     20  S   UNL     1      -2.742   2.909  25.334  0.00  0.00    -0.087 S 
ATOM     21  C   UNL     1      -3.954   3.627  25.870  0.00  0.00    +0.006 A 
ATOM     22  C   UNL     1      -4.730   3.845  25.697  0.00  0.00    +0.001 A 
ATOM     23  C   UNL     1      -5.067   3.636  24.973  0.00  0.00    +0.000 A 
ATOM     24  C   UNL     1      -4.626   3.209  24.422  0.00  0.00    +0.001 A 
ENDBRANCH  15  16
BRANCH   6   5
ATOM      5  C   UNL     1      -1.932   0.161  24.562  0.00  0.00    +0.101 C 
BRANCH   5   4
ATOM      1  C   UNL     1      -3.122  -1.630  26.514  0.00  0.00    +0.130 C 
ATOM      2  N   UNL     1      -2.964  -1.230  25.810  0.00  0.00    -0.324 N 
ATOM      3  C   UNL     1      -2.378  -0.659  25.697  0.00  0.00    +0.073 A 
ATOM      4  C   UNL     1      -2.417  -0.406  24.913  0.00  0.00    +0.012 A 
ATOM     29  C   UNL     1      -3.027  -0.821  24.541  0.00  0.00    +0.015 A 
ATOM     30  C   UNL     1      -3.365  -1.329  25.096  0.00  0.00    +0.060 A 
ATOM     31  C   UNL     1      -3.993  -1.817  24.879  0.00  0.00    +0.017 A 
ATOM     32  C   UNL     1      -4.284  -1.796  24.108  0.00  0.00    +0.001 A 
ATOM     33  C   UNL     1      -3.947  -1.288  23.553  0.00  0.00    +0.000 A 
ATOM     34  C   UNL     1      -3.318  -0.800  23.769  0.00  0.00    +0.001 A 
ENDBRANCH   5   4
ENDBRANCH   6   5
TORSDOF 3
ENDMDL
MODEL 7
REMARK VINA RESULT:     -13.4      1.816      3.492
REMARK  Name = 
REMARK  3 active torsions:
REMARK  status: ('A' for Active; 'I' for Inactive)
REMARK    1  A    between atoms: C_4  and  C_5
REMARK    2  A    between atoms: C_5  and  N_6
REMARK    3  A    between atoms: C_15  and  C_16
REMARK                            x       y       z     vdW  Elec       q    Type
REMARK                         _______ _______ _______ _____ _____    ______ ____
ROOT
ATOM      6  N   UNL     1      -2.297   3.884  24.931  0.00  0.00    -0.269 NA
ATOM      7  C   UNL     1      -2.350   4.718  24.913  0.00  0.00    +0.074 C 
ATOM      8  C   UNL     1      -1.399   4.948  25.052  0.00  0.00    +0.039 C 
ATOM      9  C   UNL     1      -0.671   5.297  25.156  0.00  0.00    +0.011 C 
ATOM     10  C   UNL     1      -0.935   4.648  25.125  0.00  0.00    +0.054 C 
ATOM     11  C   UNL     1      -1.857   4.442  24.990  0.00  0.00    +0.078 C 
ATOM     12  C   UNL     1      -0.684   3.765  25.172  0.00  0.00    +0.041 A 
ATOM     13  C   UNL     1      -0.015   3.294  25.277  0.00  0.00    +0.013 A 
ATOM     14  C   UNL     1      -0.085   2.472  25.276  0.00  0.00    +0.006 A 
ATOM     15  C   UNL     1      -0.824   2.121  25.170  0.00  0.00    +0.062 A 
ATOM     25  C   UNL     1      -1.493   2.592  25.065  0.00  0.00    +0.261 A 
ATOM     26  O   UNL     1      -2.233   2.241  24.959  0.00  0.00    -0.267 OA
ATOM     27  N   UNL     1      -1.423   3.414  25.066  0.00  0.00    -0.299 N 
ATOM     28  C   UNL     1      -1.147   4.023  25.100  0.00  0.00    +0.110 C 
ENDROOT
BRANCH  15  16
ATOM     16  C   UNL     1      -0.894   1.299  25.169  0.00  0.00    +0.034 A 
ATOM     17  C   UNL     1      -1.160   0.834  25.796  0.00  0.00    +0.007 A 
ATOM     18  C   UNL     1      -1.140   0.045  25.554  0.00  0.00    +0.006 A 
ATOM     19  C   UNL     1      -0.861   0.023  24.777  0.00  0.00    +0.029 A 
ATOM     20  S   UNL     1      -0.709   0.798  24.540  0.00  0.00    -0.087 S 
ATOM     21  C   UNL     1      -0.782  -0.700  24.388  0.00  0.00    +0.006 A 
ATOM     22  C   UNL     1      -0.981  -1.400  24.775  0.00  0.00    +0.001 A 
ATOM     23  C   UNL     1      -1.259  -1.379  25.551  0.00  0.00    +0.000 A 
ATOM     24  C   UNL     1      -1.339  -0.656  25.940  0.00  0.00    +0.001 A 
ENDBRANCH  15  16
BRANCH   6   5
ATOM      5  C   UNL     1      -2.541   3.097  24.903  0.00  0.00    +0.101 C 
BRANCH   5   4
ATOM      1  C   UNL     1      -4.660   2.441  23.027  0.00  0.00    +0.130 C 
ATOM      2  N   UNL     1      -4.253   2.604  23.727  0.00  0.00    -0.324 N 
ATOM      3  C   UNL     1      -3.450   2.782  23.791  0.00  0.00    +0.073 A 
ATOM      4  C   UNL     1      -3.279   2.905  24.589  0.00  0.00    +0.012 A 
ATOM     29  C   UNL     1      -3.978   2.803  25.017  0.00  0.00    +0.015 A 
ATOM     30  C   UNL     1      -4.579   2.617  24.484  0.00  0.00    +0.060 A 
ATOM     31  C   UNL     1      -5.346   2.484  24.758  0.00  0.00    +0.017 A 
ATOM     32  C   UNL     1      -5.511   2.537  25.564  0.00  0.00    +0.001 A 
ATOM     33  C   UNL     1      -4.910   2.723  26.097  0.00  0.00    +0.000 A 
ATOM     34  C   UNL     1      -4.143   2.856  25.824  0.00  0.00    +0.001 A 
ENDBRANCH   5   4
ENDBRANCH   6   5
TORSDOF 3
ENDMDL
