REMARK  Name = 
REMARK  3 active torsions:
REMARK  status: ('A' for Active; 'I' for Inactive)
REMARK    1  A    between atoms: C_7  and  C_9
REMARK    2  A    between atoms: N_12  and  C_13
REMARK    3  A    between atoms: C_13  and  C_14
REMARK                            x       y       z     vdW  Elec       q    Type
REMARK                         _______ _______ _______ _____ _____    ______ ____
ROOT
ATOM      9  C   UNL     1      -3.449  -0.960   0.000  0.00  0.00    +0.094 C 
ATOM     10  C   UNL     1      -3.037  -0.245   0.000  0.00  0.00    +0.028 C 
ATOM     11  C   UNL     1      -2.230  -0.417   0.000  0.00  0.00    +0.073 C 
ATOM     12  N   UNL     1      -2.143  -1.238   0.000  0.00  0.00    -0.268 NA
ATOM     24  C   UNL     1      -2.897  -1.573   0.000  0.00  0.00    +0.082 C 
ENDROOT
BRANCH   9   7
ATOM      1  C   UNL     1      -7.750  -0.583   0.000  0.00  0.00    +0.031 C 
ATOM      2  C   UNL     1      -6.996  -0.918   0.000  0.00  0.00    -0.020 A 
ATOM      3  C   UNL     1      -6.329  -0.433   0.000  0.00  0.00    +0.018 A 
ATOM      4  C   UNL     1      -5.575  -0.769   0.000  0.00  0.00    +0.118 A 
ATOM      5  C   UNL     1      -5.489  -1.589   0.000  0.00  0.00    +0.164 A 
ATOM      6  O   UNL     1      -4.682  -1.761   0.000  0.00  0.00    -0.438 OA
ATOM      7  C   UNL     1      -4.270  -1.046   0.000  0.00  0.00    +0.207 A 
ATOM      8  N   UNL     1      -4.822  -0.433   0.000  0.00  0.00    -0.212 NA
ATOM     25  C   UNL     1      -6.157  -2.074   0.000  0.00  0.00    +0.039 A 
ATOM     26  C   UNL     1      -6.910  -1.738   0.000  0.00  0.00    -0.001 A 
ENDBRANCH   9   7
BRANCH  12  13
ATOM     13  C   UNL     1      -1.429  -1.650   0.000  0.00  0.00    +0.101 C 
BRANCH  13  14
ATOM     14  C   UNL     1      -0.715  -1.238   0.000  0.00  0.00    +0.013 A 
ATOM     15  C   UNL     1       0.000  -1.650   0.000  0.00  0.00    +0.000 A 
ATOM     16  C   UNL     1       0.715  -1.238   0.000  0.00  0.00    +0.017 A 
ATOM     17  C   UNL     1       0.715  -0.412   0.000  0.00  0.00    +0.081 A 
ATOM     18  C   UNL     1       1.429   0.000   0.000  0.00  0.00    +0.019 A 
ATOM     19  C   UNL     1       2.143  -0.412   0.000  0.00  0.00    +0.002 A 
ATOM     20  C   UNL     1       2.143  -1.238   0.000  0.00  0.00    +0.000 A 
ATOM     21  C   UNL     1       1.429  -1.650   0.000  0.00  0.00    +0.001 A 
ATOM     22  N   UNL     1       0.000   0.000   0.000  0.00  0.00    -0.244 NA
ATOM     23  C   UNL     1      -0.715  -0.412   0.000  0.00  0.00    +0.096 A 
ENDBRANCH  13  14
ENDBRANCH  12  13
TORSDOF 3
