MODEL 1
REMARK VINA RESULT:     -11.5      0.000      0.000
REMARK  Name = 
REMARK  5 active torsions:
REMARK  status: ('A' for Active; 'I' for Inactive)
REMARK    1  A    between atoms: O_2  and  C_3
REMARK    2  A    between atoms: C_8  and  C_9
REMARK    3  A    between atoms: C_9  and  N_10
REMARK    4  A    between atoms: C_13  and  C_15
REMARK    5  A    between atoms: C_18  and  C_20
REMARK                            x       y       z     vdW  Elec       q    Type
REMARK                         _______ _______ _______ _____ _____    ______ ____
ROOT
ATOM     10  N   UNL     1      -4.380   0.575  24.625  0.00  0.00    -0.268 NA
ATOM     11  C   UNL     1      -5.027   0.845  25.058  0.00  0.00    +0.073 C 
ATOM     12  C   UNL     1      -4.888   1.634  25.258  0.00  0.00    +0.028 C 
ATOM     13  C   UNL     1      -4.154   1.849  24.948  0.00  0.00    +0.096 C 
ATOM     14  C   UNL     1      -3.840   1.194  24.557  0.00  0.00    +0.082 C 
ENDROOT
BRANCH  13  15
ATOM     15  C   UNL     1      -3.797   2.590  25.017  0.00  0.00    +0.227 A 
ATOM     16  N   UNL     1      -4.188   3.307  25.136  0.00  0.00    -0.111 NA
ATOM     17  N   UNL     1      -3.619   3.904  25.171  0.00  0.00    -0.107 NA
ATOM     18  C   UNL     1      -2.877   3.555  25.075  0.00  0.00    +0.250 A 
ATOM     19  O   UNL     1      -2.988   2.743  24.980  0.00  0.00    -0.419 OA
BRANCH  18  20
ATOM     20  C   UNL     1      -2.152   3.950  25.074  0.00  0.00    +0.058 A 
ATOM     21  C   UNL     1      -1.450   3.521  25.019  0.00  0.00    +0.025 A 
ATOM     22  C   UNL     1      -0.725   3.915  25.018  0.00  0.00    +0.099 A 
ATOM     23  N   UNL     1      -0.703   4.738  25.073  0.00  0.00    -0.242 NA
ATOM     24  C   UNL     1      -1.406   5.166  25.128  0.00  0.00    +0.099 A 
ATOM     25  C   UNL     1      -2.130   4.773  25.129  0.00  0.00    +0.025 A 
ENDBRANCH  18  20
ENDBRANCH  13  15
BRANCH  10   9
ATOM      9  C   UNL     1      -4.288  -0.184  24.314  0.00  0.00    +0.102 C 
BRANCH   9   8
ATOM      3  C   UNL     1      -3.928  -1.556  24.495  0.00  0.00    +0.136 A 
ATOM      4  C   UNL     1      -3.583  -2.149  24.952  0.00  0.00    +0.037 A 
ATOM      5  C   UNL     1      -3.253  -1.967  25.686  0.00  0.00    +0.003 A 
ATOM      6  C   UNL     1      -3.268  -1.189  25.962  0.00  0.00    -0.000 A 
ATOM      7  C   UNL     1      -3.613  -0.595  25.505  0.00  0.00    +0.000 A 
ATOM      8  C   UNL     1      -3.943  -0.779  24.772  0.00  0.00    +0.028 A 
BRANCH   3   2
ATOM      1  C   UNL     1      -4.287  -2.523  23.506  0.00  0.00    +0.252 C 
ATOM      2  O   UNL     1      -4.258  -1.738  23.761  0.00  0.00    -0.472 OA
ENDBRANCH   3   2
ENDBRANCH   9   8
ENDBRANCH  10   9
TORSDOF 5
ENDMDL
MODEL 2
REMARK VINA RESULT:     -11.3      1.176      5.271
REMARK  Name = 
REMARK  5 active torsions:
REMARK  status: ('A' for Active; 'I' for Inactive)
REMARK    1  A    between atoms: O_2  and  C_3
REMARK    2  A    between atoms: C_8  and  C_9
REMARK    3  A    between atoms: C_9  and  N_10
REMARK    4  A    between atoms: C_13  and  C_15
REMARK    5  A    between atoms: C_18  and  C_20
REMARK                            x       y       z     vdW  Elec       q    Type
REMARK                         _______ _______ _______ _____ _____    ______ ____
ROOT
ATOM     10  N   UNL     1      -3.046   2.756  24.720  0.00  0.00    -0.268 NA
ATOM     11  C   UNL     1      -3.205   2.736  23.910  0.00  0.00    +0.073 C 
ATOM     12  C   UNL     1      -3.569   2.015  23.741  0.00  0.00    +0.028 C 
ATOM     13  C   UNL     1      -3.634   1.591  24.446  0.00  0.00    +0.096 C 
ATOM     14  C   UNL     1      -3.311   2.050  25.051  0.00  0.00    +0.082 C 
ENDROOT
BRANCH  13  15
ATOM     15  C   UNL     1      -3.965   0.840  24.531  0.00  0.00    +0.227 A 
ATOM     16  N   UNL     1      -4.746   0.675  24.741  0.00  0.00    -0.111 NA
ATOM     17  N   UNL     1      -4.837  -0.144  24.761  0.00  0.00    -0.107 NA
ATOM     18  C   UNL     1      -4.112  -0.486  24.564  0.00  0.00    +0.250 A 
ATOM     19  O   UNL     1      -3.573   0.122  24.422  0.00  0.00    -0.419 OA
BRANCH  18  20
ATOM     20  C   UNL     1      -3.954  -1.295  24.517  0.00  0.00    +0.058 A 
ATOM     21  C   UNL     1      -4.229  -1.732  23.874  0.00  0.00    +0.025 A 
ATOM     22  C   UNL     1      -4.071  -2.541  23.827  0.00  0.00    +0.099 A 
ATOM     23  N   UNL     1      -3.638  -2.912  24.423  0.00  0.00    -0.242 NA
ATOM     24  C   UNL     1      -3.364  -2.474  25.067  0.00  0.00    +0.099 A 
ATOM     25  C   UNL     1      -3.522  -1.666  25.114  0.00  0.00    +0.025 A 
ENDBRANCH  18  20
ENDBRANCH  13  15
BRANCH  10   9
ATOM      9  C   UNL     1      -2.684   3.377  25.126  0.00  0.00    +0.102 C 
BRANCH   9   8
ATOM      3  C   UNL     1      -1.446   4.087  25.197  0.00  0.00    +0.136 A 
ATOM      4  C   UNL     1      -0.629   4.088  25.305  0.00  0.00    +0.037 A 
ATOM      5  C   UNL     1      -0.230   3.380  25.451  0.00  0.00    +0.003 A 
ATOM      6  C   UNL     1      -0.650   2.671  25.489  0.00  0.00    -0.000 A 
ATOM      7  C   UNL     1      -1.469   2.670  25.381  0.00  0.00    +0.000 A 
ATOM      8  C   UNL     1      -1.866   3.378  25.235  0.00  0.00    +0.028 A 
BRANCH   3   2
ATOM      1  C   UNL     1      -1.429   5.509  25.045  0.00  0.00    +0.252 C 
ATOM      2  O   UNL     1      -1.844   4.795  25.051  0.00  0.00    -0.472 OA
ENDBRANCH   3   2
ENDBRANCH   9   8
ENDBRANCH  10   9
TORSDOF 5
ENDMDL
MODEL 3
REMARK VINA RESULT:     -11.2      1.713      2.421
REMARK  Name = 
REMARK  5 active torsions:
REMARK  status: ('A' for Active; 'I' for Inactive)
REMARK    1  A    between atoms: O_2  and  C_3
REMARK    2  A    between atoms: C_8  and  C_9
REMARK    3  A    between atoms: C_9  and  N_10
REMARK    4  A    between atoms: C_13  and  C_15
REMARK    5  A    between atoms: C_18  and  C_20
REMARK                            x       y       z     vdW  Elec       q    Type
REMARK                         _______ _______ _______ _____ _____    ______ ____
ROOT
ATOM     10  N   UNL     1      -1.743  -0.474  25.142  0.00  0.00    -0.268 NA
ATOM     11  C   UNL     1      -1.079  -0.536  24.655  0.00  0.00    +0.073 C 
ATOM     12  C   UNL     1      -0.680   0.186  24.678  0.00  0.00    +0.028 C 
ATOM     13  C   UNL     1      -1.096   0.692  25.179  0.00  0.00    +0.096 C 
ATOM     14  C   UNL     1      -1.754   0.284  25.465  0.00  0.00    +0.082 C 
ENDROOT
BRANCH  13  15
ATOM     15  C   UNL     1      -0.892   1.470  25.361  0.00  0.00    +0.227 A 
ATOM     16  N   UNL     1      -0.224   1.710  25.782  0.00  0.00    -0.111 NA
ATOM     17  N   UNL     1      -0.238   2.533  25.836  0.00  0.00    -0.107 NA
ATOM     18  C   UNL     1      -0.915   2.802  25.448  0.00  0.00    +0.250 A 
ATOM     19  O   UNL     1      -1.319   2.145  25.154  0.00  0.00    -0.419 OA
BRANCH  18  20
ATOM     20  C   UNL     1      -1.148   3.590  25.367  0.00  0.00    +0.058 A 
ATOM     21  C   UNL     1      -1.880   3.835  25.657  0.00  0.00    +0.025 A 
ATOM     22  C   UNL     1      -2.112   4.623  25.577  0.00  0.00    +0.099 A 
ATOM     23  N   UNL     1      -1.612   5.165  25.206  0.00  0.00    -0.242 NA
ATOM     24  C   UNL     1      -0.880   4.919  24.916  0.00  0.00    +0.099 A 
ATOM     25  C   UNL     1      -0.648   4.132  24.997  0.00  0.00    +0.025 A 
ENDBRANCH  18  20
ENDBRANCH  13  15
BRANCH  10   9
ATOM      9  C   UNL     1      -2.298  -1.068  25.281  0.00  0.00    +0.102 C 
BRANCH   9   8
ATOM      3  C   UNL     1      -3.315  -1.831  24.626  0.00  0.00    +0.136 A 
ATOM      4  C   UNL     1      -4.005  -1.863  24.176  0.00  0.00    +0.037 A 
ATOM      5  C   UNL     1      -4.370  -1.165  23.929  0.00  0.00    +0.003 A 
ATOM      6  C   UNL     1      -4.045  -0.435  24.133  0.00  0.00    -0.000 A 
ATOM      7  C   UNL     1      -3.354  -0.403  24.584  0.00  0.00    +0.000 A 
ATOM      8  C   UNL     1      -2.989  -1.101  24.830  0.00  0.00    +0.028 A 
BRANCH   3   2
ATOM      1  C   UNL     1      -3.301  -3.258  24.709  0.00  0.00    +0.252 C 
ATOM      2  O   UNL     1      -2.950  -2.528  24.873  0.00  0.00    -0.472 OA
ENDBRANCH   3   2
ENDBRANCH   9   8
ENDBRANCH  10   9
TORSDOF 5
ENDMDL
MODEL 4
REMARK VINA RESULT:     -10.6      1.955      5.630
REMARK  Name = 
REMARK  5 active torsions:
REMARK  status: ('A' for Active; 'I' for Inactive)
REMARK    1  A    between atoms: O_2  and  C_3
REMARK    2  A    between atoms: C_8  and  C_9
REMARK    3  A    between atoms: C_9  and  N_10
REMARK    4  A    between atoms: C_13  and  C_15
REMARK    5  A    between atoms: C_18  and  C_20
REMARK                            x       y       z     vdW  Elec       q    Type
REMARK                         _______ _______ _______ _____ _____    ______ ____
ROOT
ATOM     10  N   UNL     1      -1.133   2.028  25.022  0.00  0.00    -0.268 NA
ATOM     11  C   UNL     1      -0.708   1.751  25.672  0.00  0.00    +0.073 C 
ATOM     12  C   UNL     1      -0.800   0.932  25.706  0.00  0.00    +0.028 C 
ATOM     13  C   UNL     1      -1.282   0.703  25.077  0.00  0.00    +0.096 C 
ATOM     14  C   UNL     1      -1.488   1.382  24.654  0.00  0.00    +0.082 C 
ENDROOT
BRANCH  13  15
ATOM     15  C   UNL     1      -1.518  -0.067  24.901  0.00  0.00    +0.227 A 
ATOM     16  N   UNL     1      -1.019  -0.720  24.822  0.00  0.00    -0.111 NA
ATOM     17  N   UNL     1      -1.485  -1.377  24.645  0.00  0.00    -0.107 NA
ATOM     18  C   UNL     1      -2.273  -1.131  24.615  0.00  0.00    +0.250 A 
ATOM     19  O   UNL     1      -2.292  -0.321  24.773  0.00  0.00    -0.419 OA
BRANCH  18  20
ATOM     20  C   UNL     1      -2.926  -1.609  24.455  0.00  0.00    +0.058 A 
ATOM     21  C   UNL     1      -3.577  -1.298  24.056  0.00  0.00    +0.025 A 
ATOM     22  C   UNL     1      -4.230  -1.777  23.896  0.00  0.00    +0.099 A 
ATOM     23  N   UNL     1      -4.231  -2.566  24.134  0.00  0.00    -0.242 NA
ATOM     24  C   UNL     1      -3.579  -2.877  24.533  0.00  0.00    +0.099 A 
ATOM     25  C   UNL     1      -2.926  -2.399  24.693  0.00  0.00    +0.025 A 
ENDBRANCH  18  20
ENDBRANCH  13  15
BRANCH  10   9
ATOM      9  C   UNL     1      -1.193   2.815  24.782  0.00  0.00    +0.102 C 
BRANCH   9   8
ATOM      3  C   UNL     1      -1.587   4.119  25.216  0.00  0.00    +0.136 A 
ATOM      4  C   UNL     1      -2.141   4.617  25.569  0.00  0.00    +0.037 A 
ATOM      5  C   UNL     1      -2.857   4.310  25.842  0.00  0.00    +0.003 A 
ATOM      6  C   UNL     1      -3.018   3.505  25.761  0.00  0.00    -0.000 A 
ATOM      7  C   UNL     1      -2.463   3.006  25.408  0.00  0.00    +0.000 A 
ATOM      8  C   UNL     1      -1.748   3.314  25.135  0.00  0.00    +0.028 A 
BRANCH   3   2
ATOM      1  C   UNL     1      -0.787   5.239  24.829  0.00  0.00    +0.252 C 
ATOM      2  O   UNL     1      -0.871   4.425  24.944  0.00  0.00    -0.472 OA
ENDBRANCH   3   2
ENDBRANCH   9   8
ENDBRANCH  10   9
TORSDOF 5
ENDMDL
MODEL 5
REMARK VINA RESULT:      -8.7     16.192     19.234
REMARK  Name = 
REMARK  5 active torsions:
REMARK  status: ('A' for Active; 'I' for Inactive)
REMARK    1  A    between atoms: O_2  and  C_3
REMARK    2  A    between atoms: C_8  and  C_9
REMARK    3  A    between atoms: C_9  and  N_10
REMARK    4  A    between atoms: C_13  and  C_15
REMARK    5  A    between atoms: C_18  and  C_20
REMARK                            x       y       z     vdW  Elec       q    Type
REMARK                         _______ _______ _______ _____ _____    ______ ____
ROOT
ATOM     10  N   UNL     1      14.722   7.365  18.896  0.00  0.00    -0.268 NA
ATOM     11  C   UNL     1      14.641   8.106  18.541  0.00  0.00    +0.073 C 
ATOM     12  C   UNL     1      13.883   8.386  18.708  0.00  0.00    +0.028 C 
ATOM     13  C   UNL     1      13.496   7.818  19.166  0.00  0.00    +0.096 C 
ATOM     14  C   UNL     1      14.016   7.187  19.281  0.00  0.00    +0.082 C 
ENDROOT
BRANCH  13  15
ATOM     15  C   UNL     1      12.726   7.871  19.456  0.00  0.00    +0.227 A 
ATOM     16  N   UNL     1      12.046   8.003  19.007  0.00  0.00    -0.111 NA
ATOM     17  N   UNL     1      11.400   8.015  19.519  0.00  0.00    -0.107 NA
ATOM     18  C   UNL     1      11.680   7.891  20.286  0.00  0.00    +0.250 A 
ATOM     19  O   UNL     1      12.500   7.801  20.246  0.00  0.00    -0.419 OA
BRANCH  18  20
ATOM     20  C   UNL     1      11.222   7.860  20.971  0.00  0.00    +0.058 A 
ATOM     21  C   UNL     1      10.905   8.554  21.287  0.00  0.00    +0.025 A 
ATOM     22  C   UNL     1      10.447   8.523  21.972  0.00  0.00    +0.099 A 
ATOM     23  N   UNL     1      10.304   7.800  22.341  0.00  0.00    -0.242 NA
ATOM     24  C   UNL     1      10.621   7.106  22.025  0.00  0.00    +0.099 A 
ATOM     25  C   UNL     1      11.079   7.136  21.341  0.00  0.00    +0.025 A 
ENDBRANCH  18  20
ENDBRANCH  13  15
BRANCH  10   9
ATOM      9  C   UNL     1      15.393   6.887  18.869  0.00  0.00    +0.102 C 
BRANCH   9   8
ATOM      3  C   UNL     1      16.652   6.490  19.419  0.00  0.00    +0.136 A 
ATOM      4  C   UNL     1      17.263   6.606  19.961  0.00  0.00    +0.037 A 
ATOM      5  C   UNL     1      17.228   7.235  20.494  0.00  0.00    +0.003 A 
ATOM      6  C   UNL     1      16.582   7.748  20.485  0.00  0.00    -0.000 A 
ATOM      7  C   UNL     1      15.970   7.632  19.943  0.00  0.00    +0.000 A 
ATOM      8  C   UNL     1      16.005   7.003  19.411  0.00  0.00    +0.028 A 
BRANCH   3   2
ATOM      1  C   UNL     1      17.403   5.475  18.749  0.00  0.00    +0.252 C 
ATOM      2  O   UNL     1      16.686   5.861  18.886  0.00  0.00    -0.472 OA
ENDBRANCH   3   2
ENDBRANCH   9   8
ENDBRANCH  10   9
TORSDOF 5
ENDMDL
MODEL 6
REMARK VINA RESULT:      -8.2     17.758     19.342
REMARK  Name = 
REMARK  5 active torsions:
REMARK  status: ('A' for Active; 'I' for Inactive)
REMARK    1  A    between atoms: O_2  and  C_3
REMARK    2  A    between atoms: C_8  and  C_9
REMARK    3  A    between atoms: C_9  and  N_10
REMARK    4  A    between atoms: C_13  and  C_15
REMARK    5  A    between atoms: C_18  and  C_20
REMARK                            x       y       z     vdW  Elec       q    Type
REMARK                         _______ _______ _______ _____ _____    ______ ____
ROOT
ATOM     10  N   UNL     1      13.968   7.417  20.407  0.00  0.00    -0.268 NA
ATOM     11  C   UNL     1      13.444   6.824  20.640  0.00  0.00    +0.073 C 
ATOM     12  C   UNL     1      12.743   6.923  20.215  0.00  0.00    +0.028 C 
ATOM     13  C   UNL     1      12.835   7.577  19.720  0.00  0.00    +0.096 C 
ATOM     14  C   UNL     1      13.593   7.882  19.839  0.00  0.00    +0.082 C 
ENDROOT
BRANCH  13  15
ATOM     15  C   UNL     1      12.269   7.874  19.199  0.00  0.00    +0.227 A 
ATOM     16  N   UNL     1      11.492   8.075  19.390  0.00  0.00    -0.111 NA
ATOM     17  N   UNL     1      11.123   8.347  18.704  0.00  0.00    -0.107 NA
ATOM     18  C   UNL     1      11.673   8.315  18.089  0.00  0.00    +0.250 A 
ATOM     19  O   UNL     1      12.381   8.022  18.395  0.00  0.00    -0.419 OA
BRANCH  18  20
ATOM     20  C   UNL     1      11.538   8.536  17.305  0.00  0.00    +0.058 A 
ATOM     21  C   UNL     1      12.152   8.854  16.855  0.00  0.00    +0.025 A 
ATOM     22  C   UNL     1      12.017   9.075  16.072  0.00  0.00    +0.099 A 
ATOM     23  N   UNL     1      11.268   8.978  15.739  0.00  0.00    -0.242 NA
ATOM     24  C   UNL     1      10.655   8.660  16.190  0.00  0.00    +0.099 A 
ATOM     25  C   UNL     1      10.789   8.439  16.972  0.00  0.00    +0.025 A 
ENDBRANCH  18  20
ENDBRANCH  13  15
BRANCH  10   9
ATOM      9  C   UNL     1      14.734   7.525  20.692  0.00  0.00    +0.102 C 
BRANCH   9   8
ATOM      3  C   UNL     1      16.122   7.524  20.348  0.00  0.00    +0.136 A 
ATOM      4  C   UNL     1      16.760   7.179  19.956  0.00  0.00    +0.037 A 
ATOM      5  C   UNL     1      16.651   6.489  19.517  0.00  0.00    +0.003 A 
ATOM      6  C   UNL     1      15.903   6.144  19.470  0.00  0.00    -0.000 A 
ATOM      7  C   UNL     1      15.264   6.490  19.862  0.00  0.00    +0.000 A 
ATOM      8  C   UNL     1      15.374   7.179  20.300  0.00  0.00    +0.028 A 
BRANCH   3   2
ATOM      1  C   UNL     1      16.960   8.367  21.142  0.00  0.00    +0.252 C 
ATOM      2  O   UNL     1      16.230   8.214  20.787  0.00  0.00    -0.472 OA
ENDBRANCH   3   2
ENDBRANCH   9   8
ENDBRANCH  10   9
TORSDOF 5
ENDMDL
