MODEL 1
REMARK VINA RESULT:     -11.4      0.000      0.000
REMARK  Name = 
REMARK  6 active torsions:
REMARK  status: ('A' for Active; 'I' for Inactive)
REMARK    1  A    between atoms: O_2  and  C_3
REMARK    2  A    between atoms: C_6  and  C_7
REMARK    3  A    between atoms: C_7  and  N_8
REMARK    4  A    between atoms: C_11  and  C_13
REMARK    5  A    between atoms: C_16  and  C_18
REMARK    6  A    between atoms: C_21  and  N_24
REMARK                            x       y       z     vdW  Elec       q    Type
REMARK                         _______ _______ _______ _____ _____    ______ ____
ROOT
ATOM      8  N   UNL     1      -3.823   3.656  25.736  0.00  0.00    -0.268 NA
ATOM      9  C   UNL     1      -4.510   3.894  25.347  0.00  0.00    +0.073 C 
ATOM     10  C   UNL     1      -4.896   3.217  25.076  0.00  0.00    +0.028 C 
ATOM     11  C   UNL     1      -4.447   2.561  25.298  0.00  0.00    +0.096 C 
ATOM     12  C   UNL     1      -3.783   2.834  25.706  0.00  0.00    +0.082 C 
ENDROOT
BRANCH  11  13
ATOM     13  C   UNL     1      -4.629   1.773  25.140  0.00  0.00    +0.227 A 
ATOM     14  N   UNL     1      -5.386   1.463  25.025  0.00  0.00    -0.111 NA
ATOM     15  N   UNL     1      -5.312   0.654  24.884  0.00  0.00    -0.107 NA
ATOM     16  C   UNL     1      -4.509   0.463  24.911  0.00  0.00    +0.250 A 
ATOM     17  O   UNL     1      -4.087   1.154  25.070  0.00  0.00    -0.419 OA
BRANCH  16  18
ATOM     18  C   UNL     1      -4.185  -0.288  24.800  0.00  0.00    +0.055 A 
ATOM     19  C   UNL     1      -3.824  -0.679  25.430  0.00  0.00    +0.006 A 
ATOM     20  C   UNL     1      -3.500  -1.429  25.319  0.00  0.00    +0.015 A 
ATOM     21  C   UNL     1      -3.537  -1.789  24.578  0.00  0.00    +0.048 A 
ATOM     22  C   UNL     1      -3.898  -1.398  23.947  0.00  0.00    +0.015 A 
ATOM     23  C   UNL     1      -4.222  -0.648  24.058  0.00  0.00    +0.006 A 
BRANCH  21  24
ATOM     24  N   UNL     1      -3.213  -2.539  24.467  0.00  0.00    -0.304 N 
ATOM     25  C   UNL     1      -3.708  -3.191  24.360  0.00  0.00    +0.112 C 
ATOM     26  C   UNL     1      -2.394  -2.638  24.462  0.00  0.00    +0.112 C 
ENDBRANCH  21  24
ENDBRANCH  16  18
ENDBRANCH  11  13
BRANCH   8   7
ATOM      7  C   UNL     1      -3.271   4.155  26.093  0.00  0.00    +0.099 C 
BRANCH   7   6
ATOM      3  C   UNL     1      -1.026   4.438  25.089  0.00  0.00    +0.139 A 
ATOM      4  C   UNL     1      -1.191   3.774  25.551  0.00  0.00    +0.037 A 
ATOM      5  C   UNL     1      -1.939   3.680  25.886  0.00  0.00    +0.000 A 
ATOM      6  C   UNL     1      -2.522   4.250  25.758  0.00  0.00    -0.006 A 
ATOM     27  C   UNL     1      -2.357   4.913  25.296  0.00  0.00    +0.000 A 
ATOM     28  C   UNL     1      -1.610   5.007  24.962  0.00  0.00    +0.037 A 
BRANCH   3   2
ATOM      1  C   UNL     1      -0.005   3.990  24.194  0.00  0.00    +0.252 C 
ATOM      2  O   UNL     1      -0.278   4.532  24.755  0.00  0.00    -0.471 OA
ENDBRANCH   3   2
ENDBRANCH   7   6
ENDBRANCH   8   7
TORSDOF 6
ENDMDL
MODEL 2
REMARK VINA RESULT:     -10.2      1.815      2.975
REMARK  Name = 
REMARK  6 active torsions:
REMARK  status: ('A' for Active; 'I' for Inactive)
REMARK    1  A    between atoms: O_2  and  C_3
REMARK    2  A    between atoms: C_6  and  C_7
REMARK    3  A    between atoms: C_7  and  N_8
REMARK    4  A    between atoms: C_11  and  C_13
REMARK    5  A    between atoms: C_16  and  C_18
REMARK    6  A    between atoms: C_21  and  N_24
REMARK                            x       y       z     vdW  Elec       q    Type
REMARK                         _______ _______ _______ _____ _____    ______ ____
ROOT
ATOM      8  N   UNL     1      -1.226   3.114  25.513  0.00  0.00    -0.268 NA
ATOM      9  C   UNL     1      -0.523   2.983  25.923  0.00  0.00    +0.073 C 
ATOM     10  C   UNL     1      -0.351   2.177  25.882  0.00  0.00    +0.028 C 
ATOM     11  C   UNL     1      -0.948   1.810  25.447  0.00  0.00    +0.096 C 
ATOM     12  C   UNL     1      -1.490   2.390  25.219  0.00  0.00    +0.082 C 
ENDROOT
BRANCH  11  13
ATOM     13  C   UNL     1      -0.997   1.006  25.270  0.00  0.00    +0.227 A 
ATOM     14  N   UNL     1      -0.358   0.493  25.167  0.00  0.00    -0.111 NA
ATOM     15  N   UNL     1      -0.658  -0.256  24.999  0.00  0.00    -0.107 NA
ATOM     16  C   UNL     1      -1.482  -0.207  24.998  0.00  0.00    +0.250 A 
ATOM     17  O   UNL     1      -1.691   0.573  25.166  0.00  0.00    -0.419 OA
BRANCH  16  18
ATOM     18  C   UNL     1      -2.005  -0.830  24.855  0.00  0.00    +0.055 A 
ATOM     19  C   UNL     1      -2.817  -0.715  24.948  0.00  0.00    +0.006 A 
ATOM     20  C   UNL     1      -3.340  -1.337  24.805  0.00  0.00    +0.015 A 
ATOM     21  C   UNL     1      -3.051  -2.073  24.568  0.00  0.00    +0.048 A 
ATOM     22  C   UNL     1      -2.239  -2.186  24.474  0.00  0.00    +0.015 A 
ATOM     23  C   UNL     1      -1.716  -1.565  24.617  0.00  0.00    +0.006 A 
BRANCH  21  24
ATOM     24  N   UNL     1      -3.574  -2.694  24.425  0.00  0.00    -0.304 N 
ATOM     25  C   UNL     1      -4.186  -2.601  23.880  0.00  0.00    +0.112 C 
ATOM     26  C   UNL     1      -3.484  -3.409  24.826  0.00  0.00    +0.112 C 
ENDBRANCH  21  24
ENDBRANCH  16  18
ENDBRANCH  11  13
BRANCH   8   7
ATOM      7  C   UNL     1      -1.601   3.842  25.415  0.00  0.00    +0.099 C 
BRANCH   7   6
ATOM      3  C   UNL     1      -4.074   3.974  25.430  0.00  0.00    +0.139 A 
ATOM      4  C   UNL     1      -3.670   3.884  24.717  0.00  0.00    +0.037 A 
ATOM      5  C   UNL     1      -2.845   3.840  24.711  0.00  0.00    +0.000 A 
ATOM      6  C   UNL     1      -2.426   3.886  25.420  0.00  0.00    -0.006 A 
ATOM     27  C   UNL     1      -2.830   3.976  26.134  0.00  0.00    +0.000 A 
ATOM     28  C   UNL     1      -3.653   4.020  26.139  0.00  0.00    +0.037 A 
BRANCH   3   2
ATOM      1  C   UNL     1      -5.345   3.342  25.589  0.00  0.00    +0.252 C 
ATOM      2  O   UNL     1      -4.897   4.018  25.435  0.00  0.00    -0.471 OA
ENDBRANCH   3   2
ENDBRANCH   7   6
ENDBRANCH   8   7
TORSDOF 6
ENDMDL
MODEL 3
REMARK VINA RESULT:      -9.5      2.327      6.346
REMARK  Name = 
REMARK  6 active torsions:
REMARK  status: ('A' for Active; 'I' for Inactive)
REMARK    1  A    between atoms: O_2  and  C_3
REMARK    2  A    between atoms: C_6  and  C_7
REMARK    3  A    between atoms: C_7  and  N_8
REMARK    4  A    between atoms: C_11  and  C_13
REMARK    5  A    between atoms: C_16  and  C_18
REMARK    6  A    between atoms: C_21  and  N_24
REMARK                            x       y       z     vdW  Elec       q    Type
REMARK                         _______ _______ _______ _____ _____    ______ ____
ROOT
ATOM      8  N   UNL     1      -0.787  -1.240  24.867  0.00  0.00    -0.268 NA
ATOM      9  C   UNL     1      -0.265  -1.333  24.235  0.00  0.00    +0.073 C 
ATOM     10  C   UNL     1       0.020  -0.586  24.029  0.00  0.00    +0.028 C 
ATOM     11  C   UNL     1      -0.325  -0.033  24.534  0.00  0.00    +0.096 C 
ATOM     12  C   UNL     1      -0.824  -0.438  25.052  0.00  0.00    +0.082 C 
ENDROOT
BRANCH  11  13
ATOM     13  C   UNL     1      -0.195   0.781  24.524  0.00  0.00    +0.227 A 
ATOM     14  N   UNL     1       0.501   1.158  24.288  0.00  0.00    -0.111 NA
ATOM     15  N   UNL     1       0.389   1.971  24.366  0.00  0.00    -0.107 NA
ATOM     16  C   UNL     1      -0.376   2.098  24.649  0.00  0.00    +0.250 A 
ATOM     17  O   UNL     1      -0.736   1.362  24.747  0.00  0.00    -0.419 OA
BRANCH  16  18
ATOM     18  C   UNL     1      -0.720   2.831  24.807  0.00  0.00    +0.055 A 
ATOM     19  C   UNL     1      -0.609   3.460  24.284  0.00  0.00    +0.006 A 
ATOM     20  C   UNL     1      -0.953   4.193  24.442  0.00  0.00    +0.015 A 
ATOM     21  C   UNL     1      -1.407   4.298  25.123  0.00  0.00    +0.048 A 
ATOM     22  C   UNL     1      -1.517   3.669  25.645  0.00  0.00    +0.015 A 
ATOM     23  C   UNL     1      -1.174   2.936  25.488  0.00  0.00    +0.006 A 
BRANCH  21  24
ATOM     24  N   UNL     1      -1.750   5.030  25.280  0.00  0.00    -0.304 N 
ATOM     25  C   UNL     1      -2.475   5.071  25.673  0.00  0.00    +0.112 C 
ATOM     26  C   UNL     1      -1.369   5.723  25.045  0.00  0.00    +0.112 C 
ENDBRANCH  21  24
ENDBRANCH  16  18
ENDBRANCH  11  13
BRANCH   8   7
ATOM      7  C   UNL     1      -1.199  -1.845  25.247  0.00  0.00    +0.099 C 
BRANCH   7   6
ATOM      3  C   UNL     1      -3.498  -2.418  24.530  0.00  0.00    +0.139 A 
ATOM      4  C   UNL     1      -3.378  -1.849  25.115  0.00  0.00    +0.037 A 
ATOM      5  C   UNL     1      -2.611  -1.658  25.354  0.00  0.00    +0.000 A 
ATOM      6  C   UNL     1      -1.966  -2.036  25.008  0.00  0.00    -0.006 A 
ATOM     27  C   UNL     1      -2.085  -2.606  24.423  0.00  0.00    +0.000 A 
ATOM     28  C   UNL     1      -2.851  -2.796  24.184  0.00  0.00    +0.037 A 
BRANCH   3   2
ATOM      1  C   UNL     1      -4.583  -2.261  23.613  0.00  0.00    +0.252 C 
ATOM      2  O   UNL     1      -4.264  -2.609  24.291  0.00  0.00    -0.471 OA
ENDBRANCH   3   2
ENDBRANCH   7   6
ENDBRANCH   8   7
TORSDOF 6
ENDMDL
