MODEL 1
REMARK VINA RESULT:      -8.5      0.000      0.000
REMARK  Name = 
REMARK  4 active torsions:
REMARK  status: ('A' for Active; 'I' for Inactive)
REMARK    1  A    between atoms: O_2  and  C_3
REMARK    2  A    between atoms: N_8  and  C_9
REMARK    3  A    between atoms: C_9  and  C_10
REMARK    4  A    between atoms: C_13  and  O_14
REMARK                            x       y       z     vdW  Elec       q    Type
REMARK                         _______ _______ _______ _____ _____    ______ ____
ROOT
ATOM      3  C   UNL     1      -2.874   2.451  24.797  0.00  0.00    +0.161 C 
ATOM      4  C   UNL     1      -2.369   2.629  24.169  0.00  0.00    +0.173 C 
ATOM      5  O   UNL     1      -2.312   2.258  23.435  0.00  0.00    -0.350 OA
ATOM      6  C   UNL     1      -2.746   1.618  23.147  0.00  0.00    +0.160 C 
ATOM      7  C   UNL     1      -3.343   1.191  23.522  0.00  0.00    +0.105 C 
ATOM      8  N   UNL     1      -3.655   1.298  24.279  0.00  0.00    -0.265 NA
ATOM     18  C   UNL     1      -3.446   1.859  24.847  0.00  0.00    +0.105 C 
ENDROOT
BRANCH   3   2
ATOM      1  C   UNL     1      -2.708   3.746  25.381  0.00  0.00    +0.174 C 
ATOM      2  O   UNL     1      -2.796   2.929  25.465  0.00  0.00    -0.350 OA
ENDBRANCH   3   2
BRANCH   8   9
ATOM      9  C   UNL     1      -4.255   0.775  24.496  0.00  0.00    +0.099 C 
BRANCH   9  10
ATOM     10  C   UNL     1      -4.074  -0.011  24.668  0.00  0.00    -0.006 A 
ATOM     11  C   UNL     1      -4.182  -0.595  24.094  0.00  0.00    +0.000 A 
ATOM     12  C   UNL     1      -4.001  -1.381  24.265  0.00  0.00    +0.037 A 
ATOM     13  C   UNL     1      -3.712  -1.584  25.011  0.00  0.00    +0.139 A 
ATOM     16  C   UNL     1      -3.604  -1.001  25.585  0.00  0.00    +0.037 A 
ATOM     17  C   UNL     1      -3.785  -0.215  25.413  0.00  0.00    +0.000 A 
BRANCH  13  14
ATOM     14  O   UNL     1      -3.531  -2.370  25.183  0.00  0.00    -0.471 OA
ATOM     15  C   UNL     1      -3.320  -2.887  24.576  0.00  0.00    +0.252 C 
ENDBRANCH  13  14
ENDBRANCH   9  10
ENDBRANCH   8   9
TORSDOF 4
ENDMDL
MODEL 2
REMARK VINA RESULT:      -8.4      1.099      1.656
REMARK  Name = 
REMARK  4 active torsions:
REMARK  status: ('A' for Active; 'I' for Inactive)
REMARK    1  A    between atoms: O_2  and  C_3
REMARK    2  A    between atoms: N_8  and  C_9
REMARK    3  A    between atoms: C_9  and  C_10
REMARK    4  A    between atoms: C_13  and  O_14
REMARK                            x       y       z     vdW  Elec       q    Type
REMARK                         _______ _______ _______ _____ _____    ______ ____
ROOT
ATOM      3  C   UNL     1      -3.801   3.032  25.231  0.00  0.00    +0.161 C 
ATOM      4  C   UNL     1      -4.523   3.279  25.547  0.00  0.00    +0.173 C 
ATOM      5  O   UNL     1      -5.257   2.905  25.502  0.00  0.00    -0.350 OA
ATOM      6  C   UNL     1      -5.451   2.194  25.131  0.00  0.00    +0.160 C 
ATOM      7  C   UNL     1      -4.959   1.681  24.714  0.00  0.00    +0.105 C 
ATOM      8  N   UNL     1      -4.151   1.751  24.564  0.00  0.00    -0.265 NA
ATOM     18  C   UNL     1      -3.635   2.353  24.794  0.00  0.00    +0.105 C 
ENDROOT
BRANCH   3   2
ATOM      1  C   UNL     1      -3.113   3.955  26.079  0.00  0.00    +0.174 C 
ATOM      2  O   UNL     1      -3.160   3.532  25.372  0.00  0.00    -0.350 OA
ENDBRANCH   3   2
BRANCH   8   9
ATOM      9  C   UNL     1      -3.814   1.139  24.125  0.00  0.00    +0.099 C 
BRANCH   9  10
ATOM     10  C   UNL     1      -3.750   0.385  24.452  0.00  0.00    -0.006 A 
ATOM     11  C   UNL     1      -3.131   0.210  24.970  0.00  0.00    +0.000 A 
ATOM     12  C   UNL     1      -3.066  -0.544  25.297  0.00  0.00    +0.037 A 
ATOM     13  C   UNL     1      -3.621  -1.125  25.107  0.00  0.00    +0.139 A 
ATOM     16  C   UNL     1      -4.239  -0.951  24.590  0.00  0.00    +0.037 A 
ATOM     17  C   UNL     1      -4.303  -0.196  24.262  0.00  0.00    +0.000 A 
BRANCH  13  14
ATOM     14  O   UNL     1      -3.556  -1.879  25.434  0.00  0.00    -0.471 OA
ATOM     15  C   UNL     1      -3.281  -2.507  24.973  0.00  0.00    +0.252 C 
ENDBRANCH  13  14
ENDBRANCH   9  10
ENDBRANCH   8   9
TORSDOF 4
ENDMDL
MODEL 3
REMARK VINA RESULT:      -8.1      2.184      2.503
REMARK  Name = 
REMARK  4 active torsions:
REMARK  status: ('A' for Active; 'I' for Inactive)
REMARK    1  A    between atoms: O_2  and  C_3
REMARK    2  A    between atoms: N_8  and  C_9
REMARK    3  A    between atoms: C_9  and  C_10
REMARK    4  A    between atoms: C_13  and  O_14
REMARK                            x       y       z     vdW  Elec       q    Type
REMARK                         _______ _______ _______ _____ _____    ______ ____
ROOT
ATOM      3  C   UNL     1      -0.774   1.209  25.217  0.00  0.00    +0.161 C 
ATOM      4  C   UNL     1      -0.370   1.418  24.528  0.00  0.00    +0.173 C 
ATOM      5  O   UNL     1      -0.084   0.925  23.932  0.00  0.00    -0.350 OA
ATOM      6  C   UNL     1      -0.129   0.103  23.877  0.00  0.00    +0.160 C 
ATOM      7  C   UNL     1      -0.473  -0.429  24.405  0.00  0.00    +0.105 C 
ATOM      8  N   UNL     1      -0.856  -0.271  25.118  0.00  0.00    -0.265 NA
ATOM     18  C   UNL     1      -0.990   0.458  25.480  0.00  0.00    +0.105 C 
ENDROOT
BRANCH   3   2
ATOM      1  C   UNL     1      -0.473   2.470  25.820  0.00  0.00    +0.174 C 
ATOM      2  O   UNL     1      -0.990   1.836  25.708  0.00  0.00    -0.350 OA
ENDBRANCH   3   2
BRANCH   8   9
ATOM      9  C   UNL     1      -1.143  -0.930  25.524  0.00  0.00    +0.099 C 
BRANCH   9  10
ATOM     10  C   UNL     1      -1.833  -1.303  25.267  0.00  0.00    -0.006 A 
ATOM     11  C   UNL     1      -2.568  -1.047  25.542  0.00  0.00    +0.000 A 
ATOM     12  C   UNL     1      -3.258  -1.420  25.286  0.00  0.00    +0.037 A 
ATOM     13  C   UNL     1      -3.212  -2.050  24.755  0.00  0.00    +0.139 A 
ATOM     16  C   UNL     1      -2.478  -2.307  24.481  0.00  0.00    +0.037 A 
ATOM     17  C   UNL     1      -1.789  -1.933  24.737  0.00  0.00    +0.000 A 
BRANCH  13  14
ATOM     14  O   UNL     1      -3.901  -2.424  24.499  0.00  0.00    -0.471 OA
ATOM     15  C   UNL     1      -4.288  -2.157  23.820  0.00  0.00    +0.252 C 
ENDBRANCH  13  14
ENDBRANCH   9  10
ENDBRANCH   8   9
TORSDOF 4
ENDMDL
MODEL 4
REMARK VINA RESULT:      -8.0      1.742      3.542
REMARK  Name = 
REMARK  4 active torsions:
REMARK  status: ('A' for Active; 'I' for Inactive)
REMARK    1  A    between atoms: O_2  and  C_3
REMARK    2  A    between atoms: N_8  and  C_9
REMARK    3  A    between atoms: C_9  and  C_10
REMARK    4  A    between atoms: C_13  and  O_14
REMARK                            x       y       z     vdW  Elec       q    Type
REMARK                         _______ _______ _______ _____ _____    ______ ____
ROOT
ATOM      3  C   UNL     1      -1.750  -0.072  24.869  0.00  0.00    +0.161 C 
ATOM      4  C   UNL     1      -1.664  -0.593  25.502  0.00  0.00    +0.173 C 
ATOM      5  O   UNL     1      -2.250  -1.004  25.912  0.00  0.00    -0.350 OA
ATOM      6  C   UNL     1      -3.066  -0.996  25.790  0.00  0.00    +0.160 C 
ATOM      7  C   UNL     1      -3.497  -0.574  25.227  0.00  0.00    +0.105 C 
ATOM      8  N   UNL     1      -3.220  -0.056  24.648  0.00  0.00    -0.265 NA
ATOM     18  C   UNL     1      -2.441   0.168  24.488  0.00  0.00    +0.105 C 
ENDROOT
BRANCH   3   2
ATOM      1  C   UNL     1      -0.429  -0.238  24.347  0.00  0.00    +0.174 C 
ATOM      2  O   UNL     1      -1.050   0.254  24.576  0.00  0.00    -0.350 OA
ENDBRANCH   3   2
BRANCH   8   9
ATOM      9  C   UNL     1      -3.796   0.282  24.165  0.00  0.00    +0.099 C 
BRANCH   9  10
ATOM     10  C   UNL     1      -4.183   0.969  24.405  0.00  0.00    -0.006 A 
ATOM     11  C   UNL     1      -4.846   0.920  24.895  0.00  0.00    +0.000 A 
ATOM     12  C   UNL     1      -5.234   1.607  25.135  0.00  0.00    +0.037 A 
ATOM     13  C   UNL     1      -4.959   2.344  24.885  0.00  0.00    +0.139 A 
ATOM     16  C   UNL     1      -4.297   2.394  24.396  0.00  0.00    +0.037 A 
ATOM     17  C   UNL     1      -3.909   1.706  24.156  0.00  0.00    +0.000 A 
BRANCH  13  14
ATOM     14  O   UNL     1      -5.346   3.032  25.125  0.00  0.00    -0.471 OA
ATOM     15  C   UNL     1      -5.007   3.518  25.700  0.00  0.00    +0.252 C 
ENDBRANCH  13  14
ENDBRANCH   9  10
ENDBRANCH   8   9
TORSDOF 4
ENDMDL
