MODEL 1
REMARK VINA RESULT:     -11.5      0.000      0.000
REMARK  Name = 
REMARK  2 active torsions:
REMARK  status: ('A' for Active; 'I' for Inactive)
REMARK    1  A    between atoms: C_7  and  C_8
REMARK    2  A    between atoms: C_10  and  C_13
REMARK                            x       y       z     vdW  Elec       q    Type
REMARK                         _______ _______ _______ _____ _____    ______ ____
ROOT
ATOM      8  C   UNL     1      -4.188   1.601  24.708  0.00  0.00    +0.251 A 
ATOM      9  N   UNL     1      -4.209   0.862  25.075  0.00  0.00    -0.190 NA
ATOM     10  C   UNL     1      -3.875   0.312  24.559  0.00  0.00    +0.203 A 
ATOM     11  N   UNL     1      -3.647   0.710  23.874  0.00  0.00    -0.056 NA
ATOM     12  O   UNL     1      -3.840   1.506  23.966  0.00  0.00    -0.336 OA
ENDROOT
BRANCH   8   7
ATOM      1  C   UNL     1      -3.187   3.020  25.155  0.00  0.00    +0.090 C 
ATOM      2  N   UNL     1      -4.006   2.961  25.232  0.00  0.00    -0.263 NA
ATOM      3  C   UNL     1      -4.508   3.545  25.529  0.00  0.00    +0.106 C 
ATOM      4  C   UNL     1      -5.280   3.252  25.507  0.00  0.00    +0.170 C 
ATOM      5  O   UNL     1      -5.957   3.653  25.753  0.00  0.00    -0.222 OA
ATOM      6  C   UNL     1      -5.254   2.488  25.197  0.00  0.00    +0.060 C 
ATOM      7  C   UNL     1      -4.466   2.308  25.027  0.00  0.00    +0.140 C 
ENDBRANCH   8   7
BRANCH  10  13
ATOM     13  C   UNL     1      -3.784  -0.496  24.704  0.00  0.00    +0.039 A 
ATOM     14  C   UNL     1      -3.417  -0.751  25.397  0.00  0.00    +0.003 A 
ATOM     15  C   UNL     1      -3.327  -1.559  25.542  0.00  0.00    -0.000 A 
ATOM     16  C   UNL     1      -3.602  -2.110  24.993  0.00  0.00    -0.004 A 
ATOM     17  C   UNL     1      -3.969  -1.854  24.300  0.00  0.00    -0.022 A 
ATOM     18  C   UNL     1      -4.245  -2.405  23.751  0.00  0.00    +0.031 C 
ATOM     19  C   UNL     1      -4.060  -1.047  24.155  0.00  0.00    -0.001 A 
ENDBRANCH  10  13
TORSDOF 2
ENDMDL
MODEL 2
REMARK VINA RESULT:     -10.5      1.371      4.236
REMARK  Name = 
REMARK  2 active torsions:
REMARK  status: ('A' for Active; 'I' for Inactive)
REMARK    1  A    between atoms: C_7  and  C_8
REMARK    2  A    between atoms: C_10  and  C_13
REMARK                            x       y       z     vdW  Elec       q    Type
REMARK                         _______ _______ _______ _____ _____    ______ ____
ROOT
ATOM      8  C   UNL     1      -3.759  -0.225  24.382  0.00  0.00    +0.251 A 
ATOM      9  N   UNL     1      -4.253   0.238  24.855  0.00  0.00    -0.190 NA
ATOM     10  C   UNL     1      -4.239   1.008  24.560  0.00  0.00    +0.203 A 
ATOM     11  N   UNL     1      -3.737   1.021  23.906  0.00  0.00    -0.056 NA
ATOM     12  O   UNL     1      -3.441   0.260  23.796  0.00  0.00    -0.336 OA
ENDROOT
BRANCH   8   7
ATOM      1  C   UNL     1      -2.467  -0.943  25.399  0.00  0.00    +0.090 C 
ATOM      2  N   UNL     1      -3.017  -1.360  24.947  0.00  0.00    -0.263 NA
ATOM      3  C   UNL     1      -3.068  -2.181  24.883  0.00  0.00    +0.106 C 
ATOM      4  C   UNL     1      -3.694  -2.359  24.376  0.00  0.00    +0.170 C 
ATOM      5  O   UNL     1      -3.941  -3.114  24.157  0.00  0.00    -0.222 OA
ATOM      6  C   UNL     1      -4.029  -1.647  24.126  0.00  0.00    +0.060 C 
ATOM      7  C   UNL     1      -3.610  -1.030  24.480  0.00  0.00    +0.140 C 
ENDBRANCH   8   7
BRANCH  10  13
ATOM     13  C   UNL     1      -4.655   1.652  24.866  0.00  0.00    +0.039 A 
ATOM     14  C   UNL     1      -5.471   1.601  24.975  0.00  0.00    +0.003 A 
ATOM     15  C   UNL     1      -5.887   2.245  25.281  0.00  0.00    -0.000 A 
ATOM     16  C   UNL     1      -5.486   2.939  25.479  0.00  0.00    -0.004 A 
ATOM     17  C   UNL     1      -4.670   2.989  25.370  0.00  0.00    -0.022 A 
ATOM     18  C   UNL     1      -4.269   3.683  25.567  0.00  0.00    +0.031 C 
ATOM     19  C   UNL     1      -4.254   2.345  25.064  0.00  0.00    -0.001 A 
ENDBRANCH  10  13
TORSDOF 2
ENDMDL
