MODEL 1
REMARK VINA RESULT:     -11.5      0.000      0.000
REMARK  Name = 
REMARK  5 active torsions:
REMARK  status: ('A' for Active; 'I' for Inactive)
REMARK    1  A    between atoms: C_2  and  N_3
REMARK    2  A    between atoms: C_4  and  C_10
REMARK    3  A    between atoms: C_10  and  C_12
REMARK    4  A    between atoms: C_15  and  N_16
REMARK    5  A    between atoms: C_17  and  C_19
REMARK                            x       y       z     vdW  Elec       q    Type
REMARK                         _______ _______ _______ _____ _____    ______ ____
ROOT
ATOM     12  C   UNL     1      -3.854   0.583  24.521  0.00  0.00    +0.010 A 
ATOM     13  C   UNL     1      -4.154   1.210  24.965  0.00  0.00    -0.000 A 
ATOM     14  C   UNL     1      -3.777   1.943  24.951  0.00  0.00    +0.016 A 
ATOM     15  C   UNL     1      -3.098   2.050  24.493  0.00  0.00    +0.073 A 
ATOM     25  C   UNL     1      -2.798   1.423  24.049  0.00  0.00    +0.016 A 
ATOM     26  C   UNL     1      -3.175   0.689  24.062  0.00  0.00    -0.000 A 
ENDROOT
BRANCH  15  16
ATOM     16  N   UNL     1      -2.721   2.784  24.479  0.00  0.00    -0.179 NA
ATOM     17  C   UNL     1      -2.130   2.955  25.029  0.00  0.00    +0.245 C 
ATOM     18  O   UNL     1      -1.916   2.391  25.593  0.00  0.00    -0.273 OA
BRANCH  17  19
ATOM     19  C   UNL     1      -1.753   3.688  25.015  0.00  0.00    +0.079 C 
ATOM     20  C   UNL     1      -2.157   4.364  25.261  0.00  0.00    +0.009 C 
ATOM     21  C   UNL     1      -1.780   5.098  25.247  0.00  0.00    +0.000 C 
ATOM     22  C   UNL     1      -0.998   5.155  24.988  0.00  0.00    +0.000 C 
ATOM     23  C   UNL     1      -0.594   4.479  24.743  0.00  0.00    +0.000 C 
ATOM     24  C   UNL     1      -0.972   3.746  24.756  0.00  0.00    +0.009 C 
ENDBRANCH  17  19
ENDBRANCH  15  16
BRANCH  12  10
ATOM     10  C   UNL     1      -4.231  -0.150  24.535  0.00  0.00    +0.195 C 
ATOM     11  O   UNL     1      -4.931  -0.262  24.113  0.00  0.00    -0.216 OA
BRANCH  10   4
ATOM      3  N   UNL     1      -3.875  -1.530  24.645  0.00  0.00    -0.274 N 
ATOM      4  C   UNL     1      -3.908  -0.773  24.970  0.00  0.00    +0.139 C 
ATOM      5  C   UNL     1      -3.619  -0.637  25.731  0.00  0.00    +0.165 C 
ATOM      6  O   UNL     1      -3.296  -1.259  26.167  0.00  0.00    -0.343 OA
ATOM      7  C   UNL     1      -3.263  -2.017  25.842  0.00  0.00    +0.227 C 
ATOM      8  C   UNL     1      -3.553  -2.153  25.080  0.00  0.00    +0.256 C 
ATOM      9  O   UNL     1      -3.520  -2.910  24.756  0.00  0.00    -0.272 OA
BRANCH   3   2
ATOM      1  C   UNL     1      -4.228  -2.438  23.598  0.00  0.00    +0.023 C 
ATOM      2  C   UNL     1      -4.164  -1.666  23.885  0.00  0.00    +0.094 C 
ENDBRANCH   3   2
ENDBRANCH  10   4
ENDBRANCH  12  10
TORSDOF 5
ENDMDL
MODEL 2
REMARK VINA RESULT:     -11.2      1.139      5.337
REMARK  Name = 
REMARK  5 active torsions:
REMARK  status: ('A' for Active; 'I' for Inactive)
REMARK    1  A    between atoms: C_2  and  N_3
REMARK    2  A    between atoms: C_4  and  C_10
REMARK    3  A    between atoms: C_10  and  C_12
REMARK    4  A    between atoms: C_15  and  N_16
REMARK    5  A    between atoms: C_17  and  C_19
REMARK                            x       y       z     vdW  Elec       q    Type
REMARK                         _______ _______ _______ _____ _____    ______ ____
ROOT
ATOM     12  C   UNL     1      -3.397   2.249  24.239  0.00  0.00    +0.010 A 
ATOM     13  C   UNL     1      -3.277   1.798  23.558  0.00  0.00    -0.000 A 
ATOM     14  C   UNL     1      -3.458   0.994  23.558  0.00  0.00    +0.016 A 
ATOM     15  C   UNL     1      -3.761   0.639  24.240  0.00  0.00    +0.073 A 
ATOM     25  C   UNL     1      -3.881   1.089  24.920  0.00  0.00    +0.016 A 
ATOM     26  C   UNL     1      -3.700   1.894  24.921  0.00  0.00    -0.000 A 
ENDROOT
BRANCH  15  16
ATOM     16  N   UNL     1      -3.942  -0.166  24.239  0.00  0.00    -0.179 NA
ATOM     17  C   UNL     1      -3.353  -0.722  24.391  0.00  0.00    +0.245 C 
ATOM     18  O   UNL     1      -2.580  -0.474  24.543  0.00  0.00    -0.273 OA
BRANCH  17  19
ATOM     19  C   UNL     1      -3.535  -1.527  24.390  0.00  0.00    +0.079 C 
ATOM     20  C   UNL     1      -4.053  -1.833  23.827  0.00  0.00    +0.009 C 
ATOM     21  C   UNL     1      -4.235  -2.638  23.827  0.00  0.00    +0.000 C 
ATOM     22  C   UNL     1      -3.897  -3.137  24.390  0.00  0.00    +0.000 C 
ATOM     23  C   UNL     1      -3.377  -2.831  24.954  0.00  0.00    +0.000 C 
ATOM     24  C   UNL     1      -3.196  -2.026  24.953  0.00  0.00    +0.009 C 
ENDBRANCH  17  19
ENDBRANCH  15  16
BRANCH  12  10
ATOM     10  C   UNL     1      -3.216   3.053  24.239  0.00  0.00    +0.195 C 
ATOM     11  O   UNL     1      -3.798   3.607  24.052  0.00  0.00    -0.216 OA
BRANCH  10   4
ATOM      3  N   UNL     1      -2.338   3.894  24.991  0.00  0.00    -0.274 N 
ATOM      4  C   UNL     1      -2.452   3.305  24.426  0.00  0.00    +0.139 C 
ATOM      5  C   UNL     1      -1.802   2.966  24.046  0.00  0.00    +0.165 C 
ATOM      6  O   UNL     1      -1.039   3.216  24.233  0.00  0.00    -0.343 OA
ATOM      7  C   UNL     1      -0.924   3.806  24.798  0.00  0.00    +0.227 C 
ATOM      8  C   UNL     1      -1.575   4.145  25.178  0.00  0.00    +0.256 C 
ATOM      9  O   UNL     1      -1.461   4.734  25.744  0.00  0.00    -0.272 OA
BRANCH   3   2
ATOM      1  C   UNL     1      -2.913   4.520  26.141  0.00  0.00    +0.023 C 
ATOM      2  C   UNL     1      -2.988   4.232  25.371  0.00  0.00    +0.094 C 
ENDBRANCH   3   2
ENDBRANCH  10   4
ENDBRANCH  12  10
TORSDOF 5
ENDMDL
MODEL 3
REMARK VINA RESULT:     -10.4      1.478      1.936
REMARK  Name = 
REMARK  5 active torsions:
REMARK  status: ('A' for Active; 'I' for Inactive)
REMARK    1  A    between atoms: C_2  and  N_3
REMARK    2  A    between atoms: C_4  and  C_10
REMARK    3  A    between atoms: C_10  and  C_12
REMARK    4  A    between atoms: C_15  and  N_16
REMARK    5  A    between atoms: C_17  and  C_19
REMARK                            x       y       z     vdW  Elec       q    Type
REMARK                         _______ _______ _______ _____ _____    ______ ____
ROOT
ATOM     12  C   UNL     1      -1.288  -0.026  25.140  0.00  0.00    +0.010 A 
ATOM     13  C   UNL     1      -1.010   0.398  25.792  0.00  0.00    -0.000 A 
ATOM     14  C   UNL     1      -0.896   1.213  25.736  0.00  0.00    +0.016 A 
ATOM     15  C   UNL     1      -1.061   1.606  25.028  0.00  0.00    +0.073 A 
ATOM     25  C   UNL     1      -1.339   1.183  24.378  0.00  0.00    +0.016 A 
ATOM     26  C   UNL     1      -1.452   0.367  24.433  0.00  0.00    -0.000 A 
ENDROOT
BRANCH  15  16
ATOM     16  N   UNL     1      -0.947   2.421  24.974  0.00  0.00    -0.179 NA
ATOM     17  C   UNL     1      -1.560   2.937  25.166  0.00  0.00    +0.245 C 
ATOM     18  O   UNL     1      -2.289   2.638  25.415  0.00  0.00    -0.273 OA
BRANCH  17  19
ATOM     19  C   UNL     1      -1.446   3.753  25.111  0.00  0.00    +0.079 C 
ATOM     20  C   UNL     1      -0.757   4.052  24.772  0.00  0.00    +0.009 C 
ATOM     21  C   UNL     1      -0.643   4.867  24.718  0.00  0.00    +0.000 C 
ATOM     22  C   UNL     1      -1.220   5.384  25.002  0.00  0.00    +0.000 C 
ATOM     23  C   UNL     1      -1.911   5.085  25.342  0.00  0.00    +0.000 C 
ATOM     24  C   UNL     1      -2.023   4.269  25.396  0.00  0.00    +0.009 C 
ENDBRANCH  17  19
ENDBRANCH  15  16
BRANCH  12  10
ATOM     10  C   UNL     1      -1.401  -0.840  25.196  0.00  0.00    +0.195 C 
ATOM     11  O   UNL     1      -0.754  -1.350  25.152  0.00  0.00    -0.216 OA
BRANCH  10   4
ATOM      3  N   UNL     1      -2.395  -1.816  24.876  0.00  0.00    -0.274 N 
ATOM      4  C   UNL     1      -2.161  -1.146  25.295  0.00  0.00    +0.139 C 
ATOM      5  C   UNL     1      -2.688  -0.780  25.815  0.00  0.00    +0.165 C 
ATOM      6  O   UNL     1      -3.448  -1.085  25.914  0.00  0.00    -0.343 OA
ATOM      7  C   UNL     1      -3.682  -1.756  25.495  0.00  0.00    +0.227 C 
ATOM      8  C   UNL     1      -3.155  -2.122  24.975  0.00  0.00    +0.256 C 
ATOM      9  O   UNL     1      -3.388  -2.792  24.556  0.00  0.00    -0.272 OA
BRANCH   3   2
ATOM      1  C   UNL     1      -2.043  -2.928  24.048  0.00  0.00    +0.023 C 
ATOM      2  C   UNL     1      -1.868  -2.182  24.357  0.00  0.00    +0.094 C 
ENDBRANCH   3   2
ENDBRANCH  10   4
ENDBRANCH  12  10
TORSDOF 5
ENDMDL
