REMARK  Name = 
REMARK  9 active torsions:
REMARK  status: ('A' for Active; 'I' for Inactive)
REMARK    1  A    between atoms: C_4  and  N_23
REMARK    2  A    between atoms: C_6  and  C_7
REMARK    3  A    between atoms: C_9  and  C_12
REMARK    4  A    between atoms: C_15  and  O_16
REMARK    5  A    between atoms: O_16  and  C_17
REMARK    6  A    between atoms: C_24  and  C_26
REMARK    7  A    between atoms: C_26  and  C_27
REMARK    8  A    between atoms: C_27  and  C_30
REMARK    9  A    between atoms: C_30  and  C_31
REMARK                            x       y       z     vdW  Elec       q    Type
REMARK                         _______ _______ _______ _____ _____    ______ ____
ROOT
ATOM      1  C   UNL     1      -0.596  -2.216   0.000  0.00  0.00    +0.090 C 
ATOM      2  N   UNL     1      -0.596  -3.041   0.000  0.00  0.00    -0.264 NA
ATOM      3  C   UNL     1       0.072  -3.525   0.000  0.00  0.00    +0.094 C 
ATOM      4  C   UNL     1      -0.183  -4.310   0.000  0.00  0.00    +0.113 C 
ATOM      5  C   UNL     1      -1.008  -4.310   0.000  0.00  0.00    +0.049 C 
ATOM      6  C   UNL     1      -1.263  -3.525   0.000  0.00  0.00    +0.139 C 
ENDROOT
BRANCH   6   7
ATOM      7  C   UNL     1      -2.047  -3.270   0.000  0.00  0.00    +0.251 A 
ATOM      8  N   UNL     1      -2.715  -3.755   0.000  0.00  0.00    -0.190 NA
ATOM      9  C   UNL     1      -3.382  -3.270   0.000  0.00  0.00    +0.203 A 
ATOM     10  N   UNL     1      -3.127  -2.486   0.000  0.00  0.00    -0.056 NA
ATOM     11  O   UNL     1      -2.303  -2.486   0.000  0.00  0.00    -0.336 OA
BRANCH   9  12
ATOM     12  C   UNL     1      -4.167  -3.525   0.000  0.00  0.00    +0.039 A 
ATOM     13  C   UNL     1      -4.338  -4.332   0.000  0.00  0.00    +0.006 A 
ATOM     14  C   UNL     1      -5.123  -4.587   0.000  0.00  0.00    +0.037 A 
ATOM     15  C   UNL     1      -5.736  -4.035   0.000  0.00  0.00    +0.147 A 
ATOM     21  C   UNL     1      -5.565  -3.228   0.000  0.00  0.00    +0.037 A 
ATOM     22  C   UNL     1      -4.780  -2.973   0.000  0.00  0.00    +0.006 A 
BRANCH  15  16
ATOM     16  O   UNL     1      -6.521  -4.290   0.000  0.00  0.00    -0.404 OA
BRANCH  16  17
ATOM     17  C   UNL     1      -7.134  -3.738   0.000  0.00  0.00    +0.575 C 
ATOM     18  F   UNL     1      -7.747  -3.186   0.000  0.00  0.00    -0.133 F 
ATOM     19  F   UNL     1      -7.686  -4.351   0.000  0.00  0.00    -0.133 F 
ATOM     20  F   UNL     1      -6.582  -3.125   0.000  0.00  0.00    -0.133 F 
ENDBRANCH  16  17
ENDBRANCH  15  16
ENDBRANCH   9  12
ENDBRANCH   6   7
BRANCH   4  23
ATOM     23  N   UNL     1       0.302  -4.977   0.000  0.00  0.00    -0.206 NA
ATOM     24  C   UNL     1       1.123  -4.891   0.000  0.00  0.00    +0.241 C 
ATOM     25  O   UNL     1       1.458  -4.138   0.000  0.00  0.00    -0.273 OA
BRANCH  24  26
ATOM     26  C   UNL     1       1.607  -5.559   0.000  0.00  0.00    +0.087 C 
BRANCH  26  27
ATOM     27  C   UNL     1       2.428  -5.472   0.000  0.00  0.00    +0.019 C 
ATOM     28  C   UNL     1       2.514  -6.293   0.000  0.00  0.00    +0.001 C 
ATOM     29  C   UNL     1       2.342  -4.652   0.000  0.00  0.00    +0.001 C 
BRANCH  27  30
ATOM     30  C   UNL     1       3.248  -5.386   0.000  0.00  0.00    +0.115 C 
BRANCH  30  31
ATOM     31  C   UNL     1       3.733  -6.054   0.000  0.00  0.00    +0.365 C 
ATOM     32  O   UNL     1       4.554  -5.967   0.000  0.00  0.00    -0.246 OA
ATOM     33  O   UNL     1       3.398  -6.807   0.000  0.00  0.00    -0.246 OA
ENDBRANCH  30  31
ENDBRANCH  27  30
ENDBRANCH  26  27
ENDBRANCH  24  26
ENDBRANCH   4  23
TORSDOF 9
