MODEL 1
REMARK VINA RESULT:      -9.1      0.000      0.000
REMARK  Name = 
REMARK  12 active torsions:
REMARK  status: ('A' for Active; 'I' for Inactive)
REMARK    1  A    between atoms: O_2  and  C_3
REMARK    2  A    between atoms: C_6  and  C_7
REMARK    3  A    between atoms: C_7  and  C_8
REMARK    4  A    between atoms: C_8  and  N_9
REMARK    5  A    between atoms: C_8  and  C_31
REMARK    6  A    between atoms: C_10  and  C_12
REMARK    7  A    between atoms: C_14  and  N_25
REMARK    8  A    between atoms: C_18  and  C_20
REMARK    9  A    between atoms: C_20  and  C_21
REMARK   10  A    between atoms: C_21  and  C_22
REMARK   11  A    between atoms: C_26  and  C_28
REMARK   12  A    between atoms: C_28  and  S_29
REMARK                            x       y       z     vdW  Elec       q    Type
REMARK                         _______ _______ _______ _____ _____    ______ ____
ROOT
ATOM     12  C   UNL     1      -1.610   0.180  24.508  0.00  0.00    +0.155 C 
ATOM     13  C   UNL     1      -0.843   0.433  24.345  0.00  0.00    +0.051 C 
ATOM     14  C   UNL     1      -0.247  -0.120  24.204  0.00  0.00    +0.099 C 
ATOM     15  C   UNL     1      -0.420  -0.927  24.227  0.00  0.00    +0.043 C 
ATOM     16  C   UNL     1      -1.187  -1.180  24.390  0.00  0.00    +0.096 C 
ATOM     17  N   UNL     1      -1.783  -0.627  24.531  0.00  0.00    -0.273 N 
ATOM     18  C   UNL     1      -2.551  -0.880  24.694  0.00  0.00    +0.227 C 
ATOM     19  O   UNL     1      -3.146  -0.326  24.835  0.00  0.00    -0.275 OA
ENDROOT
BRANCH  12  10
ATOM      9  N   UNL     1      -2.185   1.468  24.275  0.00  0.00    -0.196 NA
ATOM     10  C   UNL     1      -2.206   0.733  24.649  0.00  0.00    +0.260 C 
ATOM     11  O   UNL     1      -2.824   0.549  25.163  0.00  0.00    -0.272 OA
BRANCH   9   8
ATOM      8  C   UNL     1      -2.781   2.020  24.416  0.00  0.00    +0.179 C 
BRANCH   8  31
ATOM     31  C   UNL     1      -3.366   2.151  23.849  0.00  0.00    +0.281 C 
ATOM     32  N   UNL     1      -4.160   2.168  24.073  0.00  0.00    -0.086 NA
ATOM     33  O   UNL     1      -3.157   2.263  23.060  0.00  0.00    -0.270 OA
ENDBRANCH   8  31
BRANCH   8   7
ATOM      7  C   UNL     1      -2.792   2.442  25.126  0.00  0.00    +0.057 C 
BRANCH   7   6
ATOM      3  C   UNL     1      -1.688   4.653  25.267  0.00  0.00    +0.139 A 
ATOM      4  C   UNL     1      -1.233   3.968  25.195  0.00  0.00    +0.037 A 
ATOM      5  C   UNL     1      -1.601   3.232  25.148  0.00  0.00    -0.001 A 
ATOM      6  C   UNL     1      -2.424   3.179  25.173  0.00  0.00    -0.020 A 
ATOM     34  C   UNL     1      -2.879   3.863  25.245  0.00  0.00    -0.001 A 
ATOM     35  C   UNL     1      -2.511   4.601  25.293  0.00  0.00    +0.037 A 
BRANCH   3   2
ATOM      1  C   UNL     1      -0.826   5.644  24.706  0.00  0.00    +0.252 C 
ATOM      2  O   UNL     1      -1.320   5.390  25.314  0.00  0.00    -0.471 OA
ENDBRANCH   3   2
ENDBRANCH   7   6
ENDBRANCH   8   7
ENDBRANCH   9   8
ENDBRANCH  12  10
BRANCH  14  25
ATOM     25  N   UNL     1       0.521   0.133  24.041  0.00  0.00    -0.206 NA
ATOM     26  C   UNL     1       0.829   0.050  23.280  0.00  0.00    +0.252 C 
ATOM     27  O   UNL     1       0.370  -0.286  22.683  0.00  0.00    -0.272 OA
BRANCH  26  28
ATOM     28  C   UNL     1       1.598   0.303  23.116  0.00  0.00    +0.144 C 
BRANCH  28  29
ATOM     29  S   UNL     1       2.004  -0.005  22.468  0.00  0.00    -0.130 S 
ATOM     30  C   UNL     1       2.801   0.179  22.356  0.00  0.00    +0.070 C 
ENDBRANCH  28  29
ENDBRANCH  26  28
ENDBRANCH  14  25
BRANCH  18  20
ATOM     20  C   UNL     1      -2.723  -1.687  24.717  0.00  0.00    +0.097 C 
BRANCH  20  21
ATOM     21  C   UNL     1      -3.508  -1.941  24.749  0.00  0.00    +0.124 C 
BRANCH  21  22
ATOM     22  C   UNL     1      -3.687  -2.740  24.652  0.00  0.00    +0.365 C 
ATOM     23  O   UNL     1      -3.487  -3.282  25.240  0.00  0.00    -0.246 OA
ATOM     24  O   UNL     1      -4.067  -2.997  23.966  0.00  0.00    -0.246 OA
ENDBRANCH  21  22
ENDBRANCH  20  21
ENDBRANCH  18  20
TORSDOF 12
ENDMDL
MODEL 2
REMARK VINA RESULT:      -8.9      2.028      3.781
REMARK  Name = 
REMARK  12 active torsions:
REMARK  status: ('A' for Active; 'I' for Inactive)
REMARK    1  A    between atoms: O_2  and  C_3
REMARK    2  A    between atoms: C_6  and  C_7
REMARK    3  A    between atoms: C_7  and  C_8
REMARK    4  A    between atoms: C_8  and  N_9
REMARK    5  A    between atoms: C_8  and  C_31
REMARK    6  A    between atoms: C_10  and  C_12
REMARK    7  A    between atoms: C_14  and  N_25
REMARK    8  A    between atoms: C_18  and  C_20
REMARK    9  A    between atoms: C_20  and  C_21
REMARK   10  A    between atoms: C_21  and  C_22
REMARK   11  A    between atoms: C_26  and  C_28
REMARK   12  A    between atoms: C_28  and  S_29
REMARK                            x       y       z     vdW  Elec       q    Type
REMARK                         _______ _______ _______ _____ _____    ______ ____
ROOT
ATOM     12  C   UNL     1      -3.100   0.632  24.720  0.00  0.00    +0.155 C 
ATOM     13  C   UNL     1      -3.530   1.331  24.646  0.00  0.00    +0.051 C 
ATOM     14  C   UNL     1      -4.353   1.304  24.583  0.00  0.00    +0.099 C 
ATOM     15  C   UNL     1      -4.745   0.577  24.593  0.00  0.00    +0.043 C 
ATOM     16  C   UNL     1      -4.314  -0.121  24.667  0.00  0.00    +0.096 C 
ATOM     17  N   UNL     1      -3.491  -0.095  24.730  0.00  0.00    -0.273 N 
ATOM     18  C   UNL     1      -3.060  -0.795  24.804  0.00  0.00    +0.227 C 
ATOM     19  O   UNL     1      -2.238  -0.767  24.867  0.00  0.00    -0.275 OA
ENDROOT
BRANCH  12  10
ATOM      9  N   UNL     1      -1.848   1.220  24.358  0.00  0.00    -0.196 NA
ATOM     10  C   UNL     1      -2.278   0.658  24.783  0.00  0.00    +0.260 C 
ATOM     11  O   UNL     1      -1.886   0.121  25.271  0.00  0.00    -0.272 OA
BRANCH   9   8
ATOM      8  C   UNL     1      -1.027   1.245  24.421  0.00  0.00    +0.179 C 
BRANCH   8  31
ATOM     31  C   UNL     1      -0.557   0.851  23.869  0.00  0.00    +0.281 C 
ATOM     32  N   UNL     1       0.084   0.398  24.121  0.00  0.00    -0.086 NA
ATOM     33  O   UNL     1      -0.728   0.911  23.064  0.00  0.00    -0.270 OA
ENDBRANCH   8  31
BRANCH   8   7
ATOM      7  C   UNL     1      -0.673   1.664  25.039  0.00  0.00    +0.057 C 
BRANCH   7   6
ATOM      3  C   UNL     1      -0.744   4.139  25.052  0.00  0.00    +0.139 A 
ATOM      4  C   UNL     1      -0.459   3.738  24.390  0.00  0.00    +0.037 A 
ATOM      5  C   UNL     1      -0.436   2.913  24.386  0.00  0.00    -0.001 A 
ATOM      6  C   UNL     1      -0.697   2.489  25.043  0.00  0.00    -0.020 A 
ATOM     34  C   UNL     1      -0.982   2.890  25.705  0.00  0.00    -0.001 A 
ATOM     35  C   UNL     1      -1.006   3.714  25.711  0.00  0.00    +0.037 A 
BRANCH   3   2
ATOM      1  C   UNL     1      -1.493   5.355  25.078  0.00  0.00    +0.252 C 
ATOM      2  O   UNL     1      -0.768   4.963  25.058  0.00  0.00    -0.471 OA
ENDBRANCH   3   2
ENDBRANCH   7   6
ENDBRANCH   8   7
ENDBRANCH   9   8
ENDBRANCH  12  10
BRANCH  14  25
ATOM     25  N   UNL     1      -4.784   2.004  24.509  0.00  0.00    -0.206 NA
ATOM     26  C   UNL     1      -5.094   2.369  25.181  0.00  0.00    +0.252 C 
ATOM     27  O   UNL     1      -4.974   2.036  25.925  0.00  0.00    -0.272 OA
BRANCH  26  28
ATOM     28  C   UNL     1      -5.526   3.070  25.107  0.00  0.00    +0.144 C 
BRANCH  28  29
ATOM     29  S   UNL     1      -5.419   3.679  25.653  0.00  0.00    -0.130 S 
ATOM     30  C   UNL     1      -5.791   4.406  25.537  0.00  0.00    +0.070 C 
ENDBRANCH  28  29
ENDBRANCH  26  28
ENDBRANCH  14  25
BRANCH  18  20
ATOM     20  C   UNL     1      -3.452  -1.521  24.814  0.00  0.00    +0.097 C 
BRANCH  20  21
ATOM     21  C   UNL     1      -3.044  -2.213  24.622  0.00  0.00    +0.124 C 
BRANCH  21  22
ATOM     22  C   UNL     1      -3.428  -2.941  24.659  0.00  0.00    +0.365 C 
ATOM     23  O   UNL     1      -3.781  -3.256  23.984  0.00  0.00    -0.246 OA
ATOM     24  O   UNL     1      -3.459  -3.355  25.372  0.00  0.00    -0.246 OA
ENDBRANCH  21  22
ENDBRANCH  20  21
ENDBRANCH  18  20
TORSDOF 12
ENDMDL
MODEL 3
REMARK VINA RESULT:      -8.5      1.109      4.631
REMARK  Name = 
REMARK  12 active torsions:
REMARK  status: ('A' for Active; 'I' for Inactive)
REMARK    1  A    between atoms: O_2  and  C_3
REMARK    2  A    between atoms: C_6  and  C_7
REMARK    3  A    between atoms: C_7  and  C_8
REMARK    4  A    between atoms: C_8  and  N_9
REMARK    5  A    between atoms: C_8  and  C_31
REMARK    6  A    between atoms: C_10  and  C_12
REMARK    7  A    between atoms: C_14  and  N_25
REMARK    8  A    between atoms: C_18  and  C_20
REMARK    9  A    between atoms: C_20  and  C_21
REMARK   10  A    between atoms: C_21  and  C_22
REMARK   11  A    between atoms: C_26  and  C_28
REMARK   12  A    between atoms: C_28  and  S_29
REMARK                            x       y       z     vdW  Elec       q    Type
REMARK                         _______ _______ _______ _____ _____    ______ ____
ROOT
ATOM     12  C   UNL     1      -1.575   1.689  24.859  0.00  0.00    +0.155 C 
ATOM     13  C   UNL     1      -1.106   1.051  24.633  0.00  0.00    +0.051 C 
ATOM     14  C   UNL     1      -0.298   1.160  24.498  0.00  0.00    +0.099 C 
ATOM     15  C   UNL     1       0.038   1.908  24.590  0.00  0.00    +0.043 C 
ATOM     16  C   UNL     1      -0.432   2.546  24.817  0.00  0.00    +0.096 C 
ATOM     17  N   UNL     1      -1.239   2.437  24.951  0.00  0.00    -0.273 N 
ATOM     18  C   UNL     1      -1.709   3.076  25.178  0.00  0.00    +0.227 C 
ATOM     19  O   UNL     1      -2.516   2.966  25.312  0.00  0.00    -0.275 OA
ENDROOT
BRANCH  12  10
ATOM      9  N   UNL     1      -2.817   1.072  24.511  0.00  0.00    -0.196 NA
ATOM     10  C   UNL     1      -2.382   1.581  24.994  0.00  0.00    +0.260 C 
ATOM     11  O   UNL     1      -2.753   1.981  25.612  0.00  0.00    -0.272 OA
BRANCH   9   8
ATOM      8  C   UNL     1      -3.623   0.965  24.647  0.00  0.00    +0.179 C 
BRANCH   8  31
ATOM     31  C   UNL     1      -4.175   1.430  24.248  0.00  0.00    +0.281 C 
ATOM     32  N   UNL     1      -4.840   1.713  24.646  0.00  0.00    -0.086 NA
ATOM     33  O   UNL     1      -4.062   1.613  23.452  0.00  0.00    -0.270 OA
ENDBRANCH   8  31
BRANCH   8   7
ATOM      7  C   UNL     1      -3.878   0.390  25.182  0.00  0.00    +0.057 C 
BRANCH   7   6
ATOM      3  C   UNL     1      -3.853  -2.000  24.537  0.00  0.00    +0.139 A 
ATOM      4  C   UNL     1      -4.200  -1.442  24.039  0.00  0.00    +0.037 A 
ATOM      5  C   UNL     1      -4.209  -0.645  24.254  0.00  0.00    -0.001 A 
ATOM      6  C   UNL     1      -3.870  -0.407  24.967  0.00  0.00    -0.020 A 
ATOM     34  C   UNL     1      -3.522  -0.965  25.465  0.00  0.00    -0.001 A 
ATOM     35  C   UNL     1      -3.513  -1.761  25.251  0.00  0.00    +0.037 A 
BRANCH   3   2
ATOM      1  C   UNL     1      -3.206  -3.273  24.535  0.00  0.00    +0.252 C 
ATOM      2  O   UNL     1      -3.844  -2.796  24.323  0.00  0.00    -0.471 OA
ENDBRANCH   3   2
ENDBRANCH   7   6
ENDBRANCH   8   7
ENDBRANCH   9   8
ENDBRANCH  12  10
BRANCH  14  25
ATOM     25  N   UNL     1       0.172   0.521  24.272  0.00  0.00    -0.206 NA
ATOM     26  C   UNL     1       0.388   0.428  23.481  0.00  0.00    +0.252 C 
ATOM     27  O   UNL     1       0.133   0.973  22.917  0.00  0.00    -0.272 OA
BRANCH  26  28
ATOM     28  C   UNL     1       0.859  -0.212  23.254  0.00  0.00    +0.144 C 
BRANCH  28  29
ATOM     29  S   UNL     1       1.281  -0.182  22.547  0.00  0.00    -0.130 S 
ATOM     30  C   UNL     1       2.076  -0.402  22.532  0.00  0.00    +0.070 C 
ENDBRANCH  28  29
ENDBRANCH  26  28
ENDBRANCH  14  25
BRANCH  18  20
ATOM     20  C   UNL     1      -1.372   3.824  25.270  0.00  0.00    +0.097 C 
BRANCH  20  21
ATOM     21  C   UNL     1      -1.813   4.499  25.090  0.00  0.00    +0.124 C 
BRANCH  21  22
ATOM     22  C   UNL     1      -1.463   5.244  25.142  0.00  0.00    +0.365 C 
ATOM     23  O   UNL     1      -0.702   5.364  24.850  0.00  0.00    -0.246 OA
ATOM     24  O   UNL     1      -1.876   5.870  25.485  0.00  0.00    -0.246 OA
ENDBRANCH  21  22
ENDBRANCH  20  21
ENDBRANCH  18  20
TORSDOF 12
ENDMDL
MODEL 4
REMARK VINA RESULT:      -8.5      1.997      4.447
REMARK  Name = 
REMARK  12 active torsions:
REMARK  status: ('A' for Active; 'I' for Inactive)
REMARK    1  A    between atoms: O_2  and  C_3
REMARK    2  A    between atoms: C_6  and  C_7
REMARK    3  A    between atoms: C_7  and  C_8
REMARK    4  A    between atoms: C_8  and  N_9
REMARK    5  A    between atoms: C_8  and  C_31
REMARK    6  A    between atoms: C_10  and  C_12
REMARK    7  A    between atoms: C_14  and  N_25
REMARK    8  A    between atoms: C_18  and  C_20
REMARK    9  A    between atoms: C_20  and  C_21
REMARK   10  A    between atoms: C_21  and  C_22
REMARK   11  A    between atoms: C_26  and  C_28
REMARK   12  A    between atoms: C_28  and  S_29
REMARK                            x       y       z     vdW  Elec       q    Type
REMARK                         _______ _______ _______ _____ _____    ______ ____
ROOT
ATOM     12  C   UNL     1      -0.586   1.008  24.502  0.00  0.00    +0.155 C 
ATOM     13  C   UNL     1      -0.821   1.678  24.919  0.00  0.00    +0.051 C 
ATOM     14  C   UNL     1      -0.336   2.346  24.937  0.00  0.00    +0.099 C 
ATOM     15  C   UNL     1       0.385   2.342  24.535  0.00  0.00    +0.043 C 
ATOM     16  C   UNL     1       0.621   1.672  24.117  0.00  0.00    +0.096 C 
ATOM     17  N   UNL     1       0.136   1.005  24.100  0.00  0.00    -0.273 N 
ATOM     18  C   UNL     1       0.372   0.334  23.682  0.00  0.00    +0.227 C 
ATOM     19  O   UNL     1      -0.114  -0.333  23.665  0.00  0.00    -0.275 OA
ENDROOT
BRANCH  12  10
ATOM      9  N   UNL     1      -1.751   0.313  24.949  0.00  0.00    -0.196 NA
ATOM     10  C   UNL     1      -1.070   0.341  24.484  0.00  0.00    +0.260 C 
ATOM     11  O   UNL     1      -0.873  -0.298  24.001  0.00  0.00    -0.272 OA
BRANCH   9   8
ATOM      8  C   UNL     1      -2.235  -0.355  24.931  0.00  0.00    +0.179 C 
BRANCH   8  31
ATOM     31  C   UNL     1      -2.075  -0.994  25.428  0.00  0.00    +0.281 C 
ATOM     32  N   UNL     1      -2.123  -1.764  25.136  0.00  0.00    -0.086 NA
ATOM     33  O   UNL     1      -1.869  -0.864  26.215  0.00  0.00    -0.270 OA
ENDBRANCH   8  31
BRANCH   8   7
ATOM      7  C   UNL     1      -2.879  -0.384  24.415  0.00  0.00    +0.057 C 
BRANCH   7   6
ATOM      3  C   UNL     1      -4.880   1.005  24.859  0.00  0.00    +0.139 A 
ATOM      4  C   UNL     1      -4.364   1.208  24.249  0.00  0.00    +0.037 A 
ATOM      5  C   UNL     1      -3.697   0.745  24.101  0.00  0.00    -0.001 A 
ATOM      6  C   UNL     1      -3.546   0.079  24.563  0.00  0.00    -0.020 A 
ATOM     34  C   UNL     1      -4.062  -0.125  25.173  0.00  0.00    -0.001 A 
ATOM     35  C   UNL     1      -4.729   0.338  25.322  0.00  0.00    +0.037 A 
BRANCH   3   2
ATOM      1  C   UNL     1      -5.461   2.232  25.300  0.00  0.00    +0.252 C 
ATOM      2  O   UNL     1      -5.547   1.467  25.008  0.00  0.00    -0.471 OA
ENDBRANCH   3   2
ENDBRANCH   7   6
ENDBRANCH   8   7
ENDBRANCH   9   8
ENDBRANCH  12  10
BRANCH  14  25
ATOM     25  N   UNL     1      -0.572   3.017  25.355  0.00  0.00    -0.206 NA
ATOM     26  C   UNL     1      -0.921   3.650  24.956  0.00  0.00    +0.252 C 
ATOM     27  O   UNL     1      -1.033   3.612  24.140  0.00  0.00    -0.272 OA
BRANCH  26  28
ATOM     28  C   UNL     1      -1.157   4.321  25.375  0.00  0.00    +0.144 C 
BRANCH  28  29
ATOM     29  S   UNL     1      -1.396   4.998  24.969  0.00  0.00    -0.130 S 
ATOM     30  C   UNL     1      -1.890   5.547  25.336  0.00  0.00    +0.070 C 
ENDBRANCH  28  29
ENDBRANCH  26  28
ENDBRANCH  14  25
BRANCH  18  20
ATOM     20  C   UNL     1       1.093   0.331  23.280  0.00  0.00    +0.097 C 
BRANCH  20  21
ATOM     21  C   UNL     1       1.264  -0.274  22.744  0.00  0.00    +0.124 C 
BRANCH  21  22
ATOM     22  C   UNL     1       1.932  -0.222  22.264  0.00  0.00    +0.365 C 
ATOM     23  O   UNL     1       2.678  -0.136  22.604  0.00  0.00    -0.246 OA
ATOM     24  O   UNL     1       1.854  -0.256  21.444  0.00  0.00    -0.246 OA
ENDBRANCH  21  22
ENDBRANCH  20  21
ENDBRANCH  18  20
TORSDOF 12
ENDMDL
MODEL 5
REMARK VINA RESULT:      -8.5      1.822      4.016
REMARK  Name = 
REMARK  12 active torsions:
REMARK  status: ('A' for Active; 'I' for Inactive)
REMARK    1  A    between atoms: O_2  and  C_3
REMARK    2  A    between atoms: C_6  and  C_7
REMARK    3  A    between atoms: C_7  and  C_8
REMARK    4  A    between atoms: C_8  and  N_9
REMARK    5  A    between atoms: C_8  and  C_31
REMARK    6  A    between atoms: C_10  and  C_12
REMARK    7  A    between atoms: C_14  and  N_25
REMARK    8  A    between atoms: C_18  and  C_20
REMARK    9  A    between atoms: C_20  and  C_21
REMARK   10  A    between atoms: C_21  and  C_22
REMARK   11  A    between atoms: C_26  and  C_28
REMARK   12  A    between atoms: C_28  and  S_29
REMARK                            x       y       z     vdW  Elec       q    Type
REMARK                         _______ _______ _______ _____ _____    ______ ____
ROOT
ATOM     12  C   UNL     1      -0.546   0.513  24.539  0.00  0.00    +0.155 C 
ATOM     13  C   UNL     1      -1.140   0.089  24.923  0.00  0.00    +0.051 C 
ATOM     14  C   UNL     1      -1.190  -0.730  24.828  0.00  0.00    +0.099 C 
ATOM     15  C   UNL     1      -0.646  -1.124  24.348  0.00  0.00    +0.043 C 
ATOM     16  C   UNL     1      -0.052  -0.700  23.964  0.00  0.00    +0.096 C 
ATOM     17  N   UNL     1      -0.002   0.118  24.059  0.00  0.00    -0.273 N 
ATOM     18  C   UNL     1       0.592   0.542  23.675  0.00  0.00    +0.227 C 
ATOM     19  O   UNL     1       0.642   1.361  23.770  0.00  0.00    -0.275 OA
ENDROOT
BRANCH  12  10
ATOM      9  N   UNL     1      -1.042   1.726  25.108  0.00  0.00    -0.196 NA
ATOM     10  C   UNL     1      -0.495   1.330  24.633  0.00  0.00    +0.260 C 
ATOM     11  O   UNL     1       0.103   1.752  24.253  0.00  0.00    -0.272 OA
BRANCH   9   8
ATOM      8  C   UNL     1      -0.991   2.544  25.201  0.00  0.00    +0.179 C 
BRANCH   8  31
ATOM     31  C   UNL     1      -0.522   2.862  25.802  0.00  0.00    +0.281 C 
ATOM     32  N   UNL     1      -0.039   3.512  25.646  0.00  0.00    -0.086 NA
ATOM     33  O   UNL     1      -0.537   2.531  26.557  0.00  0.00    -0.270 OA
ENDBRANCH   8  31
BRANCH   8   7
ATOM      7  C   UNL     1      -1.408   3.045  24.694  0.00  0.00    +0.057 C 
BRANCH   7   6
ATOM      3  C   UNL     1      -3.824   3.440  25.060  0.00  0.00    +0.139 A 
ATOM      4  C   UNL     1      -3.272   3.735  25.598  0.00  0.00    +0.037 A 
ATOM      5  C   UNL     1      -2.467   3.603  25.475  0.00  0.00    -0.001 A 
ATOM      6  C   UNL     1      -2.213   3.177  24.817  0.00  0.00    -0.020 A 
ATOM     34  C   UNL     1      -2.765   2.882  24.279  0.00  0.00    -0.001 A 
ATOM     35  C   UNL     1      -3.571   3.013  24.400  0.00  0.00    +0.037 A 
BRANCH   3   2
ATOM      1  C   UNL     1      -5.062   3.062  25.663  0.00  0.00    +0.252 C 
ATOM      2  O   UNL     1      -4.629   3.571  25.181  0.00  0.00    -0.471 OA
ENDBRANCH   3   2
ENDBRANCH   7   6
ENDBRANCH   8   7
ENDBRANCH   9   8
ENDBRANCH  12  10
BRANCH  14  25
ATOM     25  N   UNL     1      -1.785  -1.154  25.212  0.00  0.00    -0.206 NA
ATOM     26  C   UNL     1      -2.445  -1.413  24.790  0.00  0.00    +0.252 C 
ATOM     27  O   UNL     1      -2.511  -1.248  23.985  0.00  0.00    -0.272 OA
BRANCH  26  28
ATOM     28  C   UNL     1      -3.040  -1.837  25.175  0.00  0.00    +0.144 C 
BRANCH  28  29
ATOM     29  S   UNL     1      -3.602  -2.250  24.735  0.00  0.00    -0.130 S 
ATOM     30  C   UNL     1      -3.759  -3.041  24.906  0.00  0.00    +0.070 C 
ENDBRANCH  28  29
ENDBRANCH  26  28
ENDBRANCH  14  25
BRANCH  18  20
ATOM     20  C   UNL     1       1.136   0.148  23.196  0.00  0.00    +0.097 C 
BRANCH  20  21
ATOM     21  C   UNL     1       1.810   0.542  22.926  0.00  0.00    +0.124 C 
BRANCH  21  22
ATOM     22  C   UNL     1       2.358   0.145  22.455  0.00  0.00    +0.365 C 
ATOM     23  O   UNL     1       2.147  -0.106  21.699  0.00  0.00    -0.246 OA
ATOM     24  O   UNL     1       3.118  -0.001  22.741  0.00  0.00    -0.246 OA
ENDBRANCH  21  22
ENDBRANCH  20  21
ENDBRANCH  18  20
TORSDOF 12
ENDMDL
MODEL 6
REMARK VINA RESULT:      -8.2      2.232      4.081
REMARK  Name = 
REMARK  12 active torsions:
REMARK  status: ('A' for Active; 'I' for Inactive)
REMARK    1  A    between atoms: O_2  and  C_3
REMARK    2  A    between atoms: C_6  and  C_7
REMARK    3  A    between atoms: C_7  and  C_8
REMARK    4  A    between atoms: C_8  and  N_9
REMARK    5  A    between atoms: C_8  and  C_31
REMARK    6  A    between atoms: C_10  and  C_12
REMARK    7  A    between atoms: C_14  and  N_25
REMARK    8  A    between atoms: C_18  and  C_20
REMARK    9  A    between atoms: C_20  and  C_21
REMARK   10  A    between atoms: C_21  and  C_22
REMARK   11  A    between atoms: C_26  and  C_28
REMARK   12  A    between atoms: C_28  and  S_29
REMARK                            x       y       z     vdW  Elec       q    Type
REMARK                         _______ _______ _______ _____ _____    ______ ____
ROOT
ATOM     12  C   UNL     1      -1.632   0.817  24.511  0.00  0.00    +0.155 C 
ATOM     13  C   UNL     1      -1.888   0.062  24.305  0.00  0.00    +0.051 C 
ATOM     14  C   UNL     1      -1.596  -0.598  24.707  0.00  0.00    +0.099 C 
ATOM     15  C   UNL     1      -1.047  -0.500  25.315  0.00  0.00    +0.043 C 
ATOM     16  C   UNL     1      -0.790   0.255  25.522  0.00  0.00    +0.096 C 
ATOM     17  N   UNL     1      -1.082   0.915  25.120  0.00  0.00    -0.273 N 
ATOM     18  C   UNL     1      -0.826   1.671  25.326  0.00  0.00    +0.227 C 
ATOM     19  O   UNL     1      -1.118   2.330  24.924  0.00  0.00    -0.275 OA
ENDROOT
BRANCH  12  10
ATOM      9  N   UNL     1      -2.737   1.586  24.032  0.00  0.00    -0.196 NA
ATOM     10  C   UNL     1      -1.923   1.476  24.110  0.00  0.00    +0.260 C 
ATOM     11  O   UNL     1      -1.400   2.026  23.786  0.00  0.00    -0.272 OA
BRANCH   9   8
ATOM      8  C   UNL     1      -3.028   2.245  23.630  0.00  0.00    +0.179 C 
BRANCH   8  31
ATOM     31  C   UNL     1      -3.044   2.252  22.805  0.00  0.00    +0.281 C 
ATOM     32  N   UNL     1      -2.885   2.951  22.397  0.00  0.00    -0.086 NA
ATOM     33  O   UNL     1      -3.219   1.563  22.389  0.00  0.00    -0.270 OA
ENDBRANCH   8  31
BRANCH   8   7
ATOM      7  C   UNL     1      -3.303   2.898  24.054  0.00  0.00    +0.057 C 
BRANCH   7   6
ATOM      3  C   UNL     1      -5.377   2.719  25.393  0.00  0.00    +0.139 A 
ATOM      4  C   UNL     1      -5.299   2.287  24.694  0.00  0.00    +0.037 A 
ATOM      5  C   UNL     1      -4.607   2.347  24.248  0.00  0.00    -0.001 A 
ATOM      6  C   UNL     1      -3.995   2.838  24.500  0.00  0.00    -0.020 A 
ATOM     34  C   UNL     1      -4.073   3.270  25.199  0.00  0.00    -0.001 A 
ATOM     35  C   UNL     1      -4.764   3.210  25.646  0.00  0.00    +0.037 A 
BRANCH   3   2
ATOM      1  C   UNL     1      -6.242   1.961  26.240  0.00  0.00    +0.252 C 
ATOM      2  O   UNL     1      -6.068   2.660  25.840  0.00  0.00    -0.471 OA
ENDBRANCH   3   2
ENDBRANCH   7   6
ENDBRANCH   8   7
ENDBRANCH   9   8
ENDBRANCH  12  10
BRANCH  14  25
ATOM     25  N   UNL     1      -1.853  -1.354  24.500  0.00  0.00    -0.206 NA
ATOM     26  C   UNL     1      -2.484  -1.699  24.904  0.00  0.00    +0.252 C 
ATOM     27  O   UNL     1      -2.858  -1.289  25.514  0.00  0.00    -0.272 OA
BRANCH  26  28
ATOM     28  C   UNL     1      -2.742  -2.457  24.698  0.00  0.00    +0.144 C 
BRANCH  28  29
ATOM     29  S   UNL     1      -3.548  -2.619  24.650  0.00  0.00    -0.130 S 
ATOM     30  C   UNL     1      -3.812  -3.276  24.226  0.00  0.00    +0.070 C 
ENDBRANCH  28  29
ENDBRANCH  26  28
ENDBRANCH  14  25
BRANCH  18  20
ATOM     20  C   UNL     1      -0.277   1.768  25.934  0.00  0.00    +0.097 C 
BRANCH  20  21
ATOM     21  C   UNL     1      -0.174   2.510  26.283  0.00  0.00    +0.124 C 
BRANCH  21  22
ATOM     22  C   UNL     1       0.332   2.595  26.928  0.00  0.00    +0.365 C 
ATOM     23  O   UNL     1       0.042   2.504  27.694  0.00  0.00    -0.246 OA
ATOM     24  O   UNL     1       1.129   2.772  26.807  0.00  0.00    -0.246 OA
ENDBRANCH  21  22
ENDBRANCH  20  21
ENDBRANCH  18  20
TORSDOF 12
ENDMDL
MODEL 7
REMARK VINA RESULT:      -8.0      2.057      4.711
REMARK  Name = 
REMARK  12 active torsions:
REMARK  status: ('A' for Active; 'I' for Inactive)
REMARK    1  A    between atoms: O_2  and  C_3
REMARK    2  A    between atoms: C_6  and  C_7
REMARK    3  A    between atoms: C_7  and  C_8
REMARK    4  A    between atoms: C_8  and  N_9
REMARK    5  A    between atoms: C_8  and  C_31
REMARK    6  A    between atoms: C_10  and  C_12
REMARK    7  A    between atoms: C_14  and  N_25
REMARK    8  A    between atoms: C_18  and  C_20
REMARK    9  A    between atoms: C_20  and  C_21
REMARK   10  A    between atoms: C_21  and  C_22
REMARK   11  A    between atoms: C_26  and  C_28
REMARK   12  A    between atoms: C_28  and  S_29
REMARK                            x       y       z     vdW  Elec       q    Type
REMARK                         _______ _______ _______ _____ _____    ______ ____
ROOT
ATOM     12  C   UNL     1      -3.169   1.201  24.527  0.00  0.00    +0.155 C 
ATOM     13  C   UNL     1      -3.151   0.413  24.286  0.00  0.00    +0.051 C 
ATOM     14  C   UNL     1      -3.853  -0.019  24.234  0.00  0.00    +0.099 C 
ATOM     15  C   UNL     1      -4.573   0.338  24.423  0.00  0.00    +0.043 C 
ATOM     16  C   UNL     1      -4.591   1.126  24.664  0.00  0.00    +0.096 C 
ATOM     17  N   UNL     1      -3.889   1.558  24.717  0.00  0.00    -0.273 N 
ATOM     18  C   UNL     1      -3.907   2.347  24.958  0.00  0.00    +0.227 C 
ATOM     19  O   UNL     1      -3.206   2.778  25.010  0.00  0.00    -0.275 OA
ENDROOT
BRANCH  12  10
ATOM      9  N   UNL     1      -1.771   1.262  24.817  0.00  0.00    -0.196 NA
ATOM     10  C   UNL     1      -2.469   1.633  24.580  0.00  0.00    +0.260 C 
ATOM     11  O   UNL     1      -2.466   2.437  24.395  0.00  0.00    -0.272 OA
BRANCH   9   8
ATOM      8  C   UNL     1      -1.071   1.694  24.869  0.00  0.00    +0.179 C 
BRANCH   8  31
ATOM     31  C   UNL     1      -0.790   1.938  25.605  0.00  0.00    +0.281 C 
ATOM     32  N   UNL     1      -0.575   2.725  25.724  0.00  0.00    -0.086 NA
ATOM     33  O   UNL     1      -0.724   1.395  26.222  0.00  0.00    -0.270 OA
ENDBRANCH   8  31
BRANCH   8   7
ATOM      7  C   UNL     1      -0.651   1.884  24.184  0.00  0.00    +0.057 C 
BRANCH   7   6
ATOM      3  C   UNL     1       1.101   0.351  23.343  0.00  0.00    +0.139 A 
ATOM      4  C   UNL     1       0.311   0.116  23.339  0.00  0.00    +0.037 A 
ATOM      5  C   UNL     1      -0.273   0.627  23.619  0.00  0.00    -0.001 A 
ATOM      6  C   UNL     1      -0.067   1.373  23.903  0.00  0.00    -0.020 A 
ATOM     34  C   UNL     1       0.723   1.609  23.907  0.00  0.00    -0.001 A 
ATOM     35  C   UNL     1       1.308   1.099  23.628  0.00  0.00    +0.037 A 
BRANCH   3   2
ATOM      1  C   UNL     1       2.199   0.089  22.468  0.00  0.00    +0.252 C 
ATOM      2  O   UNL     1       1.686  -0.159  23.063  0.00  0.00    -0.471 OA
ENDBRANCH   3   2
ENDBRANCH   7   6
ENDBRANCH   8   7
ENDBRANCH   9   8
ENDBRANCH  12  10
BRANCH  14  25
ATOM     25  N   UNL     1      -3.834  -0.808  23.992  0.00  0.00    -0.206 NA
ATOM     26  C   UNL     1      -3.852  -1.411  24.554  0.00  0.00    +0.252 C 
ATOM     27  O   UNL     1      -3.888  -1.227  25.357  0.00  0.00    -0.272 OA
BRANCH  26  28
ATOM     28  C   UNL     1      -3.834  -2.201  24.312  0.00  0.00    +0.144 C 
BRANCH  28  29
ATOM     29  S   UNL     1      -3.396  -2.753  24.740  0.00  0.00    -0.130 S 
ATOM     30  C   UNL     1      -3.231  -3.492  24.413  0.00  0.00    +0.070 C 
ENDBRANCH  28  29
ENDBRANCH  26  28
ENDBRANCH  14  25
BRANCH  18  20
ATOM     20  C   UNL     1      -4.627   2.703  25.147  0.00  0.00    +0.097 C 
BRANCH  20  21
ATOM     21  C   UNL     1      -4.637   3.436  25.529  0.00  0.00    +0.124 C 
BRANCH  21  22
ATOM     22  C   UNL     1      -5.354   3.771  25.759  0.00  0.00    +0.365 C 
ATOM     23  O   UNL     1      -5.626   4.457  25.390  0.00  0.00    -0.246 OA
ATOM     24  O   UNL     1      -5.799   3.421  26.358  0.00  0.00    -0.246 OA
ENDBRANCH  21  22
ENDBRANCH  20  21
ENDBRANCH  18  20
TORSDOF 12
ENDMDL
MODEL 8
REMARK VINA RESULT:      -7.9      1.563      4.631
REMARK  Name = 
REMARK  12 active torsions:
REMARK  status: ('A' for Active; 'I' for Inactive)
REMARK    1  A    between atoms: O_2  and  C_3
REMARK    2  A    between atoms: C_6  and  C_7
REMARK    3  A    between atoms: C_7  and  C_8
REMARK    4  A    between atoms: C_8  and  N_9
REMARK    5  A    between atoms: C_8  and  C_31
REMARK    6  A    between atoms: C_10  and  C_12
REMARK    7  A    between atoms: C_14  and  N_25
REMARK    8  A    between atoms: C_18  and  C_20
REMARK    9  A    between atoms: C_20  and  C_21
REMARK   10  A    between atoms: C_21  and  C_22
REMARK   11  A    between atoms: C_26  and  C_28
REMARK   12  A    between atoms: C_28  and  S_29
REMARK                            x       y       z     vdW  Elec       q    Type
REMARK                         _______ _______ _______ _____ _____    ______ ____
ROOT
ATOM     12  C   UNL     1      -0.422   1.057  24.645  0.00  0.00    +0.155 C 
ATOM     13  C   UNL     1       0.100   0.653  24.153  0.00  0.00    +0.051 C 
ATOM     14  C   UNL     1       0.540   1.066  23.590  0.00  0.00    +0.099 C 
ATOM     15  C   UNL     1       0.458   1.884  23.521  0.00  0.00    +0.043 C 
ATOM     16  C   UNL     1      -0.064   2.289  24.013  0.00  0.00    +0.096 C 
ATOM     17  N   UNL     1      -0.505   1.876  24.576  0.00  0.00    -0.273 N 
ATOM     18  C   UNL     1      -1.027   2.281  25.069  0.00  0.00    +0.227 C 
ATOM     19  O   UNL     1      -1.467   1.868  25.632  0.00  0.00    -0.275 OA
ENDROOT
BRANCH  12  10
ATOM      9  N   UNL     1      -1.259  -0.047  24.997  0.00  0.00    -0.196 NA
ATOM     10  C   UNL     1      -0.863   0.645  25.208  0.00  0.00    +0.260 C 
ATOM     11  O   UNL     1      -0.907   0.926  25.982  0.00  0.00    -0.272 OA
BRANCH   9   8
ATOM      8  C   UNL     1      -1.699  -0.458  25.559  0.00  0.00    +0.179 C 
BRANCH   8  31
ATOM     31  C   UNL     1      -1.325  -0.987  26.071  0.00  0.00    +0.281 C 
ATOM     32  N   UNL     1      -0.801  -1.549  25.772  0.00  0.00    -0.086 NA
ATOM     33  O   UNL     1      -1.474  -0.953  26.881  0.00  0.00    -0.270 OA
ENDBRANCH   8  31
BRANCH   8   7
ATOM      7  C   UNL     1      -2.515  -0.341  25.611  0.00  0.00    +0.057 C 
BRANCH   7   6
ATOM      3  C   UNL     1      -4.044  -1.635  24.157  0.00  0.00    +0.139 A 
ATOM      4  C   UNL     1      -3.672  -2.003  24.794  0.00  0.00    +0.037 A 
ATOM      5  C   UNL     1      -3.162  -1.571  25.279  0.00  0.00    -0.001 A 
ATOM      6  C   UNL     1      -3.024  -0.773  25.127  0.00  0.00    -0.020 A 
ATOM     34  C   UNL     1      -3.397  -0.405  24.489  0.00  0.00    -0.001 A 
ATOM     35  C   UNL     1      -3.906  -0.835  24.004  0.00  0.00    +0.037 A 
BRANCH   3   2
ATOM      1  C   UNL     1      -4.418  -2.867  23.539  0.00  0.00    +0.252 C 
ATOM      2  O   UNL     1      -4.553  -2.065  23.671  0.00  0.00    -0.471 OA
ENDBRANCH   3   2
ENDBRANCH   7   6
ENDBRANCH   8   7
ENDBRANCH   9   8
ENDBRANCH  12  10
BRANCH  14  25
ATOM     25  N   UNL     1       1.063   0.660  23.096  0.00  0.00    -0.206 NA
ATOM     26  C   UNL     1       1.876   0.785  23.166  0.00  0.00    +0.252 C 
ATOM     27  O   UNL     1       2.166   1.313  23.728  0.00  0.00    -0.272 OA
BRANCH  26  28
ATOM     28  C   UNL     1       2.399   0.379  22.672  0.00  0.00    +0.144 C 
BRANCH  28  29
ATOM     29  S   UNL     1       3.205   0.548  22.699  0.00  0.00    -0.130 S 
ATOM     30  C   UNL     1       3.704   0.274  22.101  0.00  0.00    +0.070 C 
ENDBRANCH  28  29
ENDBRANCH  26  28
ENDBRANCH  14  25
BRANCH  18  20
ATOM     20  C   UNL     1      -1.109   3.100  25.000  0.00  0.00    +0.097 C 
BRANCH  20  21
ATOM     21  C   UNL     1      -1.662   3.500  25.465  0.00  0.00    +0.124 C 
BRANCH  21  22
ATOM     22  C   UNL     1      -1.881   4.271  25.272  0.00  0.00    +0.365 C 
ATOM     23  O   UNL     1      -1.361   4.895  25.413  0.00  0.00    -0.246 OA
ATOM     24  O   UNL     1      -2.621   4.418  24.939  0.00  0.00    -0.246 OA
ENDBRANCH  21  22
ENDBRANCH  20  21
ENDBRANCH  18  20
TORSDOF 12
ENDMDL
MODEL 9
REMARK VINA RESULT:      -7.8      2.323      4.212
REMARK  Name = 
REMARK  12 active torsions:
REMARK  status: ('A' for Active; 'I' for Inactive)
REMARK    1  A    between atoms: O_2  and  C_3
REMARK    2  A    between atoms: C_6  and  C_7
REMARK    3  A    between atoms: C_7  and  C_8
REMARK    4  A    between atoms: C_8  and  N_9
REMARK    5  A    between atoms: C_8  and  C_31
REMARK    6  A    between atoms: C_10  and  C_12
REMARK    7  A    between atoms: C_14  and  N_25
REMARK    8  A    between atoms: C_18  and  C_20
REMARK    9  A    between atoms: C_20  and  C_21
REMARK   10  A    between atoms: C_21  and  C_22
REMARK   11  A    between atoms: C_26  and  C_28
REMARK   12  A    between atoms: C_28  and  S_29
REMARK                            x       y       z     vdW  Elec       q    Type
REMARK                         _______ _______ _______ _____ _____    ______ ____
ROOT
ATOM     12  C   UNL     1      -3.679   1.139  24.520  0.00  0.00    +0.155 C 
ATOM     13  C   UNL     1      -3.476   0.349  24.638  0.00  0.00    +0.051 C 
ATOM     14  C   UNL     1      -3.942  -0.130  25.123  0.00  0.00    +0.099 C 
ATOM     15  C   UNL     1      -4.612   0.184  25.490  0.00  0.00    +0.043 C 
ATOM     16  C   UNL     1      -4.815   0.973  25.373  0.00  0.00    +0.096 C 
ATOM     17  N   UNL     1      -4.349   1.452  24.888  0.00  0.00    -0.273 N 
ATOM     18  C   UNL     1      -4.552   2.243  24.770  0.00  0.00    +0.227 C 
ATOM     19  O   UNL     1      -4.086   2.721  24.285  0.00  0.00    -0.275 OA
ENDROOT
BRANCH  12  10
ATOM      9  N   UNL     1      -2.392   1.608  24.112  0.00  0.00    -0.196 NA
ATOM     10  C   UNL     1      -3.213   1.617  24.036  0.00  0.00    +0.260 C 
ATOM     11  O   UNL     1      -3.570   2.105  23.474  0.00  0.00    -0.272 OA
BRANCH   9   8
ATOM      8  C   UNL     1      -1.928   2.086  23.627  0.00  0.00    +0.179 C 
BRANCH   8  31
ATOM     31  C   UNL     1      -1.786   1.868  22.844  0.00  0.00    +0.281 C 
ATOM     32  N   UNL     1      -1.967   2.389  22.231  0.00  0.00    -0.086 NA
ATOM     33  O   UNL     1      -1.462   1.129  22.674  0.00  0.00    -0.270 OA
ENDBRANCH   8  31
BRANCH   8   7
ATOM      7  C   UNL     1      -1.604   2.785  23.925  0.00  0.00    +0.057 C 
BRANCH   7   6
ATOM      3  C   UNL     1       0.078   2.693  25.739  0.00  0.00    +0.139 A 
ATOM      4  C   UNL     1      -0.574   3.194  25.807  0.00  0.00    +0.037 A 
ATOM      5  C   UNL     1      -1.135   3.224  25.202  0.00  0.00    -0.001 A 
ATOM      6  C   UNL     1      -1.044   2.755  24.530  0.00  0.00    -0.020 A 
ATOM     34  C   UNL     1      -0.391   2.254  24.462  0.00  0.00    -0.001 A 
ATOM     35  C   UNL     1       0.170   2.223  25.066  0.00  0.00    +0.037 A 
BRANCH   3   2
ATOM      1  C   UNL     1       0.425   2.392  27.091  0.00  0.00    +0.252 C 
ATOM      2  O   UNL     1       0.639   2.661  26.343  0.00  0.00    -0.471 OA
ENDBRANCH   3   2
ENDBRANCH   7   6
ENDBRANCH   8   7
ENDBRANCH   9   8
ENDBRANCH  12  10
BRANCH  14  25
ATOM     25  N   UNL     1      -3.738  -0.920  25.240  0.00  0.00    -0.206 NA
ATOM     26  C   UNL     1      -3.965  -1.491  24.688  0.00  0.00    +0.252 C 
ATOM     27  O   UNL     1      -4.394  -1.271  24.020  0.00  0.00    -0.272 OA
BRANCH  26  28
ATOM     28  C   UNL     1      -3.761  -2.282  24.806  0.00  0.00    +0.144 C 
BRANCH  28  29
ATOM     29  S   UNL     1      -3.654  -2.781  24.158  0.00  0.00    -0.130 S 
ATOM     30  C   UNL     1      -3.307  -3.522  24.262  0.00  0.00    +0.070 C 
ENDBRANCH  28  29
ENDBRANCH  26  28
ENDBRANCH  14  25
BRANCH  18  20
ATOM     20  C   UNL     1      -5.222   2.555  25.137  0.00  0.00    +0.097 C 
BRANCH  20  21
ATOM     21  C   UNL     1      -5.275   3.368  25.277  0.00  0.00    +0.124 C 
BRANCH  21  22
ATOM     22  C   UNL     1      -5.886   3.667  25.742  0.00  0.00    +0.365 C 
ATOM     23  O   UNL     1      -6.131   4.448  25.649  0.00  0.00    -0.246 OA
ATOM     24  O   UNL     1      -6.253   3.184  26.301  0.00  0.00    -0.246 OA
ENDBRANCH  21  22
ENDBRANCH  20  21
ENDBRANCH  18  20
TORSDOF 12
ENDMDL
