REMARK  Name = 
REMARK  8 active torsions:
REMARK  status: ('A' for Active; 'I' for Inactive)
REMARK    1  A    between atoms: C_2  and  N_4
REMARK    2  A    between atoms: N_7  and  C_8
REMARK    3  A    between atoms: C_10  and  C_21
REMARK    4  A    between atoms: C_13  and  C_15
REMARK    5  A    between atoms: N_23  and  C_24
REMARK    6  A    between atoms: C_24  and  C_25
REMARK    7  A    between atoms: C_24  and  C_35
REMARK    8  A    between atoms: C_25  and  C_26
REMARK                            x       y       z     vdW  Elec       q    Type
REMARK                         _______ _______ _______ _____ _____    ______ ____
ROOT
ATOM      8  C   UNL     1      -2.522   4.001   0.000  0.00  0.00    +0.119 C 
ATOM      9  C   UNL     1      -2.037   3.334   0.000  0.00  0.00    +0.053 C 
ATOM     10  C   UNL     1      -2.522   2.666   0.000  0.00  0.00    +0.156 C 
ATOM     11  N   UNL     1      -3.307   2.921   0.000  0.00  0.00    -0.266 N 
ATOM     12  C   UNL     1      -3.307   3.746   0.000  0.00  0.00    +0.116 C 
ATOM     13  C   UNL     1      -3.974   2.436   0.000  0.00  0.00    +0.265 C 
ATOM     14  O   UNL     1      -3.888   1.616   0.000  0.00  0.00    -0.268 OA
ENDROOT
BRANCH  13  15
ATOM     15  C   UNL     1      -4.728   2.772   0.000  0.00  0.00    +0.114 A 
ATOM     16  C   UNL     1      -5.442   2.360   0.000  0.00  0.00    +0.023 A 
ATOM     17  C   UNL     1      -6.056   2.912   0.000  0.00  0.00    +0.020 A 
ATOM     18  C   UNL     1      -5.720   3.665   0.000  0.00  0.00    +0.076 A 
ATOM     19  N   UNL     1      -4.899   3.579   0.000  0.00  0.00    -0.320 N 
ATOM     20  C   UNL     1      -4.348   4.192   0.000  0.00  0.00    +0.131 C 
ENDBRANCH  13  15
BRANCH   8   7
ATOM      4  N   UNL     1      -0.908   4.344   0.000  0.00  0.00    -0.189 NA
ATOM      5  C   UNL     1      -1.460   4.957   0.000  0.00  0.00    +0.339 C 
ATOM      6  O   UNL     1      -1.205   5.742   0.000  0.00  0.00    -0.249 OA
ATOM      7  N   UNL     1      -2.267   4.786   0.000  0.00  0.00    -0.187 NA
BRANCH   4   2
ATOM      1  C   UNL     1       0.451   3.903   0.000  0.00  0.00    +0.023 C 
ATOM      2  C   UNL     1      -0.101   4.516   0.000  0.00  0.00    +0.097 C 
ATOM      3  C   UNL     1       0.154   5.301   0.000  0.00  0.00    +0.023 C 
ENDBRANCH   4   2
ENDBRANCH   8   7
BRANCH  10  21
ATOM     21  C   UNL     1      -2.267   1.882   0.000  0.00  0.00    +0.260 C 
ATOM     22  O   UNL     1      -2.819   1.269   0.000  0.00  0.00    -0.272 OA
ATOM     23  N   UNL     1      -1.460   1.710   0.000  0.00  0.00    -0.196 NA
BRANCH  23  24
ATOM     24  C   UNL     1      -1.205   0.926   0.000  0.00  0.00    +0.179 C 
BRANCH  24  35
ATOM     35  C   UNL     1      -1.758   0.313   0.000  0.00  0.00    +0.281 C 
ATOM     36  N   UNL     1      -1.502  -0.472   0.000  0.00  0.00    -0.086 NA
ATOM     37  O   UNL     1      -2.564   0.484   0.000  0.00  0.00    -0.270 OA
ENDBRANCH  24  35
BRANCH  24  25
ATOM     25  C   UNL     1      -0.398   0.754   0.000  0.00  0.00    +0.059 C 
BRANCH  25  26
ATOM     26  C   UNL     1      -0.143  -0.030   0.000  0.00  0.00    +0.001 A 
ATOM     27  C   UNL     1      -0.628  -0.698   0.000  0.00  0.00    +0.095 A 
ATOM     28  N   UNL     1      -0.143  -1.365   0.000  0.00  0.00    -0.244 NA
ATOM     29  C   UNL     1       0.641  -1.110   0.000  0.00  0.00    +0.081 A 
ATOM     30  C   UNL     1       0.641  -0.285   0.000  0.00  0.00    +0.015 A 
ATOM     31  C   UNL     1       1.356   0.127   0.000  0.00  0.00    +0.001 A 
ATOM     32  C   UNL     1       2.070  -0.285   0.000  0.00  0.00    +0.000 A 
ATOM     33  C   UNL     1       2.070  -1.110   0.000  0.00  0.00    +0.002 A 
ATOM     34  C   UNL     1       1.356  -1.523   0.000  0.00  0.00    +0.019 A 
ENDBRANCH  25  26
ENDBRANCH  24  25
ENDBRANCH  23  24
ENDBRANCH  10  21
TORSDOF 8
