MODEL 1
REMARK VINA RESULT:     -11.6      0.000      0.000
REMARK  Name = 
REMARK  6 active torsions:
REMARK  status: ('A' for Active; 'I' for Inactive)
REMARK    1  A    between atoms: C_2  and  C_4
REMARK    2  A    between atoms: C_4  and  C_5
REMARK    3  A    between atoms: C_10  and  C_11
REMARK    4  A    between atoms: C_11  and  C_12
REMARK    5  A    between atoms: C_12  and  N_13
REMARK    6  A    between atoms: C_25  and  C_27
REMARK                            x       y       z     vdW  Elec       q    Type
REMARK                         _______ _______ _______ _____ _____    ______ ____
ROOT
ATOM      5  C   UNL     1      -4.003   3.371  25.249  0.00  0.00    +0.015 C 
ATOM      6  C   UNL     1      -3.872   4.182  25.328  0.00  0.00    +0.022 C 
ATOM      7  C   UNL     1      -3.101   4.476  25.329  0.00  0.00    +0.093 C 
ATOM      8  N   UNL     1      -2.462   3.960  25.252  0.00  0.00    -0.280 N 
ATOM      9  C   UNL     1      -2.594   3.150  25.173  0.00  0.00    +0.093 C 
ATOM     10  C   UNL     1      -3.364   2.855  25.172  0.00  0.00    +0.022 C 
ATOM     25  C   UNL     1      -1.692   4.255  25.254  0.00  0.00    +0.225 C 
ATOM     26  O   UNL     1      -1.560   5.066  25.332  0.00  0.00    -0.275 OA
ENDROOT
BRANCH  25  27
ATOM     27  C   UNL     1      -1.053   3.739  25.176  0.00  0.00    +0.077 C 
ATOM     28  C   UNL     1      -0.615   3.270  25.696  0.00  0.00    +0.009 C 
ATOM     29  C   UNL     1      -0.149   3.009  25.067  0.00  0.00    +0.001 C 
ATOM     30  C   UNL     1      -0.587   3.477  24.548  0.00  0.00    +0.009 C 
ENDBRANCH  25  27
BRANCH   5   4
ATOM      4  C   UNL     1      -4.774   3.077  25.248  0.00  0.00    +0.114 C 
BRANCH   4   2
ATOM      1  O   UNL     1      -5.534   3.146  26.456  0.00  0.00    -0.246 OA
ATOM      2  C   UNL     1      -5.355   3.441  25.705  0.00  0.00    +0.365 C 
ATOM      3  O   UNL     1      -5.759   4.099  25.414  0.00  0.00    -0.246 OA
ENDBRANCH   4   2
ENDBRANCH   5   4
BRANCH  10  11
ATOM     11  C   UNL     1      -3.496   2.045  25.093  0.00  0.00    +0.019 C 
BRANCH  11  12
ATOM     12  C   UNL     1      -3.165   1.632  24.459  0.00  0.00    +0.072 C 
BRANCH  12  13
ATOM     13  N   UNL     1      -3.211   0.810  24.434  0.00  0.00    -0.270 NA
ATOM     14  C   UNL     1      -2.589   0.353  24.724  0.00  0.00    +0.094 C 
ATOM     15  C   UNL     1      -2.635  -0.471  24.698  0.00  0.00    +0.109 C 
ATOM     16  N   UNL     1      -3.303  -0.837  24.382  0.00  0.00    -0.290 N 
ATOM     17  C   UNL     1      -3.925  -0.380  24.092  0.00  0.00    +0.109 C 
ATOM     18  C   UNL     1      -3.879   0.443  24.117  0.00  0.00    +0.094 C 
ATOM     19  C   UNL     1      -3.349  -1.661  24.357  0.00  0.00    +0.132 A 
ATOM     20  N   UNL     1      -2.726  -2.118  24.647  0.00  0.00    -0.229 NA
ATOM     21  C   UNL     1      -2.772  -2.941  24.622  0.00  0.00    +0.100 A 
ATOM     22  C   UNL     1      -3.440  -3.308  24.305  0.00  0.00    +0.021 A 
ATOM     23  C   UNL     1      -4.063  -2.851  24.015  0.00  0.00    +0.004 A 
ATOM     24  C   UNL     1      -4.017  -2.027  24.040  0.00  0.00    +0.034 A 
ENDBRANCH  12  13
ENDBRANCH  11  12
ENDBRANCH  10  11
TORSDOF 6
ENDMDL
MODEL 2
REMARK VINA RESULT:     -10.5      1.184      2.804
REMARK  Name = 
REMARK  6 active torsions:
REMARK  status: ('A' for Active; 'I' for Inactive)
REMARK    1  A    between atoms: C_2  and  C_4
REMARK    2  A    between atoms: C_4  and  C_5
REMARK    3  A    between atoms: C_10  and  C_11
REMARK    4  A    between atoms: C_11  and  C_12
REMARK    5  A    between atoms: C_12  and  N_13
REMARK    6  A    between atoms: C_25  and  C_27
REMARK                            x       y       z     vdW  Elec       q    Type
REMARK                         _______ _______ _______ _____ _____    ______ ____
ROOT
ATOM      5  C   UNL     1      -0.960   2.551  25.128  0.00  0.00    +0.015 C 
ATOM      6  C   UNL     1      -0.755   3.326  25.322  0.00  0.00    +0.022 C 
ATOM      7  C   UNL     1      -1.345   3.892  25.440  0.00  0.00    +0.093 C 
ATOM      8  N   UNL     1      -2.139   3.681  25.364  0.00  0.00    -0.280 N 
ATOM      9  C   UNL     1      -2.343   2.906  25.169  0.00  0.00    +0.093 C 
ATOM     10  C   UNL     1      -1.754   2.341  25.051  0.00  0.00    +0.022 C 
ATOM     25  C   UNL     1      -2.728   4.246  25.481  0.00  0.00    +0.225 C 
ATOM     26  O   UNL     1      -2.524   5.021  25.676  0.00  0.00    -0.275 OA
ENDROOT
BRANCH  25  27
ATOM     27  C   UNL     1      -3.522   4.036  25.404  0.00  0.00    +0.077 C 
ATOM     28  C   UNL     1      -4.113   3.787  25.925  0.00  0.00    +0.009 C 
ATOM     29  C   UNL     1      -4.645   3.738  25.296  0.00  0.00    +0.001 C 
ATOM     30  C   UNL     1      -4.055   3.987  24.776  0.00  0.00    +0.009 C 
ENDBRANCH  25  27
BRANCH   5   4
ATOM      4  C   UNL     1      -0.370   1.987  25.010  0.00  0.00    +0.114 C 
BRANCH   4   2
ATOM      1  O   UNL     1       0.793   2.328  25.766  0.00  0.00    -0.246 OA
ATOM      2  C   UNL     1       0.423   2.208  25.038  0.00  0.00    +0.365 C 
ATOM      3  O   UNL     1       0.849   2.308  24.339  0.00  0.00    -0.246 OA
ENDBRANCH   4   2
ENDBRANCH   5   4
BRANCH  10  11
ATOM     11  C   UNL     1      -1.958   1.567  24.856  0.00  0.00    +0.019 C 
BRANCH  11  12
ATOM     12  C   UNL     1      -2.450   1.131  25.355  0.00  0.00    +0.072 C 
BRANCH  12  13
ATOM     13  N   UNL     1      -2.725   0.390  25.121  0.00  0.00    -0.270 NA
ATOM     14  C   UNL     1      -2.377  -0.294  25.423  0.00  0.00    +0.094 C 
ATOM     15  C   UNL     1      -2.652  -1.036  25.188  0.00  0.00    +0.109 C 
ATOM     16  N   UNL     1      -3.275  -1.093  24.651  0.00  0.00    -0.290 N 
ATOM     17  C   UNL     1      -3.623  -0.409  24.348  0.00  0.00    +0.109 C 
ATOM     18  C   UNL     1      -3.348   0.332  24.583  0.00  0.00    +0.094 C 
ATOM     19  C   UNL     1      -3.550  -1.835  24.416  0.00  0.00    +0.132 A 
ATOM     20  N   UNL     1      -3.202  -2.519  24.719  0.00  0.00    -0.229 NA
ATOM     21  C   UNL     1      -3.476  -3.261  24.484  0.00  0.00    +0.100 A 
ATOM     22  C   UNL     1      -4.100  -3.318  23.946  0.00  0.00    +0.021 A 
ATOM     23  C   UNL     1      -4.448  -2.634  23.643  0.00  0.00    +0.004 A 
ATOM     24  C   UNL     1      -4.173  -1.892  23.878  0.00  0.00    +0.034 A 
ENDBRANCH  12  13
ENDBRANCH  11  12
ENDBRANCH  10  11
TORSDOF 6
ENDMDL
MODEL 3
REMARK VINA RESULT:     -10.3      0.730      2.705
REMARK  Name = 
REMARK  6 active torsions:
REMARK  status: ('A' for Active; 'I' for Inactive)
REMARK    1  A    between atoms: C_2  and  C_4
REMARK    2  A    between atoms: C_4  and  C_5
REMARK    3  A    between atoms: C_10  and  C_11
REMARK    4  A    between atoms: C_11  and  C_12
REMARK    5  A    between atoms: C_12  and  N_13
REMARK    6  A    between atoms: C_25  and  C_27
REMARK                            x       y       z     vdW  Elec       q    Type
REMARK                         _______ _______ _______ _____ _____    ______ ____
ROOT
ATOM      5  C   UNL     1      -2.186   3.311  25.054  0.00  0.00    +0.015 C 
ATOM      6  C   UNL     1      -2.430   4.090  25.172  0.00  0.00    +0.022 C 
ATOM      7  C   UNL     1      -3.225   4.254  25.320  0.00  0.00    +0.093 C 
ATOM      8  N   UNL     1      -3.775   3.640  25.348  0.00  0.00    -0.280 N 
ATOM      9  C   UNL     1      -3.530   2.861  25.229  0.00  0.00    +0.093 C 
ATOM     10  C   UNL     1      -2.736   2.697  25.082  0.00  0.00    +0.022 C 
ATOM     25  C   UNL     1      -4.570   3.805  25.496  0.00  0.00    +0.225 C 
ATOM     26  O   UNL     1      -4.815   4.584  25.615  0.00  0.00    -0.275 OA
ENDROOT
BRANCH  25  27
ATOM     27  C   UNL     1      -5.120   3.191  25.524  0.00  0.00    +0.077 C 
ATOM     28  C   UNL     1      -5.610   2.820  24.973  0.00  0.00    +0.009 C 
ATOM     29  C   UNL     1      -5.898   2.322  25.564  0.00  0.00    +0.001 C 
ATOM     30  C   UNL     1      -5.408   2.692  26.115  0.00  0.00    +0.009 C 
ENDBRANCH  25  27
BRANCH   5   4
ATOM      4  C   UNL     1      -1.391   3.147  24.906  0.00  0.00    +0.114 C 
BRANCH   4   2
ATOM      1  O   UNL     1      -0.436   3.626  25.854  0.00  0.00    -0.246 OA
ATOM      2  C   UNL     1      -0.811   3.691  25.121  0.00  0.00    +0.365 C 
ATOM      3  O   UNL     1      -0.604   4.300  24.605  0.00  0.00    -0.246 OA
ENDBRANCH   4   2
ENDBRANCH   5   4
BRANCH  10  11
ATOM     11  C   UNL     1      -2.491   1.918  24.963  0.00  0.00    +0.019 C 
BRANCH  11  12
ATOM     12  C   UNL     1      -2.707   1.518  24.275  0.00  0.00    +0.072 C 
BRANCH  12  13
ATOM     13  N   UNL     1      -2.846   0.705  24.296  0.00  0.00    -0.270 NA
ATOM     14  C   UNL     1      -2.319   0.207  24.690  0.00  0.00    +0.094 C 
ATOM     15  C   UNL     1      -2.458  -0.606  24.711  0.00  0.00    +0.109 C 
ATOM     16  N   UNL     1      -3.123  -0.921  24.339  0.00  0.00    -0.290 N 
ATOM     17  C   UNL     1      -3.650  -0.423  23.945  0.00  0.00    +0.109 C 
ATOM     18  C   UNL     1      -3.511   0.390  23.924  0.00  0.00    +0.094 C 
ATOM     19  C   UNL     1      -3.262  -1.734  24.360  0.00  0.00    +0.132 A 
ATOM     20  N   UNL     1      -2.735  -2.232  24.754  0.00  0.00    -0.229 NA
ATOM     21  C   UNL     1      -2.873  -3.045  24.776  0.00  0.00    +0.100 A 
ATOM     22  C   UNL     1      -3.539  -3.360  24.403  0.00  0.00    +0.021 A 
ATOM     23  C   UNL     1      -4.066  -2.862  24.009  0.00  0.00    +0.004 A 
ATOM     24  C   UNL     1      -3.927  -2.049  23.988  0.00  0.00    +0.034 A 
ENDBRANCH  12  13
ENDBRANCH  11  12
ENDBRANCH  10  11
TORSDOF 6
ENDMDL
MODEL 4
REMARK VINA RESULT:      -9.9      2.563      4.435
REMARK  Name = 
REMARK  6 active torsions:
REMARK  status: ('A' for Active; 'I' for Inactive)
REMARK    1  A    between atoms: C_2  and  C_4
REMARK    2  A    between atoms: C_4  and  C_5
REMARK    3  A    between atoms: C_10  and  C_11
REMARK    4  A    between atoms: C_11  and  C_12
REMARK    5  A    between atoms: C_12  and  N_13
REMARK    6  A    between atoms: C_25  and  C_27
REMARK                            x       y       z     vdW  Elec       q    Type
REMARK                         _______ _______ _______ _____ _____    ______ ____
ROOT
ATOM      5  C   UNL     1      -3.104   2.351  24.672  0.00  0.00    +0.015 C 
ATOM      6  C   UNL     1      -3.874   2.391  24.964  0.00  0.00    +0.022 C 
ATOM      7  C   UNL     1      -4.313   1.700  25.065  0.00  0.00    +0.093 C 
ATOM      8  N   UNL     1      -3.982   0.969  24.874  0.00  0.00    -0.280 N 
ATOM      9  C   UNL     1      -3.212   0.929  24.581  0.00  0.00    +0.093 C 
ATOM     10  C   UNL     1      -2.773   1.620  24.480  0.00  0.00    +0.022 C 
ATOM     25  C   UNL     1      -4.421   0.278  24.975  0.00  0.00    +0.225 C 
ATOM     26  O   UNL     1      -5.192   0.318  25.268  0.00  0.00    -0.275 OA
ENDROOT
BRANCH  25  27
ATOM     27  C   UNL     1      -4.090  -0.453  24.784  0.00  0.00    +0.077 C 
ATOM     28  C   UNL     1      -3.674  -1.032  25.200  0.00  0.00    +0.009 C 
ATOM     29  C   UNL     1      -3.622  -1.487  24.513  0.00  0.00    +0.001 C 
ATOM     30  C   UNL     1      -4.037  -0.908  24.098  0.00  0.00    +0.009 C 
ENDBRANCH  25  27
BRANCH   5   4
ATOM      4  C   UNL     1      -2.665   3.042  24.571  0.00  0.00    +0.114 C 
BRANCH   4   2
ATOM      1  O   UNL     1      -3.466   4.177  24.235  0.00  0.00    -0.246 OA
ATOM      2  C   UNL     1      -2.991   3.771  24.775  0.00  0.00    +0.365 C 
ATOM      3  O   UNL     1      -2.843   4.096  25.518  0.00  0.00    -0.246 OA
ENDBRANCH   4   2
ENDBRANCH   5   4
BRANCH  10  11
ATOM     11  C   UNL     1      -2.003   1.580  24.188  0.00  0.00    +0.019 C 
BRANCH  11  12
ATOM     12  C   UNL     1      -1.428   1.152  24.596  0.00  0.00    +0.072 C 
BRANCH  12  13
ATOM     13  N   UNL     1      -0.690   1.019  24.252  0.00  0.00    -0.270 NA
ATOM     14  C   UNL     1      -0.060   1.524  24.420  0.00  0.00    +0.094 C 
ATOM     15  C   UNL     1       0.679   1.392  24.076  0.00  0.00    +0.109 C 
ATOM     16  N   UNL     1       0.786   0.755  23.564  0.00  0.00    -0.290 N 
ATOM     17  C   UNL     1       0.156   0.250  23.395  0.00  0.00    +0.109 C 
ATOM     18  C   UNL     1      -0.582   0.382  23.739  0.00  0.00    +0.094 C 
ATOM     19  C   UNL     1       1.525   0.622  23.219  0.00  0.00    +0.132 A 
ATOM     20  N   UNL     1       2.155   1.128  23.388  0.00  0.00    -0.229 NA
ATOM     21  C   UNL     1       2.893   0.996  23.044  0.00  0.00    +0.100 A 
ATOM     22  C   UNL     1       3.001   0.358  22.531  0.00  0.00    +0.021 A 
ATOM     23  C   UNL     1       2.371  -0.147  22.363  0.00  0.00    +0.004 A 
ATOM     24  C   UNL     1       1.632  -0.015  22.707  0.00  0.00    +0.034 A 
ENDBRANCH  12  13
ENDBRANCH  11  12
ENDBRANCH  10  11
TORSDOF 6
ENDMDL
MODEL 5
REMARK VINA RESULT:      -9.8      2.751      4.383
REMARK  Name = 
REMARK  6 active torsions:
REMARK  status: ('A' for Active; 'I' for Inactive)
REMARK    1  A    between atoms: C_2  and  C_4
REMARK    2  A    between atoms: C_4  and  C_5
REMARK    3  A    between atoms: C_10  and  C_11
REMARK    4  A    between atoms: C_11  and  C_12
REMARK    5  A    between atoms: C_12  and  N_13
REMARK    6  A    between atoms: C_25  and  C_27
REMARK                            x       y       z     vdW  Elec       q    Type
REMARK                         _______ _______ _______ _____ _____    ______ ____
ROOT
ATOM      5  C   UNL     1      -3.639  -0.053  24.561  0.00  0.00    +0.015 C 
ATOM      6  C   UNL     1      -4.403   0.069  24.848  0.00  0.00    +0.022 C 
ATOM      7  C   UNL     1      -4.669   0.836  24.997  0.00  0.00    +0.093 C 
ATOM      8  N   UNL     1      -4.171   1.480  24.860  0.00  0.00    -0.280 N 
ATOM      9  C   UNL     1      -3.408   1.357  24.573  0.00  0.00    +0.093 C 
ATOM     10  C   UNL     1      -3.141   0.591  24.423  0.00  0.00    +0.022 C 
ATOM     25  C   UNL     1      -4.438   2.246  25.009  0.00  0.00    +0.225 C 
ATOM     26  O   UNL     1      -5.201   2.369  25.296  0.00  0.00    -0.275 OA
ENDROOT
BRANCH  25  27
ATOM     27  C   UNL     1      -3.940   2.890  24.872  0.00  0.00    +0.077 C 
ATOM     28  C   UNL     1      -3.426   3.339  25.336  0.00  0.00    +0.009 C 
ATOM     29  C   UNL     1      -3.237   3.800  24.677  0.00  0.00    +0.001 C 
ATOM     30  C   UNL     1      -3.750   3.351  24.215  0.00  0.00    +0.009 C 
ENDBRANCH  25  27
BRANCH   5   4
ATOM      4  C   UNL     1      -3.373  -0.819  24.411  0.00  0.00    +0.114 C 
BRANCH   4   2
ATOM      1  O   UNL     1      -4.366  -1.683  23.855  0.00  0.00    -0.246 OA
ATOM      2  C   UNL     1      -3.889  -1.457  24.490  0.00  0.00    +0.365 C 
ATOM      3  O   UNL     1      -3.929  -1.870  25.203  0.00  0.00    -0.246 OA
ENDBRANCH   4   2
ENDBRANCH   5   4
BRANCH  10  11
ATOM     11  C   UNL     1      -2.378   0.468  24.137  0.00  0.00    +0.019 C 
BRANCH  11  12
ATOM     12  C   UNL     1      -1.726   0.663  24.602  0.00  0.00    +0.072 C 
BRANCH  12  13
ATOM     13  N   UNL     1      -0.967   0.639  24.280  0.00  0.00    -0.270 NA
ATOM     14  C   UNL     1      -0.439   1.257  24.421  0.00  0.00    +0.094 C 
ATOM     15  C   UNL     1       0.320   1.234  24.099  0.00  0.00    +0.109 C 
ATOM     16  N   UNL     1       0.551   0.591  23.636  0.00  0.00    -0.290 N 
ATOM     17  C   UNL     1       0.024  -0.027  23.495  0.00  0.00    +0.109 C 
ATOM     18  C   UNL     1      -0.735  -0.003  23.817  0.00  0.00    +0.094 C 
ATOM     19  C   UNL     1       1.311   0.567  23.314  0.00  0.00    +0.132 A 
ATOM     20  N   UNL     1       1.839   1.186  23.455  0.00  0.00    -0.229 NA
ATOM     21  C   UNL     1       2.598   1.163  23.134  0.00  0.00    +0.100 A 
ATOM     22  C   UNL     1       2.830   0.520  22.670  0.00  0.00    +0.021 A 
ATOM     23  C   UNL     1       2.302  -0.099  22.529  0.00  0.00    +0.004 A 
ATOM     24  C   UNL     1       1.542  -0.075  22.851  0.00  0.00    +0.034 A 
ENDBRANCH  12  13
ENDBRANCH  11  12
ENDBRANCH  10  11
TORSDOF 6
ENDMDL
