MODEL 1
REMARK VINA RESULT:     -11.4      0.000      0.000
REMARK  Name = 
REMARK  7 active torsions:
REMARK  status: ('A' for Active; 'I' for Inactive)
REMARK    1  A    between atoms: O_2  and  C_3
REMARK    2  A    between atoms: C_6  and  C_9
REMARK    3  A    between atoms: C_11  and  C_12
REMARK    4  A    between atoms: C_12  and  C_13
REMARK    5  A    between atoms: C_18  and  C_19
REMARK    6  A    between atoms: C_19  and  C_20
REMARK    7  A    between atoms: N_22  and  C_23
REMARK                            x       y       z     vdW  Elec       q    Type
REMARK                         _______ _______ _______ _____ _____    ______ ____
ROOT
ATOM     12  C   UNL     1      -4.317   2.268  24.432  0.00  0.00    +0.051 C 
ENDROOT
BRANCH  12  13
ATOM     13  C   UNL     1      -4.456   2.812  25.036  0.00  0.00    +0.024 C 
ATOM     14  C   UNL     1      -5.145   2.763  25.486  0.00  0.00    +0.089 C 
ATOM     15  N   UNL     1      -5.283   3.307  26.090  0.00  0.00    -0.218 NA
ATOM     16  C   UNL     1      -4.733   3.902  26.244  0.00  0.00    +0.089 C 
ATOM     17  C   UNL     1      -4.043   3.952  25.794  0.00  0.00    +0.019 C 
ATOM     18  C   UNL     1      -3.905   3.407  25.189  0.00  0.00    +0.012 C 
BRANCH  18  19
ATOM     19  C   UNL     1      -3.215   3.457  24.739  0.00  0.00    +0.087 C 
BRANCH  19  20
ATOM     20  C   UNL     1      -2.516   3.723  25.084  0.00  0.00    +0.241 C 
ATOM     21  O   UNL     1      -2.463   3.799  25.904  0.00  0.00    -0.273 OA
ATOM     22  N   UNL     1      -1.868   3.914  24.610  0.00  0.00    -0.209 NA
BRANCH  22  23
ATOM     23  C   UNL     1      -1.167   4.181  24.955  0.00  0.00    +0.079 C 
ATOM     24  C   UNL     1      -0.467   4.448  25.300  0.00  0.00    +0.022 C 
ATOM     25  C   UNL     1      -0.896   3.404  25.003  0.00  0.00    +0.022 C 
ATOM     26  C   UNL     1      -1.440   4.958  24.907  0.00  0.00    +0.022 C 
ENDBRANCH  22  23
ENDBRANCH  19  20
ENDBRANCH  18  19
ENDBRANCH  12  13
BRANCH  12  11
ATOM      9  C   UNL     1      -4.416   0.147  24.657  0.00  0.00    +0.177 A 
ATOM     10  C   UNL     1      -3.985   0.839  24.523  0.00  0.00    +0.058 A 
ATOM     11  C   UNL     1      -4.512   1.474  24.540  0.00  0.00    +0.101 A 
ATOM     27  N   UNL     1      -5.268   1.175  24.683  0.00  0.00    -0.081 NA
ATOM     28  O   UNL     1      -5.208   0.355  24.755  0.00  0.00    -0.354 OA
BRANCH   9   6
ATOM      3  C   UNL     1      -3.490  -2.147  24.745  0.00  0.00    +0.139 A 
ATOM      4  C   UNL     1      -3.905  -1.894  24.077  0.00  0.00    +0.037 A 
ATOM      5  C   UNL     1      -4.213  -1.129  24.047  0.00  0.00    +0.006 A 
ATOM      6  C   UNL     1      -4.107  -0.618  24.686  0.00  0.00    +0.037 A 
ATOM      7  C   UNL     1      -3.693  -0.870  25.353  0.00  0.00    +0.006 A 
ATOM      8  C   UNL     1      -3.385  -1.634  25.382  0.00  0.00    +0.037 A 
BRANCH   3   2
ATOM      1  C   UNL     1      -2.409  -3.054  24.524  0.00  0.00    +0.252 C 
ATOM      2  O   UNL     1      -3.182  -2.911  24.774  0.00  0.00    -0.471 OA
ENDBRANCH   3   2
ENDBRANCH   9   6
ENDBRANCH  12  11
TORSDOF 7
ENDMDL
MODEL 2
REMARK VINA RESULT:     -10.5      2.288      6.086
REMARK  Name = 
REMARK  7 active torsions:
REMARK  status: ('A' for Active; 'I' for Inactive)
REMARK    1  A    between atoms: O_2  and  C_3
REMARK    2  A    between atoms: C_6  and  C_9
REMARK    3  A    between atoms: C_11  and  C_12
REMARK    4  A    between atoms: C_12  and  C_13
REMARK    5  A    between atoms: C_18  and  C_19
REMARK    6  A    between atoms: C_19  and  C_20
REMARK    7  A    between atoms: N_22  and  C_23
REMARK                            x       y       z     vdW  Elec       q    Type
REMARK                         _______ _______ _______ _____ _____    ______ ____
ROOT
ATOM     12  C   UNL     1      -1.333   0.305  25.499  0.00  0.00    +0.051 C 
ENDROOT
BRANCH  12  13
ATOM     13  C   UNL     1      -0.944  -0.149  24.931  0.00  0.00    +0.024 C 
ATOM     14  C   UNL     1      -0.273   0.149  24.553  0.00  0.00    +0.089 C 
ATOM     15  N   UNL     1       0.117  -0.305  23.986  0.00  0.00    -0.218 NA
ATOM     16  C   UNL     1      -0.163  -1.057  23.796  0.00  0.00    +0.089 C 
ATOM     17  C   UNL     1      -0.833  -1.356  24.173  0.00  0.00    +0.019 C 
ATOM     18  C   UNL     1      -1.223  -0.901  24.741  0.00  0.00    +0.012 C 
BRANCH  18  19
ATOM     19  C   UNL     1      -1.893  -1.200  25.119  0.00  0.00    +0.087 C 
BRANCH  19  20
ATOM     20  C   UNL     1      -2.404  -1.705  24.715  0.00  0.00    +0.241 C 
ATOM     21  O   UNL     1      -2.099  -2.299  24.230  0.00  0.00    -0.273 OA
ATOM     22  N   UNL     1      -3.221  -1.617  24.795  0.00  0.00    -0.209 NA
BRANCH  22  23
ATOM     23  C   UNL     1      -3.733  -2.122  24.390  0.00  0.00    +0.079 C 
ATOM     24  C   UNL     1      -4.244  -2.627  23.985  0.00  0.00    +0.022 C 
ATOM     25  C   UNL     1      -3.511  -2.743  24.886  0.00  0.00    +0.022 C 
ATOM     26  C   UNL     1      -3.953  -1.501  23.894  0.00  0.00    +0.022 C 
ENDBRANCH  22  23
ENDBRANCH  19  20
ENDBRANCH  18  19
ENDBRANCH  12  13
BRANCH  12  11
ATOM      9  C   UNL     1      -1.042   2.414  25.665  0.00  0.00    +0.177 A 
ATOM     10  C   UNL     1      -1.476   1.765  25.396  0.00  0.00    +0.058 A 
ATOM     11  C   UNL     1      -1.090   1.079  25.646  0.00  0.00    +0.101 A 
ATOM     27  N   UNL     1      -0.419   1.304  26.070  0.00  0.00    -0.081 NA
ATOM     28  O   UNL     1      -0.389   2.129  26.081  0.00  0.00    -0.354 OA
BRANCH   9   6
ATOM      3  C   UNL     1      -1.604   4.794  25.290  0.00  0.00    +0.139 A 
ATOM      4  C   UNL     1      -0.879   4.495  25.030  0.00  0.00    +0.037 A 
ATOM      5  C   UNL     1      -0.692   3.702  25.156  0.00  0.00    +0.006 A 
ATOM      6  C   UNL     1      -1.229   3.207  25.540  0.00  0.00    +0.037 A 
ATOM      7  C   UNL     1      -1.953   3.506  25.799  0.00  0.00    +0.006 A 
ATOM      8  C   UNL     1      -2.140   4.299  25.674  0.00  0.00    +0.037 A 
BRANCH   3   2
ATOM      1  C   UNL     1      -1.301   6.058  24.697  0.00  0.00    +0.252 C 
ATOM      2  O   UNL     1      -1.791   5.588  25.164  0.00  0.00    -0.471 OA
ENDBRANCH   3   2
ENDBRANCH   9   6
ENDBRANCH  12  11
TORSDOF 7
ENDMDL
MODEL 3
REMARK VINA RESULT:      -9.8      1.493      4.810
REMARK  Name = 
REMARK  7 active torsions:
REMARK  status: ('A' for Active; 'I' for Inactive)
REMARK    1  A    between atoms: O_2  and  C_3
REMARK    2  A    between atoms: C_6  and  C_9
REMARK    3  A    between atoms: C_11  and  C_12
REMARK    4  A    between atoms: C_12  and  C_13
REMARK    5  A    between atoms: C_18  and  C_19
REMARK    6  A    between atoms: C_19  and  C_20
REMARK    7  A    between atoms: N_22  and  C_23
REMARK                            x       y       z     vdW  Elec       q    Type
REMARK                         _______ _______ _______ _____ _____    ______ ____
ROOT
ATOM     12  C   UNL     1      -3.625   1.740  23.907  0.00  0.00    +0.051 C 
ENDROOT
BRANCH  12  13
ATOM     13  C   UNL     1      -4.260   1.544  24.396  0.00  0.00    +0.024 C 
ATOM     14  C   UNL     1      -4.674   2.138  24.792  0.00  0.00    +0.089 C 
ATOM     15  N   UNL     1      -5.308   1.942  25.281  0.00  0.00    -0.218 NA
ATOM     16  C   UNL     1      -5.529   1.153  25.375  0.00  0.00    +0.089 C 
ATOM     17  C   UNL     1      -5.115   0.559  24.979  0.00  0.00    +0.019 C 
ATOM     18  C   UNL     1      -4.480   0.755  24.490  0.00  0.00    +0.012 C 
BRANCH  18  19
ATOM     19  C   UNL     1      -4.066   0.161  24.094  0.00  0.00    +0.087 C 
BRANCH  19  20
ATOM     20  C   UNL     1      -4.036  -0.600  24.408  0.00  0.00    +0.241 C 
ATOM     21  O   UNL     1      -4.339  -0.748  25.162  0.00  0.00    -0.273 OA
ATOM     22  N   UNL     1      -3.702  -1.215  23.971  0.00  0.00    -0.209 NA
BRANCH  22  23
ATOM     23  C   UNL     1      -3.672  -1.978  24.286  0.00  0.00    +0.079 C 
ATOM     24  C   UNL     1      -3.641  -2.739  24.600  0.00  0.00    +0.022 C 
ATOM     25  C   UNL     1      -4.361  -2.173  23.877  0.00  0.00    +0.022 C 
ATOM     26  C   UNL     1      -2.983  -1.781  24.694  0.00  0.00    +0.022 C 
ENDBRANCH  22  23
ENDBRANCH  19  20
ENDBRANCH  18  19
ENDBRANCH  12  13
BRANCH  12  11
ATOM      9  C   UNL     1      -1.908   2.632  24.810  0.00  0.00    +0.177 A 
ATOM     10  C   UNL     1      -2.379   1.972  24.651  0.00  0.00    +0.058 A 
ATOM     11  C   UNL     1      -3.018   2.220  24.191  0.00  0.00    +0.101 A 
ATOM     27  N   UNL     1      -2.941   3.032  24.064  0.00  0.00    -0.081 NA
ATOM     28  O   UNL     1      -2.255   3.286  24.447  0.00  0.00    -0.354 OA
BRANCH   9   6
ATOM      3  C   UNL     1       0.179   2.642  26.139  0.00  0.00    +0.139 A 
ATOM      4  C   UNL     1      -0.509   2.979  26.448  0.00  0.00    +0.037 A 
ATOM      5  C   UNL     1      -1.205   2.976  26.004  0.00  0.00    +0.006 A 
ATOM      6  C   UNL     1      -1.213   2.635  25.253  0.00  0.00    +0.037 A 
ATOM      7  C   UNL     1      -0.526   2.298  24.945  0.00  0.00    +0.006 A 
ATOM      8  C   UNL     1       0.170   2.302  25.388  0.00  0.00    +0.037 A 
BRANCH   3   2
ATOM      1  C   UNL     1       0.841   2.565  27.403  0.00  0.00    +0.252 C 
ATOM      2  O   UNL     1       0.875   2.645  26.583  0.00  0.00    -0.471 OA
ENDBRANCH   3   2
ENDBRANCH   9   6
ENDBRANCH  12  11
TORSDOF 7
ENDMDL
MODEL 4
REMARK VINA RESULT:      -9.8      1.704      3.067
REMARK  Name = 
REMARK  7 active torsions:
REMARK  status: ('A' for Active; 'I' for Inactive)
REMARK    1  A    between atoms: O_2  and  C_3
REMARK    2  A    between atoms: C_6  and  C_9
REMARK    3  A    between atoms: C_11  and  C_12
REMARK    4  A    between atoms: C_12  and  C_13
REMARK    5  A    between atoms: C_18  and  C_19
REMARK    6  A    between atoms: C_19  and  C_20
REMARK    7  A    between atoms: N_22  and  C_23
REMARK                            x       y       z     vdW  Elec       q    Type
REMARK                         _______ _______ _______ _____ _____    ______ ____
ROOT
ATOM     12  C   UNL     1      -0.953   1.647  24.320  0.00  0.00    +0.051 C 
ENDROOT
BRANCH  12  13
ATOM     13  C   UNL     1      -0.813   2.123  24.978  0.00  0.00    +0.024 C 
ATOM     14  C   UNL     1      -0.194   1.943  25.494  0.00  0.00    +0.089 C 
ATOM     15  N   UNL     1      -0.053   2.419  26.152  0.00  0.00    -0.218 NA
ATOM     16  C   UNL     1      -0.531   3.076  26.295  0.00  0.00    +0.089 C 
ATOM     17  C   UNL     1      -1.149   3.257  25.780  0.00  0.00    +0.019 C 
ATOM     18  C   UNL     1      -1.290   2.780  25.121  0.00  0.00    +0.012 C 
BRANCH  18  19
ATOM     19  C   UNL     1      -1.909   2.961  24.606  0.00  0.00    +0.087 C 
BRANCH  19  20
ATOM     20  C   UNL     1      -2.589   3.329  24.891  0.00  0.00    +0.241 C 
ATOM     21  O   UNL     1      -2.528   3.931  25.453  0.00  0.00    -0.273 OA
ATOM     22  N   UNL     1      -3.331   3.097  24.615  0.00  0.00    -0.209 NA
BRANCH  22  23
ATOM     23  C   UNL     1      -4.012   3.465  24.901  0.00  0.00    +0.079 C 
ATOM     24  C   UNL     1      -4.693   3.833  25.186  0.00  0.00    +0.022 C 
ATOM     25  C   UNL     1      -3.871   4.109  24.404  0.00  0.00    +0.022 C 
ATOM     26  C   UNL     1      -4.152   2.822  25.397  0.00  0.00    +0.022 C 
ENDBRANCH  22  23
ENDBRANCH  19  20
ENDBRANCH  18  19
ENDBRANCH  12  13
BRANCH  12  11
ATOM      9  C   UNL     1      -1.422  -0.425  24.540  0.00  0.00    +0.177 A 
ATOM     10  C   UNL     1      -1.656   0.364  24.470  0.00  0.00    +0.058 A 
ATOM     11  C   UNL     1      -0.976   0.826  24.402  0.00  0.00    +0.101 A 
ATOM     27  N   UNL     1      -0.322   0.324  24.430  0.00  0.00    -0.081 NA
ATOM     28  O   UNL     1      -0.598  -0.449  24.515  0.00  0.00    -0.354 OA
BRANCH   9   6
ATOM      3  C   UNL     1      -2.930  -2.372  24.782  0.00  0.00    +0.139 A 
ATOM      4  C   UNL     1      -3.206  -1.613  24.953  0.00  0.00    +0.037 A 
ATOM      5  C   UNL     1      -2.703  -0.964  24.872  0.00  0.00    +0.006 A 
ATOM      6  C   UNL     1      -1.925  -1.074  24.621  0.00  0.00    +0.037 A 
ATOM      7  C   UNL     1      -1.650  -1.832  24.450  0.00  0.00    +0.006 A 
ATOM      8  C   UNL     1      -2.152  -2.481  24.530  0.00  0.00    +0.037 A 
BRANCH   3   2
ATOM      1  C   UNL     1      -3.977  -3.198  24.269  0.00  0.00    +0.252 C 
ATOM      2  O   UNL     1      -3.433  -3.021  24.863  0.00  0.00    -0.471 OA
ENDBRANCH   3   2
ENDBRANCH   9   6
ENDBRANCH  12  11
TORSDOF 7
ENDMDL
