MODEL 1
REMARK VINA RESULT:      -9.7      0.000      0.000
REMARK  Name = 
REMARK  8 active torsions:
REMARK  status: ('A' for Active; 'I' for Inactive)
REMARK    1  A    between atoms: O_2  and  C_3
REMARK    2  A    between atoms: C_3  and  C_4
REMARK    3  A    between atoms: C_4  and  O_5
REMARK    4  A    between atoms: O_5  and  C_6
REMARK    5  A    between atoms: C_7  and  C_12
REMARK    6  A    between atoms: C_15  and  C_17
REMARK    7  A    between atoms: N_21  and  C_22
REMARK    8  A    between atoms: C_22  and  C_23
REMARK                            x       y       z     vdW  Elec       q    Type
REMARK                         _______ _______ _______ _____ _____    ______ ____
ROOT
ATOM     12  C   UNL     1      -3.899   1.460  24.590  0.00  0.00    +0.208 A 
ATOM     13  N   UNL     1      -3.741   1.391  23.783  0.00  0.00    -0.056 NA
ATOM     14  O   UNL     1      -3.189   0.787  23.683  0.00  0.00    -0.336 OA
ATOM     15  C   UNL     1      -3.005   0.483  24.427  0.00  0.00    +0.251 A 
ATOM     16  N   UNL     1      -3.444   0.898  24.988  0.00  0.00    -0.189 NA
ENDROOT
BRANCH  12   7
ATOM      6  C   UNL     1      -4.158   2.751  25.147  0.00  0.00    +0.228 A 
ATOM      7  C   UNL     1      -4.420   1.996  24.938  0.00  0.00    +0.092 A 
ATOM      8  C   UNL     1      -5.204   1.779  25.078  0.00  0.00    +0.009 A 
ATOM      9  C   UNL     1      -5.724   2.315  25.425  0.00  0.00    +0.021 A 
ATOM     10  C   UNL     1      -5.463   3.069  25.634  0.00  0.00    +0.102 A 
ATOM     11  N   UNL     1      -4.678   3.286  25.495  0.00  0.00    -0.210 NA
BRANCH   6   5
ATOM      5  O   UNL     1      -3.374   2.967  25.008  0.00  0.00    -0.457 OA
BRANCH   5   4
ATOM      4  C   UNL     1      -3.102   3.708  25.251  0.00  0.00    +0.239 C 
BRANCH   4   3
ATOM      3  C   UNL     1      -2.329   3.939  25.080  0.00  0.00    +0.189 C 
BRANCH   3   2
ATOM      1  C   UNL     1      -1.337   4.967  25.117  0.00  0.00    +0.174 C 
ATOM      2  O   UNL     1      -2.014   4.615  25.432  0.00  0.00    -0.347 OA
ENDBRANCH   3   2
ENDBRANCH   4   3
ENDBRANCH   5   4
ENDBRANCH   6   5
ENDBRANCH  12   7
BRANCH  15  17
ATOM     17  C   UNL     1      -2.475  -0.131  24.583  0.00  0.00    +0.138 C 
ATOM     18  C   UNL     1      -1.661  -0.052  24.693  0.00  0.00    +0.027 C 
ATOM     19  C   UNL     1      -1.350  -0.803  24.834  0.00  0.00    +0.019 C 
ATOM     20  C   UNL     1      -1.970  -1.345  24.812  0.00  0.00    +0.073 C 
ATOM     21  N   UNL     1      -2.666  -0.930  24.656  0.00  0.00    -0.266 NA
BRANCH  21  22
ATOM     22  C   UNL     1      -3.421  -1.256  24.587  0.00  0.00    +0.072 C 
BRANCH  22  23
ATOM     23  C   UNL     1      -3.527  -2.071  24.665  0.00  0.00    +0.016 C 
ATOM     24  C   UNL     1      -3.689  -2.532  24.000  0.00  0.00    +0.001 C 
ATOM     25  C   UNL     1      -3.469  -2.425  25.408  0.00  0.00    +0.001 C 
ENDBRANCH  22  23
ENDBRANCH  21  22
ENDBRANCH  15  17
TORSDOF 8
ENDMDL
MODEL 2
REMARK VINA RESULT:      -9.4      1.541      3.321
REMARK  Name = 
REMARK  8 active torsions:
REMARK  status: ('A' for Active; 'I' for Inactive)
REMARK    1  A    between atoms: O_2  and  C_3
REMARK    2  A    between atoms: C_3  and  C_4
REMARK    3  A    between atoms: C_4  and  O_5
REMARK    4  A    between atoms: O_5  and  C_6
REMARK    5  A    between atoms: C_7  and  C_12
REMARK    6  A    between atoms: C_15  and  C_17
REMARK    7  A    between atoms: N_21  and  C_22
REMARK    8  A    between atoms: C_22  and  C_23
REMARK                            x       y       z     vdW  Elec       q    Type
REMARK                         _______ _______ _______ _____ _____    ______ ____
ROOT
ATOM     12  C   UNL     1      -2.854   3.169  24.531  0.00  0.00    +0.208 A 
ATOM     13  N   UNL     1      -3.157   3.080  23.768  0.00  0.00    -0.056 NA
ATOM     14  O   UNL     1      -3.833   2.610  23.816  0.00  0.00    -0.336 OA
ATOM     15  C   UNL     1      -3.947   2.408  24.608  0.00  0.00    +0.251 A 
ATOM     16  N   UNL     1      -3.343   2.754  25.049  0.00  0.00    -0.189 NA
ENDROOT
BRANCH  12   7
ATOM      6  C   UNL     1      -1.435   3.250  24.679  0.00  0.00    +0.228 A 
ATOM      7  C   UNL     1      -2.181   3.599  24.738  0.00  0.00    +0.092 A 
ATOM      8  C   UNL     1      -2.252   4.376  25.004  0.00  0.00    +0.009 A 
ATOM      9  C   UNL     1      -1.580   4.805  25.210  0.00  0.00    +0.021 A 
ATOM     10  C   UNL     1      -0.834   4.457  25.152  0.00  0.00    +0.102 A 
ATOM     11  N   UNL     1      -0.762   3.679  24.886  0.00  0.00    -0.210 NA
BRANCH   6   5
ATOM      5  O   UNL     1      -1.363   2.473  24.413  0.00  0.00    -0.457 OA
BRANCH   5   4
ATOM      4  C   UNL     1      -0.640   2.079  24.480  0.00  0.00    +0.239 C 
BRANCH   4   3
ATOM      3  C   UNL     1      -0.519   1.370  24.077  0.00  0.00    +0.189 C 
BRANCH   3   2
ATOM      1  C   UNL     1      -0.212  -0.026  24.095  0.00  0.00    +0.174 C 
ATOM      2  O   UNL     1      -0.303   0.692  24.494  0.00  0.00    -0.347 OA
ENDBRANCH   3   2
ENDBRANCH   4   3
ENDBRANCH   5   4
ENDBRANCH   6   5
ENDBRANCH  12   7
BRANCH  15  17
ATOM     17  C   UNL     1      -4.560   1.942  24.905  0.00  0.00    +0.138 C 
ATOM     18  C   UNL     1      -5.267   2.218  25.228  0.00  0.00    +0.027 C 
ATOM     19  C   UNL     1      -5.716   1.564  25.454  0.00  0.00    +0.019 C 
ATOM     20  C   UNL     1      -5.288   0.884  25.272  0.00  0.00    +0.073 C 
ATOM     21  N   UNL     1      -4.573   1.117  24.932  0.00  0.00    -0.266 NA
BRANCH  21  22
ATOM     22  C   UNL     1      -3.975   0.614  24.666  0.00  0.00    +0.072 C 
BRANCH  22  23
ATOM     23  C   UNL     1      -4.046  -0.202  24.769  0.00  0.00    +0.016 C 
ATOM     24  C   UNL     1      -4.368  -0.667  24.168  0.00  0.00    +0.001 C 
ATOM     25  C   UNL     1      -3.796  -0.552  25.473  0.00  0.00    +0.001 C 
ENDBRANCH  22  23
ENDBRANCH  21  22
ENDBRANCH  15  17
TORSDOF 8
ENDMDL
MODEL 3
REMARK VINA RESULT:      -9.4      1.217      4.212
REMARK  Name = 
REMARK  8 active torsions:
REMARK  status: ('A' for Active; 'I' for Inactive)
REMARK    1  A    between atoms: O_2  and  C_3
REMARK    2  A    between atoms: C_3  and  C_4
REMARK    3  A    between atoms: C_4  and  O_5
REMARK    4  A    between atoms: O_5  and  C_6
REMARK    5  A    between atoms: C_7  and  C_12
REMARK    6  A    between atoms: C_15  and  C_17
REMARK    7  A    between atoms: N_21  and  C_22
REMARK    8  A    between atoms: C_22  and  C_23
REMARK                            x       y       z     vdW  Elec       q    Type
REMARK                         _______ _______ _______ _____ _____    ______ ____
ROOT
ATOM     12  C   UNL     1      -3.745   0.049  24.501  0.00  0.00    +0.208 A 
ATOM     13  N   UNL     1      -3.729   0.447  23.778  0.00  0.00    -0.056 NA
ATOM     14  O   UNL     1      -4.133   1.160  23.870  0.00  0.00    -0.336 OA
ATOM     15  C   UNL     1      -4.398   1.203  24.650  0.00  0.00    +0.251 A 
ATOM     16  N   UNL     1      -4.158   0.517  25.040  0.00  0.00    -0.189 NA
ENDROOT
BRANCH  12   7
ATOM      6  C   UNL     1      -2.607  -0.740  24.858  0.00  0.00    +0.228 A 
ATOM      7  C   UNL     1      -3.406  -0.687  24.657  0.00  0.00    +0.092 A 
ATOM      8  C   UNL     1      -3.866  -1.370  24.613  0.00  0.00    +0.009 A 
ATOM      9  C   UNL     1      -3.528  -2.105  24.769  0.00  0.00    +0.021 A 
ATOM     10  C   UNL     1      -2.729  -2.159  24.970  0.00  0.00    +0.102 A 
ATOM     11  N   UNL     1      -2.269  -1.475  25.014  0.00  0.00    -0.210 NA
BRANCH   6   5
ATOM      5  O   UNL     1      -2.148  -0.056  24.902  0.00  0.00    -0.457 OA
BRANCH   5   4
ATOM      4  C   UNL     1      -1.390  -0.089  25.229  0.00  0.00    +0.239 C 
BRANCH   4   3
ATOM      3  C   UNL     1      -0.850   0.517  25.079  0.00  0.00    +0.189 C 
BRANCH   3   2
ATOM      1  C   UNL     1      -0.245   1.741  25.498  0.00  0.00    +0.174 C 
ATOM      2  O   UNL     1      -0.645   1.043  25.681  0.00  0.00    -0.347 OA
ENDBRANCH   3   2
ENDBRANCH   4   3
ENDBRANCH   5   4
ENDBRANCH   6   5
ENDBRANCH  12   7
BRANCH  15  17
ATOM     17  C   UNL     1      -4.827   1.825  24.983  0.00  0.00    +0.138 C 
ATOM     18  C   UNL     1      -5.629   1.810  25.181  0.00  0.00    +0.027 C 
ATOM     19  C   UNL     1      -5.826   2.546  25.495  0.00  0.00    +0.019 C 
ATOM     20  C   UNL     1      -5.150   3.016  25.492  0.00  0.00    +0.073 C 
ATOM     21  N   UNL     1      -4.531   2.571  25.175  0.00  0.00    -0.266 NA
BRANCH  21  22
ATOM     22  C   UNL     1      -3.754   2.826  25.069  0.00  0.00    +0.072 C 
BRANCH  22  23
ATOM     23  C   UNL     1      -3.549   3.606  25.243  0.00  0.00    +0.016 C 
ATOM     24  C   UNL     1      -3.300   3.808  26.003  0.00  0.00    +0.001 C 
ATOM     25  C   UNL     1      -3.593   4.185  24.655  0.00  0.00    +0.001 C 
ENDBRANCH  22  23
ENDBRANCH  21  22
ENDBRANCH  15  17
TORSDOF 8
ENDMDL
MODEL 4
REMARK VINA RESULT:      -9.4      1.152      2.488
REMARK  Name = 
REMARK  8 active torsions:
REMARK  status: ('A' for Active; 'I' for Inactive)
REMARK    1  A    between atoms: O_2  and  C_3
REMARK    2  A    between atoms: C_3  and  C_4
REMARK    3  A    between atoms: C_4  and  O_5
REMARK    4  A    between atoms: O_5  and  C_6
REMARK    5  A    between atoms: C_7  and  C_12
REMARK    6  A    between atoms: C_15  and  C_17
REMARK    7  A    between atoms: N_21  and  C_22
REMARK    8  A    between atoms: C_22  and  C_23
REMARK                            x       y       z     vdW  Elec       q    Type
REMARK                         _______ _______ _______ _____ _____    ______ ____
ROOT
ATOM     12  C   UNL     1      -1.699   2.263  24.548  0.00  0.00    +0.208 A 
ATOM     13  N   UNL     1      -1.794   2.016  23.766  0.00  0.00    -0.056 NA
ATOM     14  O   UNL     1      -1.711   1.196  23.746  0.00  0.00    -0.336 OA
ATOM     15  C   UNL     1      -1.564   0.936  24.515  0.00  0.00    +0.251 A 
ATOM     16  N   UNL     1      -1.557   1.594  25.010  0.00  0.00    -0.189 NA
ENDROOT
BRANCH  12   7
ATOM      6  C   UNL     1      -2.470   3.373  25.015  0.00  0.00    +0.228 A 
ATOM      7  C   UNL     1      -1.740   3.041  24.820  0.00  0.00    +0.092 A 
ATOM      8  C   UNL     1      -1.051   3.488  24.897  0.00  0.00    +0.009 A 
ATOM      9  C   UNL     1      -1.091   4.265  25.168  0.00  0.00    +0.021 A 
ATOM     10  C   UNL     1      -1.821   4.597  25.363  0.00  0.00    +0.102 A 
ATOM     11  N   UNL     1      -2.511   4.150  25.286  0.00  0.00    -0.210 NA
BRANCH   6   5
ATOM      5  O   UNL     1      -3.159   2.926  24.937  0.00  0.00    -0.457 OA
BRANCH   5   4
ATOM      4  C   UNL     1      -3.874   3.216  25.232  0.00  0.00    +0.239 C 
BRANCH   4   3
ATOM      3  C   UNL     1      -4.584   2.853  25.021  0.00  0.00    +0.189 C 
BRANCH   3   2
ATOM      1  C   UNL     1      -5.788   2.180  25.396  0.00  0.00    +0.174 C 
ATOM      2  O   UNL     1      -5.094   2.575  25.607  0.00  0.00    -0.347 OA
ENDBRANCH   3   2
ENDBRANCH   4   3
ENDBRANCH   5   4
ENDBRANCH   6   5
ENDBRANCH  12   7
BRANCH  15  17
ATOM     17  C   UNL     1      -1.445   0.153  24.747  0.00  0.00    +0.138 C 
ATOM     18  C   UNL     1      -0.716  -0.201  24.907  0.00  0.00    +0.027 C 
ATOM     19  C   UNL     1      -0.856  -0.986  25.119  0.00  0.00    +0.019 C 
ATOM     20  C   UNL     1      -1.669  -1.118  25.089  0.00  0.00    +0.073 C 
ATOM     21  N   UNL     1      -2.034  -0.414  24.860  0.00  0.00    -0.266 NA
BRANCH  21  22
ATOM     22  C   UNL     1      -2.845  -0.298  24.760  0.00  0.00    +0.072 C 
BRANCH  22  23
ATOM     23  C   UNL     1      -3.374  -0.906  24.940  0.00  0.00    +0.016 C 
ATOM     24  C   UNL     1      -3.640  -1.411  24.345  0.00  0.00    +0.001 C 
ATOM     25  C   UNL     1      -3.635  -1.007  25.717  0.00  0.00    +0.001 C 
ENDBRANCH  22  23
ENDBRANCH  21  22
ENDBRANCH  15  17
TORSDOF 8
ENDMDL
MODEL 5
REMARK VINA RESULT:      -9.1      1.541      4.032
REMARK  Name = 
REMARK  8 active torsions:
REMARK  status: ('A' for Active; 'I' for Inactive)
REMARK    1  A    between atoms: O_2  and  C_3
REMARK    2  A    between atoms: C_3  and  C_4
REMARK    3  A    between atoms: C_4  and  O_5
REMARK    4  A    between atoms: O_5  and  C_6
REMARK    5  A    between atoms: C_7  and  C_12
REMARK    6  A    between atoms: C_15  and  C_17
REMARK    7  A    between atoms: N_21  and  C_22
REMARK    8  A    between atoms: C_22  and  C_23
REMARK                            x       y       z     vdW  Elec       q    Type
REMARK                         _______ _______ _______ _____ _____    ______ ____
ROOT
ATOM     12  C   UNL     1      -2.389   0.524  24.531  0.00  0.00    +0.208 A 
ATOM     13  N   UNL     1      -2.163   0.910  23.837  0.00  0.00    -0.056 NA
ATOM     14  O   UNL     1      -1.629   1.505  24.039  0.00  0.00    -0.336 OA
ATOM     15  C   UNL     1      -1.525   1.487  24.857  0.00  0.00    +0.251 A 
ATOM     16  N   UNL     1      -1.994   0.881  25.161  0.00  0.00    -0.189 NA
ENDROOT
BRANCH  12   7
ATOM      6  C   UNL     1      -3.724   0.037  24.686  0.00  0.00    +0.228 A 
ATOM      7  C   UNL     1      -2.917  -0.107  24.584  0.00  0.00    +0.092 A 
ATOM      8  C   UNL     1      -2.640  -0.883  24.535  0.00  0.00    +0.009 A 
ATOM      9  C   UNL     1      -3.168  -1.513  24.588  0.00  0.00    +0.021 A 
ATOM     10  C   UNL     1      -3.974  -1.370  24.690  0.00  0.00    +0.102 A 
ATOM     11  N   UNL     1      -4.252  -0.594  24.739  0.00  0.00    -0.210 NA
BRANCH   6   5
ATOM      5  O   UNL     1      -4.001   0.812  24.735  0.00  0.00    -0.457 OA
BRANCH   5   4
ATOM      4  C   UNL     1      -4.783   0.957  24.959  0.00  0.00    +0.239 C 
BRANCH   4   3
ATOM      3  C   UNL     1      -5.087   1.722  24.918  0.00  0.00    +0.189 C 
BRANCH   3   2
ATOM      1  C   UNL     1      -5.784   2.808  25.534  0.00  0.00    +0.174 C 
ATOM      2  O   UNL     1      -5.541   2.018  25.540  0.00  0.00    -0.347 OA
ENDBRANCH   3   2
ENDBRANCH   4   3
ENDBRANCH   5   4
ENDBRANCH   6   5
ENDBRANCH  12   7
BRANCH  15  17
ATOM     17  C   UNL     1      -1.036   1.987  25.295  0.00  0.00    +0.138 C 
ATOM     18  C   UNL     1      -0.328   1.774  25.663  0.00  0.00    +0.027 C 
ATOM     19  C   UNL     1      -0.025   2.444  26.037  0.00  0.00    +0.019 C 
ATOM     20  C   UNL     1      -0.543   3.070  25.900  0.00  0.00    +0.073 C 
ATOM     21  N   UNL     1      -1.168   2.788  25.442  0.00  0.00    -0.266 NA
BRANCH  21  22
ATOM     22  C   UNL     1      -1.814   3.229  25.176  0.00  0.00    +0.072 C 
BRANCH  22  23
ATOM     23  C   UNL     1      -1.931   3.997  25.456  0.00  0.00    +0.016 C 
ATOM     24  C   UNL     1      -1.513   4.626  25.124  0.00  0.00    +0.001 C 
ATOM     25  C   UNL     1      -2.468   4.134  26.068  0.00  0.00    +0.001 C 
ENDBRANCH  22  23
ENDBRANCH  21  22
ENDBRANCH  15  17
TORSDOF 8
ENDMDL
MODEL 6
REMARK VINA RESULT:      -9.1      1.520      3.942
REMARK  Name = 
REMARK  8 active torsions:
REMARK  status: ('A' for Active; 'I' for Inactive)
REMARK    1  A    between atoms: O_2  and  C_3
REMARK    2  A    between atoms: C_3  and  C_4
REMARK    3  A    between atoms: C_4  and  O_5
REMARK    4  A    between atoms: O_5  and  C_6
REMARK    5  A    between atoms: C_7  and  C_12
REMARK    6  A    between atoms: C_15  and  C_17
REMARK    7  A    between atoms: N_21  and  C_22
REMARK    8  A    between atoms: C_22  and  C_23
REMARK                            x       y       z     vdW  Elec       q    Type
REMARK                         _______ _______ _______ _____ _____    ______ ____
ROOT
ATOM     12  C   UNL     1      -3.938   2.903  24.804  0.00  0.00    +0.208 A 
ATOM     13  N   UNL     1      -3.721   2.902  24.008  0.00  0.00    -0.056 NA
ATOM     14  O   UNL     1      -2.973   3.244  23.949  0.00  0.00    -0.336 OA
ATOM     15  C   UNL     1      -2.728   3.456  24.707  0.00  0.00    +0.251 A 
ATOM     16  N   UNL     1      -3.325   3.245  25.236  0.00  0.00    -0.189 NA
ENDROOT
BRANCH  12   7
ATOM      6  C   UNL     1      -4.795   1.800  25.111  0.00  0.00    +0.228 A 
ATOM      7  C   UNL     1      -4.646   2.612  25.114  0.00  0.00    +0.092 A 
ATOM      8  C   UNL     1      -5.205   3.132  25.426  0.00  0.00    +0.009 A 
ATOM      9  C   UNL     1      -5.911   2.842  25.735  0.00  0.00    +0.021 A 
ATOM     10  C   UNL     1      -6.061   2.030  25.733  0.00  0.00    +0.102 A 
ATOM     11  N   UNL     1      -5.501   1.509  25.420  0.00  0.00    -0.210 NA
BRANCH   6   5
ATOM      5  O   UNL     1      -4.236   1.280  24.798  0.00  0.00    -0.457 OA
BRANCH   5   4
ATOM      4  C   UNL     1      -4.403   0.472  24.756  0.00  0.00    +0.239 C 
BRANCH   4   3
ATOM      3  C   UNL     1      -3.819  -0.057  24.513  0.00  0.00    +0.189 C 
BRANCH   3   2
ATOM      1  C   UNL     1      -3.680  -1.464  24.303  0.00  0.00    +0.174 C 
ATOM      2  O   UNL     1      -4.028  -0.742  24.103  0.00  0.00    -0.347 OA
ENDBRANCH   3   2
ENDBRANCH   4   3
ENDBRANCH   5   4
ENDBRANCH   6   5
ENDBRANCH  12   7
BRANCH  15  17
ATOM     17  C   UNL     1      -2.011   3.816  24.903  0.00  0.00    +0.138 C 
ATOM     18  C   UNL     1      -1.877   4.628  24.964  0.00  0.00    +0.027 C 
ATOM     19  C   UNL     1      -1.086   4.739  25.170  0.00  0.00    +0.019 C 
ATOM     20  C   UNL     1      -0.732   3.998  25.238  0.00  0.00    +0.073 C 
ATOM     21  N   UNL     1      -1.304   3.427  25.072  0.00  0.00    -0.266 NA
BRANCH  21  22
ATOM     22  C   UNL     1      -1.189   2.609  25.076  0.00  0.00    +0.072 C 
BRANCH  22  23
ATOM     23  C   UNL     1      -0.453   2.298  25.285  0.00  0.00    +0.016 C 
ATOM     24  C   UNL     1       0.091   2.095  24.699  0.00  0.00    +0.001 C 
ATOM     25  C   UNL     1      -0.263   2.189  26.081  0.00  0.00    +0.001 C 
ENDBRANCH  22  23
ENDBRANCH  21  22
ENDBRANCH  15  17
TORSDOF 8
ENDMDL
