MODEL 1
REMARK VINA RESULT:     -15.4      0.000      0.000
REMARK  Name = 
REMARK  4 active torsions:
REMARK  status: ('A' for Active; 'I' for Inactive)
REMARK    1  A    between atoms: C_5  and  C_8
REMARK    2  A    between atoms: C_18  and  C_20
REMARK    3  A    between atoms: C_20  and  O_21
REMARK    4  A    between atoms: O_21  and  C_22
REMARK                            x       y       z     vdW  Elec       q    Type
REMARK                         _______ _______ _______ _____ _____    ______ ____
ROOT
ATOM      8  C   UNL     1      -4.359   0.586  24.942  0.00  0.00    +0.056 A 
ATOM      9  C   UNL     1      -5.104   0.755  25.253  0.00  0.00    +0.006 A 
ATOM     10  C   UNL     1      -5.336   1.539  25.365  0.00  0.00    +0.013 A 
ATOM     11  C   UNL     1      -4.823   2.153  25.167  0.00  0.00    +0.041 A 
ATOM     12  C   UNL     1      -4.775   3.071  25.166  0.00  0.00    +0.058 C 
ATOM     13  C   UNL     1      -5.148   3.642  25.332  0.00  0.00    +0.011 C 
ATOM     14  C   UNL     1      -4.413   3.471  25.026  0.00  0.00    +0.043 C 
ATOM     15  C   UNL     1      -3.499   3.469  24.649  0.00  0.00    +0.095 C 
ATOM     16  N   UNL     1      -3.378   2.645  24.582  0.00  0.00    -0.276 N 
ATOM     17  C   UNL     1      -3.892   3.085  24.803  0.00  0.00    +0.099 C 
ATOM     18  C   UNL     1      -2.993   1.935  24.408  0.00  0.00    +0.270 C 
ATOM     19  O   UNL     1      -2.231   1.945  24.095  0.00  0.00    -0.271 OA
ATOM     28  C   UNL     1      -4.454   2.512  25.022  0.00  0.00    +0.110 C 
ATOM     29  N   UNL     1      -4.078   1.984  24.856  0.00  0.00    -0.299 N 
ATOM     30  C   UNL     1      -3.845   1.200  24.744  0.00  0.00    +0.261 A 
ATOM     31  O   UNL     1      -3.338   0.589  24.522  0.00  0.00    -0.267 OA
ENDROOT
BRANCH   8   5
ATOM      1 CL   UNL     1      -3.433  -2.551  24.497  0.00  0.00    -0.082 Cl
ATOM      2  C   UNL     1      -3.665  -1.766  24.609  0.00  0.00    +0.058 A 
ATOM      3  C   UNL     1      -3.932  -1.321  23.968  0.00  0.00    +0.011 A 
ATOM      4  C   UNL     1      -4.164  -0.536  24.079  0.00  0.00    +0.001 A 
ATOM      5  C   UNL     1      -4.128  -0.198  24.831  0.00  0.00    +0.005 A 
ATOM      6  C   UNL     1      -3.860  -0.644  25.471  0.00  0.00    +0.001 A 
ATOM      7  C   UNL     1      -3.628  -1.428  25.360  0.00  0.00    +0.011 A 
ENDBRANCH   8   5
BRANCH  18  20
ATOM     20  C   UNL     1      -3.372   1.216  24.549  0.00  0.00    +0.290 C 
BRANCH  20  21
ATOM     21  O   UNL     1      -2.928   0.529  24.651  0.00  0.00    -0.466 OA
BRANCH  21  22
ATOM     22  C   UNL     1      -2.104   0.567  24.662  0.00  0.00    +0.139 A 
ATOM     23  C   UNL     1      -1.705   0.640  25.381  0.00  0.00    +0.037 A 
ATOM     24  C   UNL     1      -0.880   0.679  25.393  0.00  0.00    +0.003 A 
ATOM     25  C   UNL     1      -0.456   0.645  24.686  0.00  0.00    +0.000 A 
ATOM     26  C   UNL     1      -0.855   0.573  23.967  0.00  0.00    +0.003 A 
ATOM     27  C   UNL     1      -1.679   0.534  23.956  0.00  0.00    +0.037 A 
ENDBRANCH  21  22
ENDBRANCH  20  21
ENDBRANCH  18  20
TORSDOF 4
ENDMDL
MODEL 2
REMARK VINA RESULT:     -15.0      1.022      2.480
REMARK  Name = 
REMARK  4 active torsions:
REMARK  status: ('A' for Active; 'I' for Inactive)
REMARK    1  A    between atoms: C_5  and  C_8
REMARK    2  A    between atoms: C_18  and  C_20
REMARK    3  A    between atoms: C_20  and  O_21
REMARK    4  A    between atoms: O_21  and  C_22
REMARK                            x       y       z     vdW  Elec       q    Type
REMARK                         _______ _______ _______ _____ _____    ______ ____
ROOT
ATOM      8  C   UNL     1      -2.860   2.049  24.780  0.00  0.00    +0.056 A 
ATOM      9  C   UNL     1      -2.804   2.848  24.978  0.00  0.00    +0.006 A 
ATOM     10  C   UNL     1      -3.480   3.267  25.196  0.00  0.00    +0.013 A 
ATOM     11  C   UNL     1      -4.212   2.887  25.216  0.00  0.00    +0.041 A 
ATOM     12  C   UNL     1      -5.096   3.052  25.403  0.00  0.00    +0.058 C 
ATOM     13  C   UNL     1      -5.530   3.566  25.606  0.00  0.00    +0.011 C 
ATOM     14  C   UNL     1      -5.581   2.777  25.410  0.00  0.00    +0.043 C 
ATOM     15  C   UNL     1      -5.844   1.845  25.212  0.00  0.00    +0.095 C 
ATOM     16  N   UNL     1      -5.098   1.529  25.009  0.00  0.00    -0.276 N 
ATOM     17  C   UNL     1      -5.367   2.156  25.215  0.00  0.00    +0.099 C 
ATOM     18  C   UNL     1      -4.536   0.972  24.774  0.00  0.00    +0.270 C 
ATOM     19  O   UNL     1      -4.767   0.197  24.611  0.00  0.00    -0.271 OA
ATOM     28  C   UNL     1      -4.659   2.595  25.213  0.00  0.00    +0.110 C 
ATOM     29  N   UNL     1      -4.268   2.088  25.019  0.00  0.00    -0.299 N 
ATOM     30  C   UNL     1      -3.592   1.669  24.801  0.00  0.00    +0.261 A 
ATOM     31  O   UNL     1      -3.159   1.010  24.560  0.00  0.00    -0.267 OA
ENDROOT
BRANCH   8   5
ATOM      1 CL   UNL     1      -0.152   0.374  23.910  0.00  0.00    -0.082 Cl
ATOM      2  C   UNL     1      -0.830   0.793  24.128  0.00  0.00    +0.058 A 
ATOM      3  C   UNL     1      -1.332   1.095  23.547  0.00  0.00    +0.011 A 
ATOM      4  C   UNL     1      -2.009   1.514  23.764  0.00  0.00    +0.001 A 
ATOM      5  C   UNL     1      -2.183   1.630  24.562  0.00  0.00    +0.005 A 
ATOM      6  C   UNL     1      -1.681   1.328  25.143  0.00  0.00    +0.001 A 
ATOM      7  C   UNL     1      -1.004   0.909  24.925  0.00  0.00    +0.011 A 
ENDBRANCH   8   5
BRANCH  18  20
ATOM     20  C   UNL     1      -3.744   1.191  24.702  0.00  0.00    +0.290 C 
BRANCH  20  21
ATOM     21  O   UNL     1      -3.159   0.611  24.660  0.00  0.00    -0.466 OA
BRANCH  21  22
ATOM     22  C   UNL     1      -3.361  -0.186  24.725  0.00  0.00    +0.139 A 
ATOM     23  C   UNL     1      -3.330  -0.560  25.460  0.00  0.00    +0.037 A 
ATOM     24  C   UNL     1      -3.533  -1.358  25.526  0.00  0.00    +0.003 A 
ATOM     25  C   UNL     1      -3.766  -1.780  24.857  0.00  0.00    +0.000 A 
ATOM     26  C   UNL     1      -3.797  -1.406  24.122  0.00  0.00    +0.003 A 
ATOM     27  C   UNL     1      -3.594  -0.609  24.057  0.00  0.00    +0.037 A 
ENDBRANCH  21  22
ENDBRANCH  20  21
ENDBRANCH  18  20
TORSDOF 4
ENDMDL
MODEL 3
REMARK VINA RESULT:     -14.8      1.665      3.471
REMARK  Name = 
REMARK  4 active torsions:
REMARK  status: ('A' for Active; 'I' for Inactive)
REMARK    1  A    between atoms: C_5  and  C_8
REMARK    2  A    between atoms: C_18  and  C_20
REMARK    3  A    between atoms: C_20  and  O_21
REMARK    4  A    between atoms: O_21  and  C_22
REMARK                            x       y       z     vdW  Elec       q    Type
REMARK                         _______ _______ _______ _____ _____    ______ ____
ROOT
ATOM      8  C   UNL     1      -3.713   0.342  24.350  0.00  0.00    +0.056 A 
ATOM      9  C   UNL     1      -4.365  -0.103  24.109  0.00  0.00    +0.006 A 
ATOM     10  C   UNL     1      -4.336  -0.926  24.138  0.00  0.00    +0.013 A 
ATOM     11  C   UNL     1      -3.655  -1.306  24.408  0.00  0.00    +0.041 A 
ATOM     12  C   UNL     1      -3.318  -2.148  24.557  0.00  0.00    +0.058 C 
ATOM     13  C   UNL     1      -3.491  -2.826  24.506  0.00  0.00    +0.011 C 
ATOM     14  C   UNL     1      -2.849  -2.384  24.743  0.00  0.00    +0.043 C 
ATOM     15  C   UNL     1      -1.985  -2.032  25.068  0.00  0.00    +0.095 C 
ATOM     16  N   UNL     1      -2.131  -1.212  24.993  0.00  0.00    -0.276 N 
ATOM     17  C   UNL     1      -2.478  -1.823  24.873  0.00  0.00    +0.099 C 
ATOM     18  C   UNL     1      -1.992  -0.399  25.028  0.00  0.00    +0.270 C 
ATOM     19  O   UNL     1      -1.267  -0.116  25.301  0.00  0.00    -0.271 OA
ATOM     28  C   UNL     1      -3.192  -1.500  24.591  0.00  0.00    +0.110 C 
ATOM     29  N   UNL     1      -3.003  -0.861  24.649  0.00  0.00    -0.299 N 
ATOM     30  C   UNL     1      -3.032  -0.037  24.620  0.00  0.00    +0.261 A 
ATOM     31  O   UNL     1      -2.746   0.731  24.713  0.00  0.00    -0.267 OA
ENDROOT
BRANCH   8   5
ATOM      1 CL   UNL     1      -3.832   3.638  24.233  0.00  0.00    -0.082 Cl
ATOM      2  C   UNL     1      -3.802   2.813  24.262  0.00  0.00    +0.058 A 
ATOM      3  C   UNL     1      -3.601   2.385  23.586  0.00  0.00    +0.011 A 
ATOM      4  C   UNL     1      -3.571   1.560  23.616  0.00  0.00    +0.001 A 
ATOM      5  C   UNL     1      -3.742   1.166  24.320  0.00  0.00    +0.005 A 
ATOM      6  C   UNL     1      -3.943   1.595  24.995  0.00  0.00    +0.001 A 
ATOM      7  C   UNL     1      -3.973   2.419  24.966  0.00  0.00    +0.011 A 
ENDBRANCH   8   5
BRANCH  18  20
ATOM     20  C   UNL     1      -2.579   0.130  24.790  0.00  0.00    +0.290 C 
BRANCH  20  21
ATOM     21  O   UNL     1      -2.389   0.920  24.649  0.00  0.00    -0.466 OA
BRANCH  21  22
ATOM     22  C   UNL     1      -1.607   1.174  24.714  0.00  0.00    +0.139 A 
ATOM     23  C   UNL     1      -1.115   1.166  24.051  0.00  0.00    +0.037 A 
ATOM     24  C   UNL     1      -0.333   1.421  24.115  0.00  0.00    +0.003 A 
ATOM     25  C   UNL     1      -0.043   1.684  24.841  0.00  0.00    +0.000 A 
ATOM     26  C   UNL     1      -0.535   1.693  25.503  0.00  0.00    +0.003 A 
ATOM     27  C   UNL     1      -1.317   1.438  25.439  0.00  0.00    +0.037 A 
ENDBRANCH  21  22
ENDBRANCH  20  21
ENDBRANCH  18  20
TORSDOF 4
ENDMDL
MODEL 4
REMARK VINA RESULT:     -14.7      1.698      3.873
REMARK  Name = 
REMARK  4 active torsions:
REMARK  status: ('A' for Active; 'I' for Inactive)
REMARK    1  A    between atoms: C_5  and  C_8
REMARK    2  A    between atoms: C_18  and  C_20
REMARK    3  A    between atoms: C_20  and  O_21
REMARK    4  A    between atoms: O_21  and  C_22
REMARK                            x       y       z     vdW  Elec       q    Type
REMARK                         _______ _______ _______ _____ _____    ______ ____
ROOT
ATOM      8  C   UNL     1      -1.648  -0.376  24.829  0.00  0.00    +0.056 A 
ATOM      9  C   UNL     1      -1.340  -1.107  25.054  0.00  0.00    +0.006 A 
ATOM     10  C   UNL     1      -1.801  -1.788  24.988  0.00  0.00    +0.013 A 
ATOM     11  C   UNL     1      -2.571  -1.737  24.696  0.00  0.00    +0.041 A 
ATOM     12  C   UNL     1      -3.299  -2.265  24.508  0.00  0.00    +0.058 C 
ATOM     13  C   UNL     1      -3.516  -2.932  24.530  0.00  0.00    +0.011 C 
ATOM     14  C   UNL     1      -3.817  -2.209  24.309  0.00  0.00    +0.043 C 
ATOM     15  C   UNL     1      -4.351  -1.439  23.994  0.00  0.00    +0.095 C 
ATOM     16  N   UNL     1      -3.795  -0.827  24.106  0.00  0.00    -0.276 N 
ATOM     17  C   UNL     1      -3.828  -1.532  24.201  0.00  0.00    +0.099 C 
ATOM     18  C   UNL     1      -3.479  -0.064  24.106  0.00  0.00    +0.270 C 
ATOM     19  O   UNL     1      -3.934   0.570  23.842  0.00  0.00    -0.271 OA
ATOM     28  C   UNL     1      -3.061  -1.649  24.502  0.00  0.00    +0.110 C 
ATOM     29  N   UNL     1      -2.879  -1.006  24.471  0.00  0.00    -0.299 N 
ATOM     30  C   UNL     1      -2.418  -0.325  24.537  0.00  0.00    +0.261 A 
ATOM     31  O   UNL     1      -2.249   0.480  24.477  0.00  0.00    -0.267 OA
ENDROOT
BRANCH   8   5
ATOM      1 CL   UNL     1       0.200   2.345  25.098  0.00  0.00    -0.082 Cl
ATOM      2  C   UNL     1      -0.262   1.664  25.031  0.00  0.00    +0.058 A 
ATOM      3  C   UNL     1      -0.284   1.250  24.318  0.00  0.00    +0.011 A 
ATOM      4  C   UNL     1      -0.746   0.569  24.250  0.00  0.00    +0.001 A 
ATOM      5  C   UNL     1      -1.186   0.304  24.896  0.00  0.00    +0.005 A 
ATOM      6  C   UNL     1      -1.164   0.719  25.609  0.00  0.00    +0.001 A 
ATOM      7  C   UNL     1      -0.702   1.399  25.676  0.00  0.00    +0.011 A 
ENDBRANCH   8   5
BRANCH  18  20
ATOM     20  C   UNL     1      -2.707   0.063  24.372  0.00  0.00    +0.290 C 
BRANCH  20  21
ATOM     21  O   UNL     1      -2.424   0.832  24.459  0.00  0.00    -0.466 OA
BRANCH  21  22
ATOM     22  C   UNL     1      -2.912   1.475  24.289  0.00  0.00    +0.139 A 
ATOM     23  C   UNL     1      -3.376   1.808  24.885  0.00  0.00    +0.037 A 
ATOM     24  C   UNL     1      -3.865   2.452  24.715  0.00  0.00    +0.003 A 
ATOM     25  C   UNL     1      -3.889   2.761  23.951  0.00  0.00    +0.000 A 
ATOM     26  C   UNL     1      -3.424   2.427  23.356  0.00  0.00    +0.003 A 
ATOM     27  C   UNL     1      -2.936   1.785  23.526  0.00  0.00    +0.037 A 
ENDBRANCH  21  22
ENDBRANCH  20  21
ENDBRANCH  18  20
TORSDOF 4
ENDMDL
MODEL 5
REMARK VINA RESULT:     -14.1      1.235      1.635
REMARK  Name = 
REMARK  4 active torsions:
REMARK  status: ('A' for Active; 'I' for Inactive)
REMARK    1  A    between atoms: C_5  and  C_8
REMARK    2  A    between atoms: C_18  and  C_20
REMARK    3  A    between atoms: C_20  and  O_21
REMARK    4  A    between atoms: O_21  and  C_22
REMARK                            x       y       z     vdW  Elec       q    Type
REMARK                         _______ _______ _______ _____ _____    ______ ____
ROOT
ATOM      8  C   UNL     1      -3.137   0.090  25.071  0.00  0.00    +0.056 A 
ATOM      9  C   UNL     1      -3.858  -0.268  25.253  0.00  0.00    +0.006 A 
ATOM     10  C   UNL     1      -4.558   0.167  25.209  0.00  0.00    +0.013 A 
ATOM     11  C   UNL     1      -4.537   0.959  24.982  0.00  0.00    +0.041 A 
ATOM     12  C   UNL     1      -5.094   1.676  24.841  0.00  0.00    +0.058 C 
ATOM     13  C   UNL     1      -5.771   1.860  24.865  0.00  0.00    +0.011 C 
ATOM     14  C   UNL     1      -5.057   2.210  24.685  0.00  0.00    +0.043 C 
ATOM     15  C   UNL     1      -4.308   2.802  24.432  0.00  0.00    +0.095 C 
ATOM     16  N   UNL     1      -3.672   2.266  24.513  0.00  0.00    -0.276 N 
ATOM     17  C   UNL     1      -4.380   2.261  24.594  0.00  0.00    +0.099 C 
ATOM     18  C   UNL     1      -2.896   1.985  24.505  0.00  0.00    +0.270 C 
ATOM     19  O   UNL     1      -2.278   2.488  24.293  0.00  0.00    -0.271 OA
ATOM     28  C   UNL     1      -4.467   1.467  24.830  0.00  0.00    +0.110 C 
ATOM     29  N   UNL     1      -3.816   1.317  24.799  0.00  0.00    -0.299 N 
ATOM     30  C   UNL     1      -3.116   0.882  24.843  0.00  0.00    +0.261 A 
ATOM     31  O   UNL     1      -2.304   0.755  24.788  0.00  0.00    -0.267 OA
ENDROOT
BRANCH   8   5
ATOM      1 CL   UNL     1      -0.340  -1.652  25.252  0.00  0.00    -0.082 Cl
ATOM      2  C   UNL     1      -1.040  -1.216  25.207  0.00  0.00    +0.058 A 
ATOM      3  C   UNL     1      -1.403  -1.096  24.476  0.00  0.00    +0.011 A 
ATOM      4  C   UNL     1      -2.103  -0.660  24.430  0.00  0.00    +0.001 A 
ATOM      5  C   UNL     1      -2.438  -0.346  25.115  0.00  0.00    +0.005 A 
ATOM      6  C   UNL     1      -2.075  -0.467  25.846  0.00  0.00    +0.001 A 
ATOM      7  C   UNL     1      -1.375  -0.902  25.892  0.00  0.00    +0.011 A 
ENDBRANCH   8   5
BRANCH  18  20
ATOM     20  C   UNL     1      -2.739   1.201  24.710  0.00  0.00    +0.290 C 
BRANCH  20  21
ATOM     21  O   UNL     1      -1.977   0.979  24.935  0.00  0.00    -0.466 OA
BRANCH  21  22
ATOM     22  C   UNL     1      -1.382   1.547  24.995  0.00  0.00    +0.139 A 
ATOM     23  C   UNL     1      -1.239   1.918  25.719  0.00  0.00    +0.037 A 
ATOM     24  C   UNL     1      -0.643   2.486  25.780  0.00  0.00    +0.003 A 
ATOM     25  C   UNL     1      -0.192   2.683  25.118  0.00  0.00    +0.000 A 
ATOM     26  C   UNL     1      -0.335   2.312  24.395  0.00  0.00    +0.003 A 
ATOM     27  C   UNL     1      -0.930   1.744  24.334  0.00  0.00    +0.037 A 
ENDBRANCH  21  22
ENDBRANCH  20  21
ENDBRANCH  18  20
TORSDOF 4
ENDMDL
