MODEL 1
REMARK VINA RESULT:     -10.5      0.000      0.000
REMARK  Name = 
REMARK  4 active torsions:
REMARK  status: ('A' for Active; 'I' for Inactive)
REMARK    1  A    between atoms: C_4  and  C_5
REMARK    2  A    between atoms: C_5  and  N_6
REMARK    3  A    between atoms: C_11  and  O_13
REMARK    4  A    between atoms: O_13  and  C_14
REMARK                            x       y       z     vdW  Elec       q    Type
REMARK                         _______ _______ _______ _____ _____    ______ ____
ROOT
ATOM      6  N   UNL     1      -3.360   0.165  25.039  0.00  0.00    -0.264 NA
ATOM      7  C   UNL     1      -2.541   0.115  25.120  0.00  0.00    +0.105 C 
ATOM      8  C   UNL     1      -1.967   0.660  24.890  0.00  0.00    +0.160 C 
ATOM      9  O   UNL     1      -2.070   1.391  24.521  0.00  0.00    -0.348 OA
ATOM     10  C   UNL     1      -2.773   1.757  24.292  0.00  0.00    +0.187 C 
ATOM     11  C   UNL     1      -3.546   1.482  24.376  0.00  0.00    +0.213 C 
ATOM     12  C   UNL     1      -3.808   0.774  24.708  0.00  0.00    +0.119 C 
ENDROOT
BRANCH   6   5
ATOM      5  C   UNL     1      -3.789  -0.478  25.328  0.00  0.00    +0.099 C 
BRANCH   5   4
ATOM      1 CL   UNL     1      -3.050  -3.212  24.950  0.00  0.00    -0.082 Cl
ATOM      2  C   UNL     1      -3.461  -2.543  24.700  0.00  0.00    +0.057 A 
ATOM      3  C   UNL     1      -3.420  -1.845  25.138  0.00  0.00    +0.008 A 
ATOM      4  C   UNL     1      -3.831  -1.176  24.889  0.00  0.00    -0.005 A 
ATOM     20  C   UNL     1      -4.285  -1.203  24.201  0.00  0.00    -0.003 A 
ATOM     21  C   UNL     1      -4.327  -1.901  23.762  0.00  0.00    +0.001 A 
ATOM     22  C   UNL     1      -3.916  -2.570  24.011  0.00  0.00    +0.011 A 
ENDBRANCH   5   4
ENDBRANCH   6   5
BRANCH  11  13
ATOM     13  O   UNL     1      -4.137   1.982  24.088  0.00  0.00    -0.459 OA
BRANCH  13  14
ATOM     14  C   UNL     1      -4.463   2.559  24.579  0.00  0.00    +0.245 A 
ATOM     15  C   UNL     1      -4.104   3.300  24.639  0.00  0.00    +0.156 A 
ATOM     16  N   UNL     1      -4.431   3.877  25.129  0.00  0.00    -0.236 NA
ATOM     17  C   UNL     1      -5.115   3.715  25.559  0.00  0.00    +0.120 A 
ATOM     18  C   UNL     1      -5.474   2.974  25.498  0.00  0.00    +0.123 A 
ATOM     19  N   UNL     1      -5.148   2.397  25.008  0.00  0.00    -0.207 NA
ENDBRANCH  13  14
ENDBRANCH  11  13
TORSDOF 4
ENDMDL
MODEL 2
REMARK VINA RESULT:     -10.2      1.506      3.176
REMARK  Name = 
REMARK  4 active torsions:
REMARK  status: ('A' for Active; 'I' for Inactive)
REMARK    1  A    between atoms: C_4  and  C_5
REMARK    2  A    between atoms: C_5  and  N_6
REMARK    3  A    between atoms: C_11  and  O_13
REMARK    4  A    between atoms: O_13  and  C_14
REMARK                            x       y       z     vdW  Elec       q    Type
REMARK                         _______ _______ _______ _____ _____    ______ ____
ROOT
ATOM      6  N   UNL     1      -3.388   0.442  24.856  0.00  0.00    -0.264 NA
ATOM      7  C   UNL     1      -3.820   0.952  24.373  0.00  0.00    +0.105 C 
ATOM      8  C   UNL     1      -3.552   1.601  23.940  0.00  0.00    +0.160 C 
ATOM      9  O   UNL     1      -2.785   1.900  23.884  0.00  0.00    -0.348 OA
ATOM     10  C   UNL     1      -2.097   1.625  24.246  0.00  0.00    +0.187 C 
ATOM     11  C   UNL     1      -2.007   0.982  24.755  0.00  0.00    +0.213 C 
ATOM     12  C   UNL     1      -2.581   0.456  25.026  0.00  0.00    +0.119 C 
ENDROOT
BRANCH   6   5
ATOM      5  C   UNL     1      -3.820  -0.160  25.217  0.00  0.00    +0.099 C 
BRANCH   5   4
ATOM      1 CL   UNL     1      -3.225  -2.955  25.256  0.00  0.00    -0.082 Cl
ATOM      2  C   UNL     1      -3.565  -2.302  24.884  0.00  0.00    +0.057 A 
ATOM      3  C   UNL     1      -3.523  -1.558  25.236  0.00  0.00    +0.008 A 
ATOM      4  C   UNL     1      -3.862  -0.906  24.864  0.00  0.00    -0.005 A 
ATOM     20  C   UNL     1      -4.245  -0.997  24.139  0.00  0.00    -0.003 A 
ATOM     21  C   UNL     1      -4.287  -1.742  23.786  0.00  0.00    +0.001 A 
ATOM     22  C   UNL     1      -3.948  -2.394  24.158  0.00  0.00    +0.011 A 
ENDBRANCH   5   4
ENDBRANCH   6   5
BRANCH  11  13
ATOM     13  O   UNL     1      -1.240   0.847  25.028  0.00  0.00    -0.459 OA
BRANCH  13  14
ATOM     14  C   UNL     1      -0.664   0.556  24.514  0.00  0.00    +0.245 A 
ATOM     15  C   UNL     1      -0.173   1.080  24.107  0.00  0.00    +0.156 A 
ATOM     16  N   UNL     1       0.403   0.789  23.593  0.00  0.00    -0.236 NA
ATOM     17  C   UNL     1       0.489  -0.024  23.486  0.00  0.00    +0.120 A 
ATOM     18  C   UNL     1      -0.002  -0.547  23.894  0.00  0.00    +0.123 A 
ATOM     19  N   UNL     1      -0.578  -0.257  24.407  0.00  0.00    -0.207 NA
ENDBRANCH  13  14
ENDBRANCH  11  13
TORSDOF 4
ENDMDL
MODEL 3
REMARK VINA RESULT:     -10.1      1.357      1.682
REMARK  Name = 
REMARK  4 active torsions:
REMARK  status: ('A' for Active; 'I' for Inactive)
REMARK    1  A    between atoms: C_4  and  C_5
REMARK    2  A    between atoms: C_5  and  N_6
REMARK    3  A    between atoms: C_11  and  O_13
REMARK    4  A    between atoms: O_13  and  C_14
REMARK                            x       y       z     vdW  Elec       q    Type
REMARK                         _______ _______ _______ _____ _____    ______ ____
ROOT
ATOM      6  N   UNL     1      -2.451  -0.019  25.273  0.00  0.00    -0.264 NA
ATOM      7  C   UNL     1      -1.762  -0.424  25.475  0.00  0.00    +0.105 C 
ATOM      8  C   UNL     1      -0.978  -0.199  25.354  0.00  0.00    +0.160 C 
ATOM      9  O   UNL     1      -0.689   0.489  25.001  0.00  0.00    -0.348 OA
ATOM     10  C   UNL     1      -1.113   1.120  24.681  0.00  0.00    +0.187 C 
ATOM     11  C   UNL     1      -1.931   1.220  24.636  0.00  0.00    +0.213 C 
ATOM     12  C   UNL     1      -2.526   0.714  24.899  0.00  0.00    +0.119 C 
ENDROOT
BRANCH   6   5
ATOM      5  C   UNL     1      -3.159  -0.394  25.469  0.00  0.00    +0.099 C 
BRANCH   5   4
ATOM      1 CL   UNL     1      -3.456  -3.152  24.785  0.00  0.00    -0.082 Cl
ATOM      2  C   UNL     1      -3.615  -2.357  24.633  0.00  0.00    +0.057 A 
ATOM      3  C   UNL     1      -3.308  -1.773  25.127  0.00  0.00    +0.008 A 
ATOM      4  C   UNL     1      -3.467  -0.979  24.974  0.00  0.00    -0.005 A 
ATOM     20  C   UNL     1      -3.933  -0.767  24.328  0.00  0.00    -0.003 A 
ATOM     21  C   UNL     1      -4.241  -1.352  23.833  0.00  0.00    +0.001 A 
ATOM     22  C   UNL     1      -4.082  -2.146  23.985  0.00  0.00    +0.011 A 
ENDBRANCH   5   4
ENDBRANCH   6   5
BRANCH  11  13
ATOM     13  O   UNL     1      -2.187   1.919  24.280  0.00  0.00    -0.459 OA
BRANCH  13  14
ATOM     14  C   UNL     1      -2.182   2.625  24.707  0.00  0.00    +0.245 A 
ATOM     15  C   UNL     1      -1.508   3.100  24.709  0.00  0.00    +0.156 A 
ATOM     16  N   UNL     1      -1.502   3.806  25.136  0.00  0.00    -0.236 NA
ATOM     17  C   UNL     1      -2.171   4.037  25.560  0.00  0.00    +0.120 A 
ATOM     18  C   UNL     1      -2.845   3.561  25.557  0.00  0.00    +0.123 A 
ATOM     19  N   UNL     1      -2.850   2.856  25.131  0.00  0.00    -0.207 NA
ENDBRANCH  13  14
ENDBRANCH  11  13
TORSDOF 4
ENDMDL
MODEL 4
REMARK VINA RESULT:     -10.1      1.623      2.240
REMARK  Name = 
REMARK  4 active torsions:
REMARK  status: ('A' for Active; 'I' for Inactive)
REMARK    1  A    between atoms: C_4  and  C_5
REMARK    2  A    between atoms: C_5  and  N_6
REMARK    3  A    between atoms: C_11  and  O_13
REMARK    4  A    between atoms: O_13  and  C_14
REMARK                            x       y       z     vdW  Elec       q    Type
REMARK                         _______ _______ _______ _____ _____    ______ ____
ROOT
ATOM      6  N   UNL     1      -3.274   1.072  24.268  0.00  0.00    -0.264 NA
ATOM      7  C   UNL     1      -3.272   1.022  23.445  0.00  0.00    +0.105 C 
ATOM      8  C   UNL     1      -2.756   1.378  22.909  0.00  0.00    +0.160 C 
ATOM      9  O   UNL     1      -2.114   1.872  23.064  0.00  0.00    -0.348 OA
ATOM     10  C   UNL     1      -1.830   2.133  23.793  0.00  0.00    +0.187 C 
ATOM     11  C   UNL     1      -2.117   1.963  24.548  0.00  0.00    +0.213 C 
ATOM     12  C   UNL     1      -2.760   1.491  24.759  0.00  0.00    +0.119 C 
ENDROOT
BRANCH   6   5
ATOM      5  C   UNL     1      -3.868   0.647  24.652  0.00  0.00    +0.099 C 
BRANCH   5   4
ATOM      1 CL   UNL     1      -4.303  -2.042  23.789  0.00  0.00    -0.082 Cl
ATOM      2  C   UNL     1      -4.000  -1.509  24.341  0.00  0.00    +0.057 A 
ATOM      3  C   UNL     1      -4.085  -0.698  24.221  0.00  0.00    +0.008 A 
ATOM      4  C   UNL     1      -3.782  -0.165  24.772  0.00  0.00    -0.005 A 
ATOM     20  C   UNL     1      -3.393  -0.443  25.444  0.00  0.00    -0.003 A 
ATOM     21  C   UNL     1      -3.307  -1.255  25.564  0.00  0.00    +0.001 A 
ATOM     22  C   UNL     1      -3.610  -1.788  25.013  0.00  0.00    +0.011 A 
ENDBRANCH   5   4
ENDBRANCH   6   5
BRANCH  11  13
ATOM     13  O   UNL     1      -1.708   2.311  25.174  0.00  0.00    -0.459 OA
BRANCH  13  14
ATOM     14  C   UNL     1      -1.692   3.132  25.250  0.00  0.00    +0.245 A 
ATOM     15  C   UNL     1      -1.026   3.556  25.009  0.00  0.00    +0.156 A 
ATOM     16  N   UNL     1      -1.009   4.377  25.085  0.00  0.00    -0.236 NA
ATOM     17  C   UNL     1      -1.658   4.775  25.402  0.00  0.00    +0.120 A 
ATOM     18  C   UNL     1      -2.324   4.351  25.643  0.00  0.00    +0.123 A 
ATOM     19  N   UNL     1      -2.341   3.530  25.567  0.00  0.00    -0.207 NA
ENDBRANCH  13  14
ENDBRANCH  11  13
TORSDOF 4
ENDMDL
MODEL 5
REMARK VINA RESULT:      -9.8      1.865      4.363
REMARK  Name = 
REMARK  4 active torsions:
REMARK  status: ('A' for Active; 'I' for Inactive)
REMARK    1  A    between atoms: C_4  and  C_5
REMARK    2  A    between atoms: C_5  and  N_6
REMARK    3  A    between atoms: C_11  and  O_13
REMARK    4  A    between atoms: O_13  and  C_14
REMARK                            x       y       z     vdW  Elec       q    Type
REMARK                         _______ _______ _______ _____ _____    ______ ____
ROOT
ATOM      6  N   UNL     1      -3.199   1.299  24.262  0.00  0.00    -0.264 NA
ATOM      7  C   UNL     1      -2.397   1.474  24.185  0.00  0.00    +0.105 C 
ATOM      8  C   UNL     1      -1.748   1.036  24.444  0.00  0.00    +0.160 C 
ATOM      9  O   UNL     1      -1.741   0.315  24.845  0.00  0.00    -0.348 OA
ATOM     10  C   UNL     1      -2.381  -0.146  25.086  0.00  0.00    +0.187 C 
ATOM     11  C   UNL     1      -3.186   0.000  24.985  0.00  0.00    +0.213 C 
ATOM     12  C   UNL     1      -3.550   0.643  24.618  0.00  0.00    +0.119 C 
ENDROOT
BRANCH   6   5
ATOM      5  C   UNL     1      -3.719   1.853  23.941  0.00  0.00    +0.099 C 
BRANCH   5   4
ATOM      1 CL   UNL     1      -5.765   2.971  25.593  0.00  0.00    -0.082 Cl
ATOM      2  C   UNL     1      -5.025   3.031  25.234  0.00  0.00    +0.057 A 
ATOM      3  C   UNL     1      -4.742   2.413  24.767  0.00  0.00    +0.008 A 
ATOM      4  C   UNL     1      -4.002   2.472  24.409  0.00  0.00    -0.005 A 
ATOM     20  C   UNL     1      -3.544   3.149  24.517  0.00  0.00    -0.003 A 
ATOM     21  C   UNL     1      -3.827   3.768  24.984  0.00  0.00    +0.001 A 
ATOM     22  C   UNL     1      -4.566   3.709  25.343  0.00  0.00    +0.011 A 
ENDBRANCH   5   4
ENDBRANCH   6   5
BRANCH  11  13
ATOM     13  O   UNL     1      -3.695  -0.573  25.291  0.00  0.00    -0.459 OA
BRANCH  13  14
ATOM     14  C   UNL     1      -3.744  -1.315  24.934  0.00  0.00    +0.245 A 
ATOM     15  C   UNL     1      -3.385  -1.967  25.289  0.00  0.00    +0.156 A 
ATOM     16  N   UNL     1      -3.433  -2.709  24.932  0.00  0.00    -0.236 NA
ATOM     17  C   UNL     1      -3.840  -2.799  24.220  0.00  0.00    +0.120 A 
ATOM     18  C   UNL     1      -4.199  -2.146  23.865  0.00  0.00    +0.123 A 
ATOM     19  N   UNL     1      -4.150  -1.405  24.222  0.00  0.00    -0.207 NA
ENDBRANCH  13  14
ENDBRANCH  11  13
TORSDOF 4
ENDMDL
