MODEL 1
REMARK VINA RESULT:     -11.9      0.000      0.000
REMARK  Name = 
REMARK  8 active torsions:
REMARK  status: ('A' for Active; 'I' for Inactive)
REMARK    1  A    between atoms: O_2  and  C_3
REMARK    2  A    between atoms: C_6  and  C_9
REMARK    3  A    between atoms: C_11  and  C_12
REMARK    4  A    between atoms: C_12  and  C_13
REMARK    5  A    between atoms: C_18  and  C_19
REMARK    6  A    between atoms: C_19  and  N_20
REMARK    7  A    between atoms: N_20  and  C_21
REMARK    8  A    between atoms: C_21  and  C_22
REMARK                            x       y       z     vdW  Elec       q    Type
REMARK                         _______ _______ _______ _____ _____    ______ ____
ROOT
ATOM     13  C   UNL     1      -1.992  -1.089  25.282  0.00  0.00    +0.121 C 
ATOM     14  C   UNL     1      -1.928  -1.856  24.986  0.00  0.00    +0.033 C 
ATOM     15  C   UNL     1      -2.584  -2.225  24.648  0.00  0.00    +0.038 C 
ATOM     16  C   UNL     1      -3.305  -1.825  24.606  0.00  0.00    +0.180 C 
ATOM     17  O   UNL     1      -3.962  -2.193  24.269  0.00  0.00    -0.220 OA
ATOM     18  C   UNL     1      -3.370  -1.058  24.903  0.00  0.00    +0.163 C 
ATOM     29  O   UNL     1      -2.713  -0.690  25.240  0.00  0.00    -0.354 OA
ENDROOT
BRANCH  13  12
ATOM     12  C   UNL     1      -1.336  -0.720  25.620  0.00  0.00    +0.079 C 
BRANCH  12  11
ATOM      9  C   UNL     1      -0.743   1.234  24.998  0.00  0.00    +0.177 A 
ATOM     10  C   UNL     1      -1.173   0.736  25.496  0.00  0.00    +0.058 A 
ATOM     11  C   UNL     1      -1.020  -0.042  25.271  0.00  0.00    +0.103 A 
ATOM     30  N   UNL     1      -0.496  -0.025  24.634  0.00  0.00    -0.081 NA
ATOM     31  O   UNL     1      -0.325   0.764  24.466  0.00  0.00    -0.354 OA
BRANCH   9   6
ATOM      3  C   UNL     1      -0.715   3.708  25.089  0.00  0.00    +0.139 A 
ATOM      4  C   UNL     1      -0.916   3.273  25.761  0.00  0.00    +0.037 A 
ATOM      5  C   UNL     1      -0.925   2.449  25.731  0.00  0.00    +0.006 A 
ATOM      6  C   UNL     1      -0.734   2.059  25.029  0.00  0.00    +0.037 A 
ATOM      7  C   UNL     1      -0.533   2.494  24.358  0.00  0.00    +0.006 A 
ATOM      8  C   UNL     1      -0.524   3.319  24.388  0.00  0.00    +0.037 A 
BRANCH   3   2
ATOM      1  C   UNL     1      -1.414   4.952  25.161  0.00  0.00    +0.252 C 
ATOM      2  O   UNL     1      -0.705   4.532  25.119  0.00  0.00    -0.471 OA
ENDBRANCH   3   2
ENDBRANCH   9   6
ENDBRANCH  12  11
ENDBRANCH  13  12
BRANCH  18  19
ATOM     19  C   UNL     1      -4.090  -0.659  24.861  0.00  0.00    +0.121 C 
BRANCH  19  20
ATOM     20  N   UNL     1      -4.123   0.151  25.013  0.00  0.00    -0.211 NA
BRANCH  20  21
ATOM     21  C   UNL     1      -4.761   0.597  24.739  0.00  0.00    +0.115 C 
BRANCH  21  22
ATOM     22  C   UNL     1      -4.747   1.420  24.804  0.00  0.00    -0.004 A 
ATOM     23  C   UNL     1      -5.080   1.785  25.465  0.00  0.00    -0.003 A 
ATOM     24  C   UNL     1      -5.067   2.608  25.531  0.00  0.00    +0.001 A 
ATOM     25  C   UNL     1      -4.721   3.064  24.937  0.00  0.00    +0.011 A 
ATOM     26  C   UNL     1      -4.389   2.698  24.276  0.00  0.00    +0.057 A 
ATOM     27 CL   UNL     1      -4.043   3.154  23.682  0.00  0.00    -0.082 Cl
ATOM     28  C   UNL     1      -4.402   1.875  24.210  0.00  0.00    +0.009 A 
ENDBRANCH  21  22
ENDBRANCH  20  21
ENDBRANCH  19  20
ENDBRANCH  18  19
TORSDOF 8
ENDMDL
MODEL 2
REMARK VINA RESULT:     -11.7      1.220      4.261
REMARK  Name = 
REMARK  8 active torsions:
REMARK  status: ('A' for Active; 'I' for Inactive)
REMARK    1  A    between atoms: O_2  and  C_3
REMARK    2  A    between atoms: C_6  and  C_9
REMARK    3  A    between atoms: C_11  and  C_12
REMARK    4  A    between atoms: C_12  and  C_13
REMARK    5  A    between atoms: C_18  and  C_19
REMARK    6  A    between atoms: C_19  and  N_20
REMARK    7  A    between atoms: N_20  and  C_21
REMARK    8  A    between atoms: C_21  and  C_22
REMARK                            x       y       z     vdW  Elec       q    Type
REMARK                         _______ _______ _______ _____ _____    ______ ____
ROOT
ATOM     13  C   UNL     1      -0.844   2.702  25.644  0.00  0.00    +0.121 C 
ATOM     14  C   UNL     1      -0.295   3.252  25.370  0.00  0.00    +0.033 C 
ATOM     15  C   UNL     1      -0.538   4.017  25.174  0.00  0.00    +0.038 C 
ATOM     16  C   UNL     1      -1.332   4.229  25.254  0.00  0.00    +0.180 C 
ATOM     17  O   UNL     1      -1.576   4.992  25.060  0.00  0.00    -0.220 OA
ATOM     18  C   UNL     1      -1.881   3.677  25.529  0.00  0.00    +0.163 C 
ATOM     29  O   UNL     1      -1.637   2.914  25.723  0.00  0.00    -0.354 OA
ENDROOT
BRANCH  13  12
ATOM     12  C   UNL     1      -0.600   1.938  25.839  0.00  0.00    +0.079 C 
BRANCH  12  11
ATOM      9  C   UNL     1      -1.517   0.188  25.028  0.00  0.00    +0.177 A 
ATOM     10  C   UNL     1      -1.409   0.726  25.645  0.00  0.00    +0.058 A 
ATOM     11  C   UNL     1      -0.868   1.295  25.396  0.00  0.00    +0.103 A 
ATOM     30  N   UNL     1      -0.641   1.111  24.624  0.00  0.00    -0.081 NA
ATOM     31  O   UNL     1      -1.042   0.427  24.397  0.00  0.00    -0.354 OA
BRANCH   9   6
ATOM      3  C   UNL     1      -3.003  -1.790  25.064  0.00  0.00    +0.139 A 
ATOM      4  C   UNL     1      -3.288  -1.056  25.310  0.00  0.00    +0.037 A 
ATOM      5  C   UNL     1      -2.793  -0.397  25.298  0.00  0.00    +0.006 A 
ATOM      6  C   UNL     1      -2.012  -0.471  25.040  0.00  0.00    +0.037 A 
ATOM      7  C   UNL     1      -1.728  -1.205  24.794  0.00  0.00    +0.006 A 
ATOM      8  C   UNL     1      -2.223  -1.865  24.806  0.00  0.00    +0.037 A 
BRANCH   3   2
ATOM      1  C   UNL     1      -3.711  -2.820  24.369  0.00  0.00    +0.252 C 
ATOM      2  O   UNL     1      -3.498  -2.450  25.075  0.00  0.00    -0.471 OA
ENDBRANCH   3   2
ENDBRANCH   9   6
ENDBRANCH  12  11
ENDBRANCH  13  12
BRANCH  18  19
ATOM     19  C   UNL     1      -2.674   3.890  25.608  0.00  0.00    +0.121 C 
BRANCH  19  20
ATOM     20  N   UNL     1      -3.267   3.379  25.346  0.00  0.00    -0.211 NA
BRANCH  20  21
ATOM     21  C   UNL     1      -4.059   3.564  25.480  0.00  0.00    +0.115 C 
BRANCH  21  22
ATOM     22  C   UNL     1      -4.645   3.002  25.329  0.00  0.00    -0.004 A 
ATOM     23  C   UNL     1      -4.695   2.649  24.585  0.00  0.00    -0.003 A 
ATOM     24  C   UNL     1      -5.280   2.087  24.434  0.00  0.00    +0.001 A 
ATOM     25  C   UNL     1      -5.814   1.879  25.027  0.00  0.00    +0.011 A 
ATOM     26  C   UNL     1      -5.764   2.231  25.771  0.00  0.00    +0.057 A 
ATOM     27 CL   UNL     1      -6.298   2.023  26.363  0.00  0.00    -0.082 Cl
ATOM     28  C   UNL     1      -5.179   2.794  25.922  0.00  0.00    +0.009 A 
ENDBRANCH  21  22
ENDBRANCH  20  21
ENDBRANCH  19  20
ENDBRANCH  18  19
TORSDOF 8
ENDMDL
MODEL 3
REMARK VINA RESULT:     -11.5      1.654      5.294
REMARK  Name = 
REMARK  8 active torsions:
REMARK  status: ('A' for Active; 'I' for Inactive)
REMARK    1  A    between atoms: O_2  and  C_3
REMARK    2  A    between atoms: C_6  and  C_9
REMARK    3  A    between atoms: C_11  and  C_12
REMARK    4  A    between atoms: C_12  and  C_13
REMARK    5  A    between atoms: C_18  and  C_19
REMARK    6  A    between atoms: C_19  and  N_20
REMARK    7  A    between atoms: N_20  and  C_21
REMARK    8  A    between atoms: C_21  and  C_22
REMARK                            x       y       z     vdW  Elec       q    Type
REMARK                         _______ _______ _______ _____ _____    ______ ____
ROOT
ATOM     13  C   UNL     1      -3.516   3.008  24.686  0.00  0.00    +0.121 C 
ATOM     14  C   UNL     1      -3.692   3.688  25.116  0.00  0.00    +0.033 C 
ATOM     15  C   UNL     1      -3.086   4.120  25.473  0.00  0.00    +0.038 C 
ATOM     16  C   UNL     1      -2.303   3.869  25.399  0.00  0.00    +0.180 C 
ATOM     17  O   UNL     1      -1.696   4.300  25.756  0.00  0.00    -0.220 OA
ATOM     18  C   UNL     1      -2.127   3.188  24.969  0.00  0.00    +0.163 C 
ATOM     29  O   UNL     1      -2.733   2.757  24.612  0.00  0.00    -0.354 OA
ENDROOT
BRANCH  13  12
ATOM     12  C   UNL     1      -4.122   2.576  24.329  0.00  0.00    +0.079 C 
BRANCH  12  11
ATOM      9  C   UNL     1      -4.343   0.496  24.756  0.00  0.00    +0.177 A 
ATOM     10  C   UNL     1      -4.008   1.111  24.318  0.00  0.00    +0.058 A 
ATOM     11  C   UNL     1      -4.308   1.822  24.607  0.00  0.00    +0.103 A 
ATOM     30  N   UNL     1      -4.829   1.648  25.223  0.00  0.00    -0.081 NA
ATOM     31  O   UNL     1      -4.850   0.829  25.315  0.00  0.00    -0.354 OA
BRANCH   9   6
ATOM      3  C   UNL     1      -3.902  -1.919  24.447  0.00  0.00    +0.139 A 
ATOM      4  C   UNL     1      -4.117  -1.453  23.800  0.00  0.00    +0.037 A 
ATOM      5  C   UNL     1      -4.264  -0.648  23.904  0.00  0.00    +0.006 A 
ATOM      6  C   UNL     1      -4.196  -0.309  24.653  0.00  0.00    +0.037 A 
ATOM      7  C   UNL     1      -3.981  -0.776  25.299  0.00  0.00    +0.006 A 
ATOM      8  C   UNL     1      -3.835  -1.581  25.195  0.00  0.00    +0.037 A 
BRANCH   3   2
ATOM      1  C   UNL     1      -3.032  -3.046  24.577  0.00  0.00    +0.252 C 
ATOM      2  O   UNL     1      -3.755  -2.724  24.344  0.00  0.00    -0.471 OA
ENDBRANCH   3   2
ENDBRANCH   9   6
ENDBRANCH  12  11
ENDBRANCH  13  12
BRANCH  18  19
ATOM     19  C   UNL     1      -1.344   2.937  24.895  0.00  0.00    +0.121 C 
BRANCH  19  20
ATOM     20  N   UNL     1      -1.174   2.211  24.543  0.00  0.00    -0.211 NA
BRANCH  20  21
ATOM     21  C   UNL     1      -0.467   1.824  24.716  0.00  0.00    +0.115 C 
BRANCH  21  22
ATOM     22  C   UNL     1      -0.357   1.041  24.478  0.00  0.00    -0.004 A 
ATOM     23  C   UNL     1      -0.124   0.874  23.705  0.00  0.00    -0.003 A 
ATOM     24  C   UNL     1      -0.013   0.091  23.468  0.00  0.00    +0.001 A 
ATOM     25  C   UNL     1      -0.137  -0.524  24.004  0.00  0.00    +0.011 A 
ATOM     26  C   UNL     1      -0.370  -0.356  24.778  0.00  0.00    +0.057 A 
ATOM     27 CL   UNL     1      -0.493  -0.971  25.314  0.00  0.00    -0.082 Cl
ATOM     28  C   UNL     1      -0.480   0.427  25.015  0.00  0.00    +0.009 A 
ENDBRANCH  21  22
ENDBRANCH  20  21
ENDBRANCH  19  20
ENDBRANCH  18  19
TORSDOF 8
ENDMDL
MODEL 4
REMARK VINA RESULT:     -11.5      1.382      3.697
REMARK  Name = 
REMARK  8 active torsions:
REMARK  status: ('A' for Active; 'I' for Inactive)
REMARK    1  A    between atoms: O_2  and  C_3
REMARK    2  A    between atoms: C_6  and  C_9
REMARK    3  A    between atoms: C_11  and  C_12
REMARK    4  A    between atoms: C_12  and  C_13
REMARK    5  A    between atoms: C_18  and  C_19
REMARK    6  A    between atoms: C_19  and  N_20
REMARK    7  A    between atoms: N_20  and  C_21
REMARK    8  A    between atoms: C_21  and  C_22
REMARK                            x       y       z     vdW  Elec       q    Type
REMARK                         _______ _______ _______ _____ _____    ______ ____
ROOT
ATOM     13  C   UNL     1      -2.571  -1.335  25.168  0.00  0.00    +0.121 C 
ATOM     14  C   UNL     1      -2.266  -1.984  24.761  0.00  0.00    +0.033 C 
ATOM     15  C   UNL     1      -1.463  -2.011  24.571  0.00  0.00    +0.038 C 
ATOM     16  C   UNL     1      -0.966  -1.389  24.789  0.00  0.00    +0.180 C 
ATOM     17  O   UNL     1      -0.164  -1.416  24.599  0.00  0.00    -0.220 OA
ATOM     18  C   UNL     1      -1.273  -0.740  25.196  0.00  0.00    +0.163 C 
ATOM     29  O   UNL     1      -2.075  -0.713  25.386  0.00  0.00    -0.354 OA
ENDROOT
BRANCH  13  12
ATOM     12  C   UNL     1      -3.374  -1.308  25.358  0.00  0.00    +0.079 C 
BRANCH  12  11
ATOM      9  C   UNL     1      -4.533   0.417  24.868  0.00  0.00    +0.177 A 
ATOM     10  C   UNL     1      -4.041   0.002  25.385  0.00  0.00    +0.058 A 
ATOM     11  C   UNL     1      -3.853  -0.720  25.034  0.00  0.00    +0.103 A 
ATOM     30  N   UNL     1      -4.229  -0.752  24.300  0.00  0.00    -0.081 NA
ATOM     31  O   UNL     1      -4.649  -0.050  24.197  0.00  0.00    -0.354 OA
BRANCH   9   6
ATOM      3  C   UNL     1      -5.491   2.665  25.260  0.00  0.00    +0.139 A 
ATOM      4  C   UNL     1      -4.856   2.572  24.741  0.00  0.00    +0.037 A 
ATOM      5  C   UNL     1      -4.537   1.823  24.610  0.00  0.00    +0.006 A 
ATOM      6  C   UNL     1      -4.852   1.166  24.998  0.00  0.00    +0.037 A 
ATOM      7  C   UNL     1      -5.487   1.260  25.517  0.00  0.00    +0.006 A 
ATOM      8  C   UNL     1      -5.806   2.009  25.648  0.00  0.00    +0.037 A 
BRANCH   3   2
ATOM      1  C   UNL     1      -5.317   4.074  25.423  0.00  0.00    +0.252 C 
ATOM      2  O   UNL     1      -5.811   3.414  25.391  0.00  0.00    -0.471 OA
ENDBRANCH   3   2
ENDBRANCH   9   6
ENDBRANCH  12  11
ENDBRANCH  13  12
BRANCH  18  19
ATOM     19  C   UNL     1      -0.776  -0.118  25.414  0.00  0.00    +0.121 C 
BRANCH  19  20
ATOM     20  N   UNL     1      -0.963   0.655  25.194  0.00  0.00    -0.211 NA
BRANCH  20  21
ATOM     21  C   UNL     1      -0.565   1.290  25.540  0.00  0.00    +0.115 C 
BRANCH  21  22
ATOM     22  C   UNL     1      -0.750   2.063  25.317  0.00  0.00    -0.004 A 
ATOM     23  C   UNL     1      -0.503   2.350  24.585  0.00  0.00    -0.003 A 
ATOM     24  C   UNL     1      -0.687   3.122  24.361  0.00  0.00    +0.001 A 
ATOM     25  C   UNL     1      -1.118   3.608  24.872  0.00  0.00    +0.011 A 
ATOM     26  C   UNL     1      -1.364   3.320  25.605  0.00  0.00    +0.057 A 
ATOM     27 CL   UNL     1      -1.794   3.805  26.114  0.00  0.00    -0.082 Cl
ATOM     28  C   UNL     1      -1.180   2.547  25.827  0.00  0.00    +0.009 A 
ENDBRANCH  21  22
ENDBRANCH  20  21
ENDBRANCH  19  20
ENDBRANCH  18  19
TORSDOF 8
ENDMDL
MODEL 5
REMARK VINA RESULT:     -11.5      1.780      4.517
REMARK  Name = 
REMARK  8 active torsions:
REMARK  status: ('A' for Active; 'I' for Inactive)
REMARK    1  A    between atoms: O_2  and  C_3
REMARK    2  A    between atoms: C_6  and  C_9
REMARK    3  A    between atoms: C_11  and  C_12
REMARK    4  A    between atoms: C_12  and  C_13
REMARK    5  A    between atoms: C_18  and  C_19
REMARK    6  A    between atoms: C_19  and  N_20
REMARK    7  A    between atoms: N_20  and  C_21
REMARK    8  A    between atoms: C_21  and  C_22
REMARK                            x       y       z     vdW  Elec       q    Type
REMARK                         _______ _______ _______ _____ _____    ______ ____
ROOT
ATOM     13  C   UNL     1      -4.992   1.831  24.809  0.00  0.00    +0.121 C 
ATOM     14  C   UNL     1      -5.784   1.892  25.028  0.00  0.00    +0.033 C 
ATOM     15  C   UNL     1      -6.043   2.545  25.463  0.00  0.00    +0.038 C 
ATOM     16  C   UNL     1      -5.508   3.136  25.678  0.00  0.00    +0.180 C 
ATOM     17  O   UNL     1      -5.765   3.788  26.111  0.00  0.00    -0.220 OA
ATOM     18  C   UNL     1      -4.714   3.073  25.458  0.00  0.00    +0.163 C 
ATOM     29  O   UNL     1      -4.457   2.421  25.024  0.00  0.00    -0.354 OA
ENDROOT
BRANCH  13  12
ATOM     12  C   UNL     1      -4.733   1.178  24.375  0.00  0.00    +0.079 C 
BRANCH  12  11
ATOM      9  C   UNL     1      -3.362  -0.280  25.115  0.00  0.00    +0.177 A 
ATOM     10  C   UNL     1      -3.540   0.355  24.620  0.00  0.00    +0.058 A 
ATOM     11  C   UNL     1      -4.326   0.569  24.752  0.00  0.00    +0.103 A 
ATOM     30  N   UNL     1      -4.633   0.065  25.329  0.00  0.00    -0.081 NA
ATOM     31  O   UNL     1      -4.038  -0.459  25.553  0.00  0.00    -0.354 OA
BRANCH   9   6
ATOM      3  C   UNL     1      -1.183  -1.445  25.261  0.00  0.00    +0.139 A 
ATOM      4  C   UNL     1      -1.280  -0.706  25.614  0.00  0.00    +0.037 A 
ATOM      5  C   UNL     1      -2.006  -0.318  25.566  0.00  0.00    +0.006 A 
ATOM      6  C   UNL     1      -2.636  -0.669  25.164  0.00  0.00    +0.037 A 
ATOM      7  C   UNL     1      -2.538  -1.408  24.811  0.00  0.00    +0.006 A 
ATOM      8  C   UNL     1      -1.812  -1.796  24.859  0.00  0.00    +0.037 A 
BRANCH   3   2
ATOM      1  C   UNL     1       0.152  -1.637  24.788  0.00  0.00    +0.252 C 
ATOM      2  O   UNL     1      -0.457  -1.833  25.309  0.00  0.00    -0.471 OA
ENDBRANCH   3   2
ENDBRANCH   9   6
ENDBRANCH  12  11
ENDBRANCH  13  12
BRANCH  18  19
ATOM     19  C   UNL     1      -4.180   3.664  25.672  0.00  0.00    +0.121 C 
BRANCH  19  20
ATOM     20  N   UNL     1      -3.382   3.589  25.478  0.00  0.00    -0.211 NA
BRANCH  20  21
ATOM     21  C   UNL     1      -2.816   4.036  25.877  0.00  0.00    +0.115 C 
BRANCH  21  22
ATOM     22  C   UNL     1      -2.033   4.040  25.614  0.00  0.00    -0.004 A 
ATOM     23  C   UNL     1      -1.747   4.682  25.183  0.00  0.00    -0.003 A 
ATOM     24  C   UNL     1      -0.965   4.687  24.920  0.00  0.00    +0.001 A 
ATOM     25  C   UNL     1      -0.469   4.049  25.090  0.00  0.00    +0.011 A 
ATOM     26  C   UNL     1      -0.756   3.407  25.521  0.00  0.00    +0.057 A 
ATOM     27 CL   UNL     1      -0.261   2.769  25.690  0.00  0.00    -0.082 Cl
ATOM     28  C   UNL     1      -1.538   3.403  25.783  0.00  0.00    +0.009 A 
ENDBRANCH  21  22
ENDBRANCH  20  21
ENDBRANCH  19  20
ENDBRANCH  18  19
TORSDOF 8
ENDMDL
MODEL 6
REMARK VINA RESULT:     -11.2      1.717      3.953
REMARK  Name = 
REMARK  8 active torsions:
REMARK  status: ('A' for Active; 'I' for Inactive)
REMARK    1  A    between atoms: O_2  and  C_3
REMARK    2  A    between atoms: C_6  and  C_9
REMARK    3  A    between atoms: C_11  and  C_12
REMARK    4  A    between atoms: C_12  and  C_13
REMARK    5  A    between atoms: C_18  and  C_19
REMARK    6  A    between atoms: C_19  and  N_20
REMARK    7  A    between atoms: N_20  and  C_21
REMARK    8  A    between atoms: C_21  and  C_22
REMARK                            x       y       z     vdW  Elec       q    Type
REMARK                         _______ _______ _______ _____ _____    ______ ____
ROOT
ATOM     13  C   UNL     1      -0.254   1.981  24.857  0.00  0.00    +0.121 C 
ATOM     14  C   UNL     1       0.388   2.159  24.372  0.00  0.00    +0.033 C 
ATOM     15  C   UNL     1       0.724   1.572  23.899  0.00  0.00    +0.038 C 
ATOM     16  C   UNL     1       0.416   0.806  23.912  0.00  0.00    +0.180 C 
ATOM     17  O   UNL     1       0.751   0.219  23.440  0.00  0.00    -0.220 OA
ATOM     18  C   UNL     1      -0.227   0.628  24.398  0.00  0.00    +0.163 C 
ATOM     29  O   UNL     1      -0.562   1.215  24.871  0.00  0.00    -0.354 OA
ENDROOT
BRANCH  13  12
ATOM     12  C   UNL     1      -0.590   2.569  25.330  0.00  0.00    +0.079 C 
BRANCH  12  11
ATOM      9  C   UNL     1      -2.633   3.087  24.996  0.00  0.00    +0.177 A 
ATOM     10  C   UNL     1      -2.059   2.583  25.309  0.00  0.00    +0.058 A 
ATOM     11  C   UNL     1      -1.319   2.895  25.125  0.00  0.00    +0.103 A 
ATOM     30  N   UNL     1      -1.435   3.591  24.698  0.00  0.00    -0.081 NA
ATOM     31  O   UNL     1      -2.247   3.710  24.618  0.00  0.00    -0.354 OA
BRANCH   9   6
ATOM      3  C   UNL     1      -5.084   2.782  25.162  0.00  0.00    +0.139 A 
ATOM      4  C   UNL     1      -4.703   3.331  25.646  0.00  0.00    +0.037 A 
ATOM      5  C   UNL     1      -3.886   3.433  25.591  0.00  0.00    +0.006 A 
ATOM      6  C   UNL     1      -3.450   2.985  25.052  0.00  0.00    +0.037 A 
ATOM      7  C   UNL     1      -3.832   2.436  24.568  0.00  0.00    +0.006 A 
ATOM      8  C   UNL     1      -4.648   2.334  24.624  0.00  0.00    +0.037 A 
BRANCH   3   2
ATOM      1  C   UNL     1      -6.223   1.920  25.226  0.00  0.00    +0.252 C 
ATOM      2  O   UNL     1      -5.901   2.680  25.218  0.00  0.00    -0.471 OA
ENDBRANCH   3   2
ENDBRANCH   9   6
ENDBRANCH  12  11
ENDBRANCH  13  12
BRANCH  18  19
ATOM     19  C   UNL     1      -0.534  -0.137  24.412  0.00  0.00    +0.121 C 
BRANCH  19  20
ATOM     20  N   UNL     1      -1.309  -0.267  24.664  0.00  0.00    -0.211 NA
BRANCH  20  21
ATOM     21  C   UNL     1      -1.618  -1.031  24.671  0.00  0.00    +0.115 C 
BRANCH  21  22
ATOM     22  C   UNL     1      -2.416  -1.151  24.842  0.00  0.00    -0.004 A 
ATOM     23  C   UNL     1      -2.688  -1.071  25.617  0.00  0.00    -0.003 A 
ATOM     24  C   UNL     1      -3.486  -1.191  25.790  0.00  0.00    +0.001 A 
ATOM     25  C   UNL     1      -4.012  -1.391  25.186  0.00  0.00    +0.011 A 
ATOM     26  C   UNL     1      -3.741  -1.471  24.411  0.00  0.00    +0.057 A 
ATOM     27 CL   UNL     1      -4.267  -1.671  23.809  0.00  0.00    -0.082 Cl
ATOM     28  C   UNL     1      -2.942  -1.351  24.240  0.00  0.00    +0.009 A 
ENDBRANCH  21  22
ENDBRANCH  20  21
ENDBRANCH  19  20
ENDBRANCH  18  19
TORSDOF 8
ENDMDL
MODEL 7
REMARK VINA RESULT:     -11.2      1.962      3.787
REMARK  Name = 
REMARK  8 active torsions:
REMARK  status: ('A' for Active; 'I' for Inactive)
REMARK    1  A    between atoms: O_2  and  C_3
REMARK    2  A    between atoms: C_6  and  C_9
REMARK    3  A    between atoms: C_11  and  C_12
REMARK    4  A    between atoms: C_12  and  C_13
REMARK    5  A    between atoms: C_18  and  C_19
REMARK    6  A    between atoms: C_19  and  N_20
REMARK    7  A    between atoms: N_20  and  C_21
REMARK    8  A    between atoms: C_21  and  C_22
REMARK                            x       y       z     vdW  Elec       q    Type
REMARK                         _______ _______ _______ _____ _____    ______ ____
ROOT
ATOM     13  C   UNL     1      -4.625   3.234  25.197  0.00  0.00    +0.121 C 
ATOM     14  C   UNL     1      -5.229   3.450  25.714  0.00  0.00    +0.033 C 
ATOM     15  C   UNL     1      -5.819   2.906  25.911  0.00  0.00    +0.038 C 
ATOM     16  C   UNL     1      -5.803   2.146  25.588  0.00  0.00    +0.180 C 
ATOM     17  O   UNL     1      -6.391   1.603  25.784  0.00  0.00    -0.220 OA
ATOM     18  C   UNL     1      -5.197   1.931  25.070  0.00  0.00    +0.163 C 
ATOM     29  O   UNL     1      -4.609   2.474  24.875  0.00  0.00    -0.354 OA
ENDROOT
BRANCH  13  12
ATOM     12  C   UNL     1      -4.035   3.777  25.001  0.00  0.00    +0.079 C 
BRANCH  12  11
ATOM      9  C   UNL     1      -1.988   3.269  25.330  0.00  0.00    +0.177 A 
ATOM     10  C   UNL     1      -2.669   3.252  24.863  0.00  0.00    +0.058 A 
ATOM     11  C   UNL     1      -3.263   3.659  25.265  0.00  0.00    +0.103 A 
ATOM     30  N   UNL     1      -2.949   3.927  25.980  0.00  0.00    -0.081 NA
ATOM     31  O   UNL     1      -2.162   3.686  26.019  0.00  0.00    -0.354 OA
BRANCH   9   6
ATOM      3  C   UNL     1       0.193   2.248  24.757  0.00  0.00    +0.139 A 
ATOM      4  C   UNL     1      -0.190   2.037  25.457  0.00  0.00    +0.037 A 
ATOM      5  C   UNL     1      -0.917   2.377  25.648  0.00  0.00    +0.006 A 
ATOM      6  C   UNL     1      -1.261   2.929  25.139  0.00  0.00    +0.037 A 
ATOM      7  C   UNL     1      -0.877   3.139  24.439  0.00  0.00    +0.006 A 
ATOM      8  C   UNL     1      -0.151   2.798  24.249  0.00  0.00    +0.037 A 
BRANCH   3   2
ATOM      1  C   UNL     1       0.963   1.328  23.980  0.00  0.00    +0.252 C 
ATOM      2  O   UNL     1       0.920   1.907  24.566  0.00  0.00    -0.471 OA
ENDBRANCH   3   2
ENDBRANCH   9   6
ENDBRANCH  12  11
ENDBRANCH  13  12
BRANCH  18  19
ATOM     19  C   UNL     1      -5.182   1.171  24.749  0.00  0.00    +0.121 C 
BRANCH  19  20
ATOM     20  N   UNL     1      -4.565   0.656  24.936  0.00  0.00    -0.211 NA
BRANCH  20  21
ATOM     21  C   UNL     1      -4.358   0.053  24.413  0.00  0.00    +0.115 C 
BRANCH  21  22
ATOM     22  C   UNL     1      -3.901  -0.582  24.676  0.00  0.00    -0.004 A 
ATOM     23  C   UNL     1      -3.282  -0.452  25.206  0.00  0.00    -0.003 A 
ATOM     24  C   UNL     1      -2.824  -1.085  25.470  0.00  0.00    +0.001 A 
ATOM     25  C   UNL     1      -2.985  -1.849  25.202  0.00  0.00    +0.011 A 
ATOM     26  C   UNL     1      -3.603  -1.979  24.672  0.00  0.00    +0.057 A 
ATOM     27 CL   UNL     1      -3.764  -2.743  24.404  0.00  0.00    -0.082 Cl
ATOM     28  C   UNL     1      -4.061  -1.345  24.409  0.00  0.00    +0.009 A 
ENDBRANCH  21  22
ENDBRANCH  20  21
ENDBRANCH  19  20
ENDBRANCH  18  19
TORSDOF 8
ENDMDL
