REMARK  Name = 
REMARK  8 active torsions:
REMARK  status: ('A' for Active; 'I' for Inactive)
REMARK    1  A    between atoms: N_2  and  C_4
REMARK    2  A    between atoms: C_7  and  C_10
REMARK    3  A    between atoms: N_12  and  C_13
REMARK    4  A    between atoms: C_13  and  C_14
REMARK    5  A    between atoms: C_16  and  C_17
REMARK    6  A    between atoms: C_17  and  C_18
REMARK    7  A    between atoms: N_20  and  C_21
REMARK    8  A    between atoms: C_21  and  C_22
REMARK                            x       y       z     vdW  Elec       q    Type
REMARK                         _______ _______ _______ _____ _____    ______ ____
ROOT
ATOM     14  C   UNL     1      -0.893  -1.483   0.000  0.00  0.00    +0.170 C 
ATOM     15  O   UNL     1      -0.086  -1.655   0.000  0.00  0.00    -0.351 OA
ATOM     16  C   UNL     1       0.000  -2.475   0.000  0.00  0.00    +0.157 C 
ATOM     29  C   UNL     1      -0.754  -2.811   0.000  0.00  0.00    +0.212 C 
ATOM     30  O   UNL     1      -0.925  -3.618   0.000  0.00  0.00    -0.218 OA
ATOM     31  C   UNL     1      -1.306  -2.197   0.000  0.00  0.00    +0.213 C 
ATOM     32  O   UNL     1      -2.126  -2.284   0.000  0.00  0.00    -0.218 OA
ENDROOT
BRANCH  14  13
ATOM     13  C   UNL     1      -1.229  -0.729   0.000  0.00  0.00    +0.148 C 
BRANCH  13  12
ATOM     10  C   UNL     1      -2.385   0.111   0.000  0.00  0.00    +0.265 C 
ATOM     11  O   UNL     1      -1.900   0.778   0.000  0.00  0.00    -0.268 OA
ATOM     12  N   UNL     1      -2.049  -0.643   0.000  0.00  0.00    -0.199 NA
BRANCH  10   7
ATOM      4  C   UNL     1      -4.846   0.369   0.000  0.00  0.00    +0.048 A 
ATOM      5  C   UNL     1      -4.361   1.037   0.000  0.00  0.00    +0.015 A 
ATOM      6  C   UNL     1      -3.541   0.951   0.000  0.00  0.00    +0.006 A 
ATOM      7  C   UNL     1      -3.205   0.197   0.000  0.00  0.00    +0.055 A 
ATOM      8  C   UNL     1      -3.690  -0.471   0.000  0.00  0.00    +0.006 A 
ATOM      9  C   UNL     1      -4.511  -0.384   0.000  0.00  0.00    +0.015 A 
BRANCH   4   2
ATOM      1  C   UNL     1      -6.152  -0.212   0.000  0.00  0.00    +0.112 C 
ATOM      2  N   UNL     1      -5.667   0.456   0.000  0.00  0.00    -0.304 N 
ATOM      3  C   UNL     1      -6.002   1.209   0.000  0.00  0.00    +0.112 C 
ENDBRANCH   4   2
ENDBRANCH  10   7
ENDBRANCH  13  12
ENDBRANCH  14  13
BRANCH  16  17
ATOM     17  C   UNL     1       0.715  -2.888   0.000  0.00  0.00    +0.119 C 
BRANCH  17  18
ATOM     18  C   UNL     1       1.429  -2.475   0.000  0.00  0.00    +0.244 C 
ATOM     19  O   UNL     1       1.429  -1.650   0.000  0.00  0.00    -0.273 OA
ATOM     20  N   UNL     1       2.143  -2.888   0.000  0.00  0.00    -0.200 NA
BRANCH  20  21
ATOM     21  C   UNL     1       2.858  -2.475   0.000  0.00  0.00    +0.141 C 
BRANCH  21  22
ATOM     22  C   UNL     1       3.572  -2.888   0.000  0.00  0.00    -0.000 A 
ATOM     23  C   UNL     1       4.287  -2.475   0.000  0.00  0.00    -0.000 A 
ATOM     24  C   UNL     1       5.001  -2.888   0.000  0.00  0.00    +0.029 A 
ATOM     25  C   UNL     1       5.001  -3.712   0.000  0.00  0.00    +0.140 A 
ATOM     26  F   UNL     1       5.716  -4.125   0.000  0.00  0.00    -0.204 F 
ATOM     27  C   UNL     1       4.287  -4.125   0.000  0.00  0.00    +0.029 A 
ATOM     28  C   UNL     1       3.572  -3.712   0.000  0.00  0.00    -0.000 A 
ENDBRANCH  21  22
ENDBRANCH  20  21
ENDBRANCH  17  18
ENDBRANCH  16  17
TORSDOF 8
