REMARK  Name = 
REMARK  9 active torsions:
REMARK  status: ('A' for Active; 'I' for Inactive)
REMARK    1  A    between atoms: O_2  and  C_3
REMARK    2  A    between atoms: C_6  and  C_7
REMARK    3  A    between atoms: C_7  and  N_8
REMARK    4  A    between atoms: C_9  and  C_11
REMARK    5  A    between atoms: C_11  and  C_12
REMARK    6  A    between atoms: C_17  and  C_18
REMARK    7  A    between atoms: C_18  and  C_19
REMARK    8  A    between atoms: C_22  and  C_23
REMARK    9  A    between atoms: C_23  and  C_24
REMARK                            x       y       z     vdW  Elec       q    Type
REMARK                         _______ _______ _______ _____ _____    ______ ____
ROOT
ATOM     12  C   UNL     1       0.107   0.763   0.000  0.00  0.00    +0.012 C 
ATOM     13  C   UNL     1       0.821   1.176   0.000  0.00  0.00    +0.019 C 
ATOM     14  C   UNL     1       1.536   0.763   0.000  0.00  0.00    +0.089 C 
ATOM     15  N   UNL     1       1.536  -0.062   0.000  0.00  0.00    -0.218 NA
ATOM     16  C   UNL     1       0.821  -0.474   0.000  0.00  0.00    +0.089 C 
ATOM     17  C   UNL     1       0.107  -0.062   0.000  0.00  0.00    +0.024 C 
ENDROOT
BRANCH  12  11
ATOM     11  C   UNL     1      -0.608   1.176   0.000  0.00  0.00    +0.087 C 
BRANCH  11   9
ATOM      8  N   UNL     1      -1.322   2.413   0.000  0.00  0.00    -0.201 NA
ATOM      9  C   UNL     1      -0.608   2.001   0.000  0.00  0.00    +0.242 C 
ATOM     10  O   UNL     1       0.107   2.413   0.000  0.00  0.00    -0.273 OA
BRANCH   8   7
ATOM      7  C   UNL     1      -1.322   3.238   0.000  0.00  0.00    +0.141 C 
BRANCH   7   6
ATOM      3  C   UNL     1      -3.466   4.476   0.000  0.00  0.00    +0.139 A 
ATOM      4  C   UNL     1      -2.751   4.888   0.000  0.00  0.00    +0.037 A 
ATOM      5  C   UNL     1      -2.037   4.476   0.000  0.00  0.00    +0.001 A 
ATOM      6  C   UNL     1      -2.037   3.651   0.000  0.00  0.00    -0.000 A 
ATOM     31  C   UNL     1      -2.751   3.238   0.000  0.00  0.00    +0.001 A 
ATOM     32  C   UNL     1      -3.466   3.651   0.000  0.00  0.00    +0.037 A 
BRANCH   3   2
ATOM      1  C   UNL     1      -4.895   4.476   0.000  0.00  0.00    +0.252 C 
ATOM      2  O   UNL     1      -4.180   4.888   0.000  0.00  0.00    -0.471 OA
ENDBRANCH   3   2
ENDBRANCH   7   6
ENDBRANCH   8   7
ENDBRANCH  11   9
ENDBRANCH  12  11
BRANCH  17  18
ATOM     18  C   UNL     1      -0.608  -0.474   0.000  0.00  0.00    +0.051 C 
BRANCH  18  19
ATOM     19  C   UNL     1      -0.608  -1.299   0.000  0.00  0.00    +0.100 A 
ATOM     20  N   UNL     1       0.060  -1.784   0.000  0.00  0.00    -0.082 NA
ATOM     21  O   UNL     1      -0.195  -2.569   0.000  0.00  0.00    -0.358 OA
ATOM     22  C   UNL     1      -1.020  -2.569   0.000  0.00  0.00    +0.154 A 
ATOM     30  C   UNL     1      -1.275  -1.784   0.000  0.00  0.00    +0.054 A 
BRANCH  22  23
ATOM     23  C   UNL     1      -1.505  -3.236   0.000  0.00  0.00    +0.067 C 
BRANCH  23  24
ATOM     24  C   UNL     1      -1.170  -3.990   0.000  0.00  0.00    +0.008 C 
ATOM     25  C   UNL     1      -0.349  -4.076   0.000  0.00  0.00    +0.000 C 
ATOM     26  C   UNL     1      -0.014  -4.830   0.000  0.00  0.00    +0.000 C 
ATOM     27  C   UNL     1      -0.498  -5.497   0.000  0.00  0.00    +0.000 C 
ATOM     28  C   UNL     1      -1.319  -5.411   0.000  0.00  0.00    +0.000 C 
ATOM     29  C   UNL     1      -1.655  -4.657   0.000  0.00  0.00    +0.000 C 
ENDBRANCH  23  24
ENDBRANCH  22  23
ENDBRANCH  18  19
ENDBRANCH  17  18
TORSDOF 9
