MODEL 1
REMARK VINA RESULT:     -12.8      0.000      0.000
REMARK  Name = 
REMARK  2 active torsions:
REMARK  status: ('A' for Active; 'I' for Inactive)
REMARK    1  A    between atoms: C_7  and  N_10
REMARK    2  A    between atoms: C_13  and  C_15
REMARK                            x       y       z     vdW  Elec       q    Type
REMARK                         _______ _______ _______ _____ _____    ______ ____
ROOT
ATOM     10  N   UNL     1      -3.388   2.241  24.920  0.00  0.00    -0.273 NA
ATOM     11  C   UNL     1      -4.209   2.239  24.995  0.00  0.00    +0.073 C 
ATOM     12  C   UNL     1      -4.470   1.460  24.919  0.00  0.00    +0.028 C 
ATOM     13  C   UNL     1      -3.810   0.981  24.796  0.00  0.00    +0.094 C 
ATOM     14  C   UNL     1      -3.141   1.463  24.797  0.00  0.00    +0.081 C 
ENDROOT
BRANCH  13  15
ATOM     15  C   UNL     1      -3.817   0.162  24.692  0.00  0.00    +0.207 A 
ATOM     16  N   UNL     1      -3.439  -0.391  25.172  0.00  0.00    -0.212 NA
ATOM     17  C   UNL     1      -3.592  -1.141  24.865  0.00  0.00    +0.118 A 
ATOM     18  C   UNL     1      -4.065  -1.051  24.195  0.00  0.00    +0.164 A 
ATOM     19  O   UNL     1      -4.204  -0.246  24.088  0.00  0.00    -0.438 OA
ATOM     20  C   UNL     1      -4.308  -1.716  23.770  0.00  0.00    +0.039 A 
ATOM     21  C   UNL     1      -4.078  -2.469  24.014  0.00  0.00    -0.001 A 
ATOM     22  C   UNL     1      -3.605  -2.559  24.684  0.00  0.00    -0.020 A 
ATOM     23  C   UNL     1      -3.375  -3.312  24.929  0.00  0.00    +0.031 C 
ATOM     24  C   UNL     1      -3.362  -1.895  25.110  0.00  0.00    +0.018 A 
ENDBRANCH  13  15
BRANCH  10   7
ATOM      1  C   UNL     1      -0.657   4.854  24.800  0.00  0.00    +0.095 C 
ATOM      2  C   UNL     1      -1.432   4.895  25.083  0.00  0.00    +0.226 C 
ATOM      3  O   UNL     1      -1.716   5.597  25.407  0.00  0.00    -0.275 OA
ATOM      4  N   UNL     1      -1.921   4.231  25.042  0.00  0.00    -0.279 N 
ATOM      5  C   UNL     1      -2.694   4.271  25.325  0.00  0.00    +0.095 C 
ATOM      6  C   UNL     1      -3.183   3.608  25.285  0.00  0.00    +0.038 C 
ATOM      7  C   UNL     1      -2.899   2.904  24.961  0.00  0.00    +0.061 C 
ATOM      8  C   UNL     1      -2.124   2.865  24.677  0.00  0.00    +0.038 C 
ATOM      9  C   UNL     1      -1.635   3.528  24.718  0.00  0.00    +0.095 C 
ENDBRANCH  10   7
TORSDOF 2
ENDMDL
MODEL 2
REMARK VINA RESULT:     -12.6      1.071      5.535
REMARK  Name = 
REMARK  2 active torsions:
REMARK  status: ('A' for Active; 'I' for Inactive)
REMARK    1  A    between atoms: C_7  and  N_10
REMARK    2  A    between atoms: C_13  and  C_15
REMARK                            x       y       z     vdW  Elec       q    Type
REMARK                         _______ _______ _______ _____ _____    ______ ____
ROOT
ATOM     10  N   UNL     1      -3.877   0.629  24.847  0.00  0.00    -0.273 NA
ATOM     11  C   UNL     1      -4.565   1.081  24.893  0.00  0.00    +0.073 C 
ATOM     12  C   UNL     1      -4.345   1.874  24.961  0.00  0.00    +0.028 C 
ATOM     13  C   UNL     1      -3.520   1.911  24.956  0.00  0.00    +0.094 C 
ATOM     14  C   UNL     1      -3.231   1.142  24.886  0.00  0.00    +0.081 C 
ENDROOT
BRANCH  13  15
ATOM     15  C   UNL     1      -3.066   2.597  25.013  0.00  0.00    +0.207 A 
ATOM     16  N   UNL     1      -2.306   2.701  24.710  0.00  0.00    -0.212 NA
ATOM     17  C   UNL     1      -2.062   3.468  24.892  0.00  0.00    +0.118 A 
ATOM     18  C   UNL     1      -2.671   3.838  25.307  0.00  0.00    +0.164 A 
ATOM     19  O   UNL     1      -3.292   3.300  25.382  0.00  0.00    -0.438 OA
ATOM     20  C   UNL     1      -2.581   4.617  25.563  0.00  0.00    +0.039 A 
ATOM     21  C   UNL     1      -1.884   5.026  25.405  0.00  0.00    -0.001 A 
ATOM     22  C   UNL     1      -1.274   4.656  24.989  0.00  0.00    -0.020 A 
ATOM     23  C   UNL     1      -0.576   5.065  24.830  0.00  0.00    +0.031 C 
ATOM     24  C   UNL     1      -1.363   3.877  24.733  0.00  0.00    +0.018 A 
ENDBRANCH  13  15
BRANCH  10   7
ATOM      1  C   UNL     1      -3.936  -3.016  23.844  0.00  0.00    +0.095 C 
ATOM      2  C   UNL     1      -3.728  -2.655  24.557  0.00  0.00    +0.226 C 
ATOM      3  O   UNL     1      -3.483  -3.115  25.195  0.00  0.00    -0.275 OA
ATOM      4  N   UNL     1      -3.765  -1.834  24.629  0.00  0.00    -0.279 N 
ATOM      5  C   UNL     1      -3.558  -1.473  25.340  0.00  0.00    +0.095 C 
ATOM      6  C   UNL     1      -3.595  -0.652  25.413  0.00  0.00    +0.038 C 
ATOM      7  C   UNL     1      -3.840  -0.192  24.774  0.00  0.00    +0.061 C 
ATOM      8  C   UNL     1      -4.047  -0.553  24.061  0.00  0.00    +0.038 C 
ATOM      9  C   UNL     1      -4.010  -1.375  23.989  0.00  0.00    +0.095 C 
ENDBRANCH  10   7
TORSDOF 2
ENDMDL
MODEL 3
REMARK VINA RESULT:      -9.7      3.129      4.245
REMARK  Name = 
REMARK  2 active torsions:
REMARK  status: ('A' for Active; 'I' for Inactive)
REMARK    1  A    between atoms: C_7  and  N_10
REMARK    2  A    between atoms: C_13  and  C_15
REMARK                            x       y       z     vdW  Elec       q    Type
REMARK                         _______ _______ _______ _____ _____    ______ ____
ROOT
ATOM     10  N   UNL     1      -0.932   0.417  24.440  0.00  0.00    -0.273 NA
ATOM     11  C   UNL     1      -1.143  -0.077  25.066  0.00  0.00    +0.073 C 
ATOM     12  C   UNL     1      -1.913   0.115  25.293  0.00  0.00    +0.028 C 
ATOM     13  C   UNL     1      -2.177   0.728  24.808  0.00  0.00    +0.094 C 
ATOM     14  C   UNL     1      -1.571   0.915  24.281  0.00  0.00    +0.081 C 
ENDROOT
BRANCH  13  15
ATOM     15  C   UNL     1      -2.917   1.091  24.843  0.00  0.00    +0.207 A 
ATOM     16  N   UNL     1      -3.646   0.705  24.860  0.00  0.00    -0.212 NA
ATOM     17  C   UNL     1      -4.237   1.278  24.895  0.00  0.00    +0.118 A 
ATOM     18  C   UNL     1      -3.875   2.019  24.901  0.00  0.00    +0.164 A 
ATOM     19  O   UNL     1      -3.059   1.904  24.868  0.00  0.00    -0.438 OA
ATOM     20  C   UNL     1      -4.335   2.703  24.934  0.00  0.00    +0.039 A 
ATOM     21  C   UNL     1      -5.157   2.647  24.962  0.00  0.00    -0.001 A 
ATOM     22  C   UNL     1      -5.520   1.906  24.957  0.00  0.00    -0.020 A 
ATOM     23  C   UNL     1      -6.342   1.848  24.985  0.00  0.00    +0.031 C 
ATOM     24  C   UNL     1      -5.061   1.221  24.923  0.00  0.00    +0.018 A 
ENDBRANCH  13  15
BRANCH  10   7
ATOM      1  C   UNL     1       2.156  -0.220  22.353  0.00  0.00    +0.095 C 
ATOM      2  C   UNL     1       1.962   0.408  22.853  0.00  0.00    +0.226 C 
ATOM      3  O   UNL     1       2.490   1.032  22.956  0.00  0.00    -0.275 OA
ATOM      4  N   UNL     1       1.238   0.410  23.250  0.00  0.00    -0.279 N 
ATOM      5  C   UNL     1       1.044   1.037  23.749  0.00  0.00    +0.095 C 
ATOM      6  C   UNL     1       0.321   1.039  24.146  0.00  0.00    +0.038 C 
ATOM      7  C   UNL     1      -0.209   0.415  24.043  0.00  0.00    +0.061 C 
ATOM      8  C   UNL     1      -0.014  -0.212  23.543  0.00  0.00    +0.038 C 
ATOM      9  C   UNL     1       0.710  -0.214  23.146  0.00  0.00    +0.095 C 
ENDBRANCH  10   7
TORSDOF 2
ENDMDL
MODEL 4
REMARK VINA RESULT:      -9.2      2.148      2.743
REMARK  Name = 
REMARK  2 active torsions:
REMARK  status: ('A' for Active; 'I' for Inactive)
REMARK    1  A    between atoms: C_7  and  N_10
REMARK    2  A    between atoms: C_13  and  C_15
REMARK                            x       y       z     vdW  Elec       q    Type
REMARK                         _______ _______ _______ _____ _____    ______ ____
ROOT
ATOM     10  N   UNL     1      -4.436   0.895  24.857  0.00  0.00    -0.273 NA
ATOM     11  C   UNL     1      -4.894   0.286  24.543  0.00  0.00    +0.073 C 
ATOM     12  C   UNL     1      -4.416  -0.384  24.474  0.00  0.00    +0.028 C 
ATOM     13  C   UNL     1      -3.662  -0.187  24.747  0.00  0.00    +0.094 C 
ATOM     14  C   UNL     1      -3.674   0.603  24.983  0.00  0.00    +0.081 C 
ENDROOT
BRANCH  13  15
ATOM     15  C   UNL     1      -3.011  -0.692  24.777  0.00  0.00    +0.207 A 
ATOM     16  N   UNL     1      -2.277  -0.519  25.113  0.00  0.00    -0.212 NA
ATOM     17  C   UNL     1      -1.792  -1.179  25.020  0.00  0.00    +0.118 A 
ATOM     18  C   UNL     1      -2.226  -1.761  24.628  0.00  0.00    +0.164 A 
ATOM     19  O   UNL     1      -2.978  -1.461  24.477  0.00  0.00    -0.438 OA
ATOM     20  C   UNL     1      -1.877  -2.490  24.458  0.00  0.00    +0.039 A 
ATOM     21  C   UNL     1      -1.097  -2.636  24.680  0.00  0.00    -0.001 A 
ATOM     22  C   UNL     1      -0.664  -2.054  25.073  0.00  0.00    -0.020 A 
ATOM     23  C   UNL     1       0.117  -2.200  25.296  0.00  0.00    +0.031 C 
ATOM     24  C   UNL     1      -1.011  -1.326  25.243  0.00  0.00    +0.018 A 
ENDBRANCH  13  15
BRANCH  10   7
ATOM      1  C   UNL     1      -4.995   4.609  25.292  0.00  0.00    +0.095 C 
ATOM      2  C   UNL     1      -5.466   3.964  25.500  0.00  0.00    +0.226 C 
ATOM      3  O   UNL     1      -6.194   4.086  25.867  0.00  0.00    -0.275 OA
ATOM      4  N   UNL     1      -5.208   3.197  25.339  0.00  0.00    -0.279 N 
ATOM      5  C   UNL     1      -5.679   2.552  25.546  0.00  0.00    +0.095 C 
ATOM      6  C   UNL     1      -5.421   1.785  25.385  0.00  0.00    +0.038 C 
ATOM      7  C   UNL     1      -4.693   1.662  25.018  0.00  0.00    +0.061 C 
ATOM      8  C   UNL     1      -4.222   2.308  24.810  0.00  0.00    +0.038 C 
ATOM      9  C   UNL     1      -4.480   3.075  24.971  0.00  0.00    +0.095 C 
ENDBRANCH  10   7
TORSDOF 2
ENDMDL
MODEL 5
REMARK VINA RESULT:      -8.8      2.873      4.055
REMARK  Name = 
REMARK  2 active torsions:
REMARK  status: ('A' for Active; 'I' for Inactive)
REMARK    1  A    between atoms: C_7  and  N_10
REMARK    2  A    between atoms: C_13  and  C_15
REMARK                            x       y       z     vdW  Elec       q    Type
REMARK                         _______ _______ _______ _____ _____    ______ ____
ROOT
ATOM     10  N   UNL     1      -2.206   2.557  25.115  0.00  0.00    -0.273 NA
ATOM     11  C   UNL     1      -1.590   2.960  25.488  0.00  0.00    +0.073 C 
ATOM     12  C   UNL     1      -0.878   2.630  25.231  0.00  0.00    +0.028 C 
ATOM     13  C   UNL     1      -1.055   2.024  24.699  0.00  0.00    +0.094 C 
ATOM     14  C   UNL     1      -1.875   1.979  24.627  0.00  0.00    +0.081 C 
ENDROOT
BRANCH  13  15
ATOM     15  C   UNL     1      -0.507   1.547  24.308  0.00  0.00    +0.207 A 
ATOM     16  N   UNL     1       0.272   1.750  24.128  0.00  0.00    -0.212 NA
ATOM     17  C   UNL     1       0.618   1.112  23.738  0.00  0.00    +0.118 A 
ATOM     18  C   UNL     1       0.053   0.514  23.675  0.00  0.00    +0.164 A 
ATOM     19  O   UNL     1      -0.643   0.782  24.028  0.00  0.00    -0.438 OA
ATOM     20  C   UNL     1       0.245  -0.198  23.305  0.00  0.00    +0.039 A 
ATOM     21  C   UNL     1       1.002  -0.313  22.998  0.00  0.00    -0.001 A 
ATOM     22  C   UNL     1       1.567   0.285  23.060  0.00  0.00    -0.020 A 
ATOM     23  C   UNL     1       2.324   0.172  22.753  0.00  0.00    +0.031 C 
ATOM     24  C   UNL     1       1.375   0.997  23.430  0.00  0.00    +0.018 A 
ENDBRANCH  13  15
BRANCH  10   7
ATOM      1  C   UNL     1      -5.981   2.570  25.322  0.00  0.00    +0.095 C 
ATOM      2  C   UNL     1      -5.429   3.156  25.503  0.00  0.00    +0.226 C 
ATOM      3  O   UNL     1      -5.681   3.890  25.781  0.00  0.00    -0.275 OA
ATOM      4  N   UNL     1      -4.623   3.006  25.406  0.00  0.00    -0.279 N 
ATOM      5  C   UNL     1      -4.070   3.591  25.586  0.00  0.00    +0.095 C 
ATOM      6  C   UNL     1      -3.265   3.441  25.489  0.00  0.00    +0.038 C 
ATOM      7  C   UNL     1      -3.011   2.707  25.212  0.00  0.00    +0.061 C 
ATOM      8  C   UNL     1      -3.565   2.122  25.031  0.00  0.00    +0.038 C 
ATOM      9  C   UNL     1      -4.371   2.272  25.128  0.00  0.00    +0.095 C 
ENDBRANCH  10   7
TORSDOF 2
ENDMDL
MODEL 6
REMARK VINA RESULT:      -8.8      1.863      2.254
REMARK  Name = 
REMARK  2 active torsions:
REMARK  status: ('A' for Active; 'I' for Inactive)
REMARK    1  A    between atoms: C_7  and  N_10
REMARK    2  A    between atoms: C_13  and  C_15
REMARK                            x       y       z     vdW  Elec       q    Type
REMARK                         _______ _______ _______ _____ _____    ______ ____
ROOT
ATOM     10  N   UNL     1      -4.102   1.833  24.544  0.00  0.00    -0.273 NA
ATOM     11  C   UNL     1      -3.402   1.843  24.106  0.00  0.00    +0.073 C 
ATOM     12  C   UNL     1      -3.178   1.061  23.967  0.00  0.00    +0.028 C 
ATOM     13  C   UNL     1      -3.739   0.568  24.319  0.00  0.00    +0.094 C 
ATOM     14  C   UNL     1      -4.309   1.045  24.675  0.00  0.00    +0.081 C 
ENDROOT
BRANCH  13  15
ATOM     15  C   UNL     1      -3.730  -0.257  24.315  0.00  0.00    +0.207 A 
ATOM     16  N   UNL     1      -3.311  -0.740  24.835  0.00  0.00    -0.212 NA
ATOM     17  C   UNL     1      -3.460  -1.524  24.631  0.00  0.00    +0.118 A 
ATOM     18  C   UNL     1      -3.972  -1.527  23.984  0.00  0.00    +0.164 A 
ATOM     19  O   UNL     1      -4.139  -0.743  23.788  0.00  0.00    -0.438 OA
ATOM     20  C   UNL     1      -4.220  -2.243  23.657  0.00  0.00    +0.039 A 
ATOM     21  C   UNL     1      -3.957  -2.955  23.977  0.00  0.00    -0.001 A 
ATOM     22  C   UNL     1      -3.445  -2.953  24.624  0.00  0.00    -0.020 A 
ATOM     23  C   UNL     1      -3.181  -3.666  24.944  0.00  0.00    +0.031 C 
ATOM     24  C   UNL     1      -3.197  -2.238  24.952  0.00  0.00    +0.018 A 
ENDBRANCH  13  15
BRANCH  10   7
ATOM      1  C   UNL     1      -5.516   5.236  25.389  0.00  0.00    +0.095 C 
ATOM      2  C   UNL     1      -5.776   4.479  25.588  0.00  0.00    +0.226 C 
ATOM      3  O   UNL     1      -6.454   4.383  26.047  0.00  0.00    -0.275 OA
ATOM      4  N   UNL     1      -5.357   3.817  25.327  0.00  0.00    -0.279 N 
ATOM      5  C   UNL     1      -5.617   3.060  25.525  0.00  0.00    +0.095 C 
ATOM      6  C   UNL     1      -5.199   2.399  25.264  0.00  0.00    +0.038 C 
ATOM      7  C   UNL     1      -4.520   2.495  24.805  0.00  0.00    +0.061 C 
ATOM      8  C   UNL     1      -4.260   3.253  24.607  0.00  0.00    +0.038 C 
ATOM      9  C   UNL     1      -4.679   3.914  24.868  0.00  0.00    +0.095 C 
ENDBRANCH  10   7
TORSDOF 2
ENDMDL
