MODEL 1
REMARK VINA RESULT:     -14.4      0.000      0.000
REMARK  Name = 
REMARK  3 active torsions:
REMARK  status: ('A' for Active; 'I' for Inactive)
REMARK    1  A    between atoms: C_2  and  C_5
REMARK    2  A    between atoms: C_12  and  C_14
REMARK    3  A    between atoms: C_19  and  C_21
REMARK                            x       y       z     vdW  Elec       q    Type
REMARK                         _______ _______ _______ _____ _____    ______ ____
ROOT
ATOM      5  C   UNL     1      -3.669  -1.997  24.533  0.00  0.00    +0.073 A 
ATOM      6  C   UNL     1      -4.053  -1.364  24.171  0.00  0.00    +0.025 A 
ATOM      7  C   UNL     1      -4.152  -0.653  24.579  0.00  0.00    +0.100 A 
ATOM      8  C   UNL     1      -3.865  -0.576  25.348  0.00  0.00    +0.100 A 
ATOM      9  C   UNL     1      -3.480  -1.210  25.711  0.00  0.00    +0.021 A 
ATOM     10  C   UNL     1      -3.382  -1.920  25.302  0.00  0.00    +0.005 A 
ATOM     11  N   UNL     1      -4.042   0.185  25.612  0.00  0.00    -0.229 NA
ATOM     12  C   UNL     1      -4.437   0.579  25.005  0.00  0.00    +0.140 A 
ATOM     13  N   UNL     1      -4.505   0.061  24.367  0.00  0.00    -0.229 NA
ENDROOT
BRANCH  12  14
ATOM     14  C   UNL     1      -4.716   1.355  25.031  0.00  0.00    +0.080 C 
ATOM     15  C   UNL     1      -5.505   1.589  24.970  0.00  0.00    +0.031 C 
ATOM     16  C   UNL     1      -5.533   2.412  25.025  0.00  0.00    +0.094 C 
ATOM     17  N   UNL     1      -4.760   2.687  25.120  0.00  0.00    -0.279 N 
ATOM     18  C   UNL     1      -4.256   2.033  25.124  0.00  0.00    +0.101 C 
ATOM     19  C   UNL     1      -4.532   3.475  25.197  0.00  0.00    +0.225 C 
ATOM     20  O   UNL     1      -5.100   4.073  25.183  0.00  0.00    -0.275 OA
BRANCH  19  21
ATOM     21  C   UNL     1      -3.734   3.667  25.289  0.00  0.00    +0.077 C 
ATOM     22  C   UNL     1      -3.250   3.746  24.625  0.00  0.00    +0.009 C 
ATOM     23  C   UNL     1      -2.453   3.938  24.718  0.00  0.00    +0.000 C 
ATOM     24  C   UNL     1      -2.140   4.052  25.472  0.00  0.00    +0.000 C 
ATOM     25  C   UNL     1      -2.625   3.973  26.136  0.00  0.00    +0.000 C 
ATOM     26  C   UNL     1      -3.422   3.781  26.044  0.00  0.00    +0.009 C 
ENDBRANCH  19  21
ENDBRANCH  12  14
BRANCH   5   2
ATOM      1  F   UNL     1      -3.472  -3.418  23.717  0.00  0.00    -0.166 F 
ATOM      2  C   UNL     1      -3.570  -2.707  24.125  0.00  0.00    +0.419 C 
ATOM      3  F   UNL     1      -2.753  -2.599  24.133  0.00  0.00    -0.166 F 
ATOM      4  F   UNL     1      -4.388  -2.815  24.116  0.00  0.00    -0.166 F 
ENDBRANCH   5   2
TORSDOF 3
ENDMDL
MODEL 2
REMARK VINA RESULT:     -13.1      1.945      2.493
REMARK  Name = 
REMARK  3 active torsions:
REMARK  status: ('A' for Active; 'I' for Inactive)
REMARK    1  A    between atoms: C_2  and  C_5
REMARK    2  A    between atoms: C_12  and  C_14
REMARK    3  A    between atoms: C_19  and  C_21
REMARK                            x       y       z     vdW  Elec       q    Type
REMARK                         _______ _______ _______ _____ _____    ______ ____
ROOT
ATOM      5  C   UNL     1      -3.708  -1.758  24.442  0.00  0.00    +0.073 A 
ATOM      6  C   UNL     1      -3.307  -1.120  24.107  0.00  0.00    +0.025 A 
ATOM      7  C   UNL     1      -2.818  -0.648  24.575  0.00  0.00    +0.100 A 
ATOM      8  C   UNL     1      -2.729  -0.815  25.378  0.00  0.00    +0.100 A 
ATOM      9  C   UNL     1      -3.130  -1.454  25.713  0.00  0.00    +0.021 A 
ATOM     10  C   UNL     1      -3.619  -1.925  25.245  0.00  0.00    +0.005 A 
ATOM     11  N   UNL     1      -2.214  -0.258  25.699  0.00  0.00    -0.229 NA
ATOM     12  C   UNL     1      -1.983   0.254  25.095  0.00  0.00    +0.140 A 
ATOM     13  N   UNL     1      -2.357   0.013  24.401  0.00  0.00    -0.229 NA
ENDROOT
BRANCH  12  14
ATOM     14  C   UNL     1      -1.470   0.895  25.172  0.00  0.00    +0.080 C 
ATOM     15  C   UNL     1      -0.646   0.859  25.173  0.00  0.00    +0.031 C 
ATOM     16  C   UNL     1      -0.356   1.626  25.263  0.00  0.00    +0.094 C 
ATOM     17  N   UNL     1      -1.001   2.137  25.317  0.00  0.00    -0.279 N 
ATOM     18  C   UNL     1      -1.690   1.685  25.261  0.00  0.00    +0.101 C 
ATOM     19  C   UNL     1      -0.966   2.956  25.411  0.00  0.00    +0.225 C 
ATOM     20  O   UNL     1      -0.234   3.334  25.459  0.00  0.00    -0.275 OA
BRANCH  19  21
ATOM     21  C   UNL     1      -1.662   3.397  25.457  0.00  0.00    +0.077 C 
ATOM     22  C   UNL     1      -2.004   3.552  26.192  0.00  0.00    +0.009 C 
ATOM     23  C   UNL     1      -2.700   3.993  26.237  0.00  0.00    +0.000 C 
ATOM     24  C   UNL     1      -3.053   4.280  25.549  0.00  0.00    +0.000 C 
ATOM     25  C   UNL     1      -2.710   4.125  24.814  0.00  0.00    +0.000 C 
ATOM     26  C   UNL     1      -2.014   3.684  24.768  0.00  0.00    +0.009 C 
ENDBRANCH  19  21
ENDBRANCH  12  14
BRANCH   5   2
ATOM      1  F   UNL     1      -4.686  -2.701  23.506  0.00  0.00    -0.166 F 
ATOM      2  C   UNL     1      -4.196  -2.230  23.974  0.00  0.00    +0.419 C 
ATOM      3  F   UNL     1      -3.663  -2.855  24.046  0.00  0.00    -0.166 F 
ATOM      4  F   UNL     1      -4.731  -1.605  23.902  0.00  0.00    -0.166 F 
ENDBRANCH   5   2
TORSDOF 3
ENDMDL
MODEL 3
REMARK VINA RESULT:     -13.0      3.023      5.212
REMARK  Name = 
REMARK  3 active torsions:
REMARK  status: ('A' for Active; 'I' for Inactive)
REMARK    1  A    between atoms: C_2  and  C_5
REMARK    2  A    between atoms: C_12  and  C_14
REMARK    3  A    between atoms: C_19  and  C_21
REMARK                            x       y       z     vdW  Elec       q    Type
REMARK                         _______ _______ _______ _____ _____    ______ ____
ROOT
ATOM      5  C   UNL     1      -1.675   4.482  25.207  0.00  0.00    +0.073 A 
ATOM      6  C   UNL     1      -1.816   3.809  24.752  0.00  0.00    +0.025 A 
ATOM      7  C   UNL     1      -2.468   3.329  24.914  0.00  0.00    +0.100 A 
ATOM      8  C   UNL     1      -2.978   3.523  25.532  0.00  0.00    +0.100 A 
ATOM      9  C   UNL     1      -2.837   4.197  25.988  0.00  0.00    +0.021 A 
ATOM     10  C   UNL     1      -2.186   4.676  25.825  0.00  0.00    +0.005 A 
ATOM     11  N   UNL     1      -3.571   2.951  25.563  0.00  0.00    -0.229 NA
ATOM     12  C   UNL     1      -3.427   2.403  24.964  0.00  0.00    +0.140 A 
ATOM     13  N   UNL     1      -2.745   2.637  24.564  0.00  0.00    -0.229 NA
ENDROOT
BRANCH  12  14
ATOM     14  C   UNL     1      -3.884   1.737  24.795  0.00  0.00    +0.080 C 
ATOM     15  C   UNL     1      -4.662   1.740  24.519  0.00  0.00    +0.031 C 
ATOM     16  C   UNL     1      -4.903   0.957  24.426  0.00  0.00    +0.094 C 
ATOM     17  N   UNL     1      -4.275   0.470  24.645  0.00  0.00    -0.279 N 
ATOM     18  C   UNL     1      -3.645   0.952  24.873  0.00  0.00    +0.101 C 
ATOM     19  C   UNL     1      -4.275  -0.355  24.637  0.00  0.00    +0.225 C 
ATOM     20  O   UNL     1      -4.949  -0.765  24.394  0.00  0.00    -0.275 OA
BRANCH  19  21
ATOM     21  C   UNL     1      -3.602  -0.771  24.872  0.00  0.00    +0.077 C 
ATOM     22  C   UNL     1      -3.037  -0.992  24.312  0.00  0.00    +0.009 C 
ATOM     23  C   UNL     1      -2.365  -1.407  24.548  0.00  0.00    +0.000 C 
ATOM     24  C   UNL     1      -2.257  -1.602  25.342  0.00  0.00    +0.000 C 
ATOM     25  C   UNL     1      -2.822  -1.381  25.902  0.00  0.00    +0.000 C 
ATOM     26  C   UNL     1      -3.495  -0.965  25.667  0.00  0.00    +0.009 C 
ENDBRANCH  19  21
ENDBRANCH  12  14
BRANCH   5   2
ATOM      1  F   UNL     1      -0.372   5.441  24.881  0.00  0.00    -0.166 F 
ATOM      2  C   UNL     1      -1.024   4.961  25.044  0.00  0.00    +0.419 C 
ATOM      3  F   UNL     1      -0.518   4.330  25.208  0.00  0.00    -0.166 F 
ATOM      4  F   UNL     1      -1.529   5.592  24.880  0.00  0.00    -0.166 F 
ENDBRANCH   5   2
TORSDOF 3
ENDMDL
MODEL 4
REMARK VINA RESULT:     -12.8      3.638      5.830
REMARK  Name = 
REMARK  3 active torsions:
REMARK  status: ('A' for Active; 'I' for Inactive)
REMARK    1  A    between atoms: C_2  and  C_5
REMARK    2  A    between atoms: C_12  and  C_14
REMARK    3  A    between atoms: C_19  and  C_21
REMARK                            x       y       z     vdW  Elec       q    Type
REMARK                         _______ _______ _______ _____ _____    ______ ____
ROOT
ATOM      5  C   UNL     1      -1.533   4.344  25.124  0.00  0.00    +0.073 A 
ATOM      6  C   UNL     1      -0.988   3.732  25.031  0.00  0.00    +0.025 A 
ATOM      7  C   UNL     1      -1.245   2.948  25.024  0.00  0.00    +0.100 A 
ATOM      8  C   UNL     1      -2.047   2.776  25.111  0.00  0.00    +0.100 A 
ATOM      9  C   UNL     1      -2.593   3.388  25.205  0.00  0.00    +0.021 A 
ATOM     10  C   UNL     1      -2.335   4.172  25.211  0.00  0.00    +0.005 A 
ATOM     11  N   UNL     1      -2.137   1.957  25.083  0.00  0.00    -0.229 NA
ATOM     12  C   UNL     1      -1.390   1.622  24.979  0.00  0.00    +0.140 A 
ATOM     13  N   UNL     1      -0.840   2.235  24.942  0.00  0.00    -0.229 NA
ENDROOT
BRANCH  12  14
ATOM     14  C   UNL     1      -1.224   0.816  24.921  0.00  0.00    +0.080 C 
ATOM     15  C   UNL     1      -0.473   0.477  24.884  0.00  0.00    +0.031 C 
ATOM     16  C   UNL     1      -0.563  -0.341  24.830  0.00  0.00    +0.094 C 
ATOM     17  N   UNL     1      -1.371  -0.508  24.833  0.00  0.00    -0.279 N 
ATOM     18  C   UNL     1      -1.779   0.207  24.889  0.00  0.00    +0.101 C 
ATOM     19  C   UNL     1      -1.711  -1.258  24.788  0.00  0.00    +0.225 C 
ATOM     20  O   UNL     1      -1.231  -1.927  24.734  0.00  0.00    -0.275 OA
BRANCH  19  21
ATOM     21  C   UNL     1      -2.533  -1.340  24.798  0.00  0.00    +0.077 C 
ATOM     22  C   UNL     1      -2.933  -1.401  25.517  0.00  0.00    +0.009 C 
ATOM     23  C   UNL     1      -3.754  -1.484  25.525  0.00  0.00    +0.000 C 
ATOM     24  C   UNL     1      -4.174  -1.505  24.816  0.00  0.00    +0.000 C 
ATOM     25  C   UNL     1      -3.774  -1.444  24.097  0.00  0.00    +0.000 C 
ATOM     26  C   UNL     1      -2.952  -1.361  24.088  0.00  0.00    +0.009 C 
ENDBRANCH  19  21
ENDBRANCH  12  14
BRANCH   5   2
ATOM      1  F   UNL     1      -1.020   5.912  25.138  0.00  0.00    -0.166 F 
ATOM      2  C   UNL     1      -1.276   5.127  25.131  0.00  0.00    +0.419 C 
ATOM      3  F   UNL     1      -0.713   4.948  24.556  0.00  0.00    -0.166 F 
ATOM      4  F   UNL     1      -1.840   5.307  25.706  0.00  0.00    -0.166 F 
ENDBRANCH   5   2
TORSDOF 3
ENDMDL
