REMARK  Name = 
REMARK  5 active torsions:
REMARK  status: ('A' for Active; 'I' for Inactive)
REMARK    1  A    between atoms: C_6  and  C_7
REMARK    2  A    between atoms: C_7  and  N_8
REMARK    3  A    between atoms: N_8  and  C_9
REMARK    4  A    between atoms: C_12  and  C_13
REMARK    5  A    between atoms: C_13  and  N_14
REMARK                            x       y       z     vdW  Elec       q    Type
REMARK                         _______ _______ _______ _____ _____    ______ ____
ROOT
ATOM      9  C   UNL     1      -1.449  -1.571   0.000  0.00  0.00    +0.136 C 
ATOM     10  C   UNL     1      -2.116  -2.056   0.000  0.00  0.00    +0.162 C 
ATOM     11  O   UNL     1      -2.784  -1.571   0.000  0.00  0.00    -0.350 OA
ATOM     12  C   UNL     1      -2.529  -0.786   0.000  0.00  0.00    +0.169 C 
ATOM     18  C   UNL     1      -1.704  -0.786   0.000  0.00  0.00    +0.199 C 
ATOM     19  O   UNL     1      -1.219  -0.119   0.000  0.00  0.00    -0.219 OA
ENDROOT
BRANCH   9   8
ATOM      8  N   UNL     1      -0.664  -1.826   0.000  0.00  0.00    -0.206 NA
BRANCH   8   7
ATOM      7  C   UNL     1      -0.493  -2.633   0.000  0.00  0.00    +0.152 C 
BRANCH   7   6
ATOM      1  C   UNL     1       0.959  -1.578   0.000  0.00  0.00    +0.132 C 
ATOM      2  N   UNL     1       0.959  -2.403   0.000  0.00  0.00    -0.311 N 
ATOM      3  C   UNL     1       1.627  -2.888   0.000  0.00  0.00    +0.098 A 
ATOM      4  C   UNL     1       1.372  -3.672   0.000  0.00  0.00    +0.119 A 
ATOM      5  N   UNL     1       0.547  -3.672   0.000  0.00  0.00    -0.228 NA
ATOM      6  C   UNL     1       0.292  -2.888   0.000  0.00  0.00    +0.138 A 
ENDBRANCH   7   6
ENDBRANCH   8   7
ENDBRANCH   9   8
BRANCH  12  13
ATOM     13  C   UNL     1      -3.014  -0.119   0.000  0.00  0.00    +0.147 C 
BRANCH  13  14
ATOM     14  N   UNL     1      -3.834  -0.205   0.000  0.00  0.00    -0.203 NA
ATOM     15  C   UNL     1      -4.319   0.462   0.000  0.00  0.00    +0.242 C 
ATOM     16  C   UNL     1      -5.140   0.376   0.000  0.00  0.00    +0.096 C 
ATOM     17  O   UNL     1      -3.984   1.216   0.000  0.00  0.00    -0.273 OA
ENDBRANCH  13  14
ENDBRANCH  12  13
TORSDOF 5
