REMARK  Name = 
REMARK  7 active torsions:
REMARK  status: ('A' for Active; 'I' for Inactive)
REMARK    1  A    between atoms: C_5  and  S_8
REMARK    2  A    between atoms: S_8  and  N_11
REMARK    3  A    between atoms: N_11  and  C_12
REMARK    4  A    between atoms: C_12  and  C_13
REMARK    5  A    between atoms: C_16  and  N_17
REMARK    6  A    between atoms: N_17  and  C_18
REMARK    7  A    between atoms: C_18  and  C_19
REMARK                            x       y       z     vdW  Elec       q    Type
REMARK                         _______ _______ _______ _____ _____    ______ ____
ROOT
ATOM     13  C   UNL     1       1.429  -2.475   0.000  0.00  0.00    +0.166 C 
ATOM     14  O   UNL     1       2.096  -2.960   0.000  0.00  0.00    -0.350 OA
ATOM     15  C   UNL     1       1.841  -3.744   0.000  0.00  0.00    +0.162 C 
ATOM     16  C   UNL     1       1.016  -3.744   0.000  0.00  0.00    +0.135 C 
ATOM     25  C   UNL     1       0.761  -2.960   0.000  0.00  0.00    +0.199 C 
ATOM     26  O   UNL     1      -0.023  -2.705   0.000  0.00  0.00    -0.219 OA
ENDROOT
BRANCH  13  12
ATOM     12  C   UNL     1       1.429  -1.650   0.000  0.00  0.00    +0.148 C 
BRANCH  12  11
ATOM     11  N   UNL     1       2.143  -1.238   0.000  0.00  0.00    -0.075 NA
BRANCH  11   8
ATOM      8  S   UNL     1       2.143  -0.412   0.000  0.00  0.00    +0.077 S 
ATOM      9  O   UNL     1       1.318  -0.412   0.000  0.00  0.00    -0.152 OA
ATOM     10  O   UNL     1       2.968  -0.412   0.000  0.00  0.00    -0.152 OA
BRANCH   8   5
ATOM      1  C   UNL     1       2.143   2.888   0.000  0.00  0.00    +0.031 C 
ATOM      2  C   UNL     1       2.143   2.062   0.000  0.00  0.00    -0.022 A 
ATOM      3  C   UNL     1       2.858   1.650   0.000  0.00  0.00    -0.003 A 
ATOM      4  C   UNL     1       2.858   0.825   0.000  0.00  0.00    +0.020 A 
ATOM      5  C   UNL     1       2.143   0.412   0.000  0.00  0.00    +0.124 A 
ATOM      6  C   UNL     1       1.429   0.825   0.000  0.00  0.00    +0.020 A 
ATOM      7  C   UNL     1       1.429   1.650   0.000  0.00  0.00    -0.003 A 
ENDBRANCH   8   5
ENDBRANCH  11   8
ENDBRANCH  12  11
ENDBRANCH  13  12
BRANCH  16  17
ATOM     17  N   UNL     1       0.531  -4.412   0.000  0.00  0.00    -0.209 NA
BRANCH  17  18
ATOM     18  C   UNL     1       0.867  -5.166   0.000  0.00  0.00    +0.117 C 
BRANCH  18  19
ATOM     19  C   UNL     1       0.382  -5.833   0.000  0.00  0.00    +0.014 A 
ATOM     20  C   UNL     1       0.718  -6.587   0.000  0.00  0.00    +0.000 A 
ATOM     21  C   UNL     1       0.233  -7.254   0.000  0.00  0.00    +0.020 A 
ATOM     22  C   UNL     1      -0.588  -7.168   0.000  0.00  0.00    +0.099 A 
ATOM     23  N   UNL     1      -0.923  -6.414   0.000  0.00  0.00    -0.243 NA
ATOM     24  C   UNL     1      -0.438  -5.747   0.000  0.00  0.00    +0.096 A 
ENDBRANCH  18  19
ENDBRANCH  17  18
ENDBRANCH  16  17
TORSDOF 7
