MODEL 1
REMARK VINA RESULT:     -11.0      0.000      0.000
REMARK  Name = 
REMARK  4 active torsions:
REMARK  status: ('A' for Active; 'I' for Inactive)
REMARK    1  A    between atoms: C_2  and  C_4
REMARK    2  A    between atoms: N_6  and  C_7
REMARK    3  A    between atoms: C_13  and  C_14
REMARK    4  A    between atoms: C_17  and  N_20
REMARK                            x       y       z     vdW  Elec       q    Type
REMARK                         _______ _______ _______ _____ _____    ______ ____
ROOT
ATOM      7  C   UNL     1      -3.198  -1.304  24.689  0.00  0.00    +0.132 C 
ATOM      8  C   UNL     1      -3.258  -2.085  24.429  0.00  0.00    +0.202 C 
ATOM      9  O   UNL     1      -2.707  -2.684  24.563  0.00  0.00    -0.219 OA
ATOM     10  C   UNL     1      -3.967  -2.161  24.013  0.00  0.00    +0.184 C 
ATOM     11  O   UNL     1      -4.248  -2.850  23.657  0.00  0.00    -0.220 OA
ATOM     12  C   UNL     1      -4.344  -1.427  24.015  0.00  0.00    +0.042 C 
ATOM     13  C   UNL     1      -3.869  -0.898  24.433  0.00  0.00    +0.049 C 
ENDROOT
BRANCH  13  14
ATOM     14  C   UNL     1      -4.036  -0.101  24.571  0.00  0.00    -0.001 A 
ATOM     15  C   UNL     1      -4.397   0.128  25.276  0.00  0.00    +0.000 A 
ATOM     16  C   UNL     1      -4.564   0.924  25.414  0.00  0.00    +0.034 A 
ATOM     17  C   UNL     1      -4.369   1.491  24.846  0.00  0.00    +0.132 A 
ATOM     18  N   UNL     1      -4.008   1.261  24.141  0.00  0.00    -0.229 NA
ATOM     19  C   UNL     1      -3.841   0.465  24.003  0.00  0.00    +0.096 A 
BRANCH  17  20
ATOM     20  N   UNL     1      -4.536   2.286  24.983  0.00  0.00    -0.288 N 
ATOM     21  C   UNL     1      -5.275   2.509  25.274  0.00  0.00    +0.124 C 
ATOM     22  C   UNL     1      -5.442   3.305  25.411  0.00  0.00    +0.164 C 
ATOM     23  O   UNL     1      -4.870   3.879  25.258  0.00  0.00    -0.350 OA
ATOM     24  C   UNL     1      -4.131   3.657  24.968  0.00  0.00    +0.164 C 
ATOM     25  C   UNL     1      -3.964   2.861  24.830  0.00  0.00    +0.124 C 
ENDBRANCH  17  20
ENDBRANCH  13  14
BRANCH   7   6
ATOM      4  C   UNL     1      -1.798  -1.088  24.874  0.00  0.00    +0.241 C 
ATOM      5  O   UNL     1      -1.642  -1.510  24.183  0.00  0.00    -0.273 OA
ATOM      6  N   UNL     1      -2.577  -0.986  25.127  0.00  0.00    -0.204 NA
BRANCH   4   2
ATOM      1  C   UNL     1      -1.159  -0.864  26.132  0.00  0.00    +0.010 C 
ATOM      2  C   UNL     1      -1.176  -0.770  25.313  0.00  0.00    +0.078 C 
ATOM      3  C   UNL     1      -0.573  -0.357  24.932  0.00  0.00    +0.010 C 
ENDBRANCH   4   2
ENDBRANCH   7   6
TORSDOF 4
ENDMDL
MODEL 2
REMARK VINA RESULT:     -10.8      1.444      4.304
REMARK  Name = 
REMARK  4 active torsions:
REMARK  status: ('A' for Active; 'I' for Inactive)
REMARK    1  A    between atoms: C_2  and  C_4
REMARK    2  A    between atoms: N_6  and  C_7
REMARK    3  A    between atoms: C_13  and  C_14
REMARK    4  A    between atoms: C_17  and  N_20
REMARK                            x       y       z     vdW  Elec       q    Type
REMARK                         _______ _______ _______ _____ _____    ______ ____
ROOT
ATOM      7  C   UNL     1      -3.269   2.551  24.732  0.00  0.00    +0.132 C 
ATOM      8  C   UNL     1      -3.572   3.313  24.820  0.00  0.00    +0.202 C 
ATOM      9  O   UNL     1      -3.130   4.008  24.866  0.00  0.00    -0.219 OA
ATOM     10  C   UNL     1      -4.395   3.258  24.853  0.00  0.00    +0.184 C 
ATOM     11  O   UNL     1      -4.919   3.889  24.939  0.00  0.00    -0.220 OA
ATOM     12  C   UNL     1      -4.600   2.462  24.786  0.00  0.00    +0.042 C 
ATOM     13  C   UNL     1      -3.904   2.024  24.711  0.00  0.00    +0.049 C 
ENDROOT
BRANCH  13  14
ATOM     14  C   UNL     1      -3.853   1.205  24.630  0.00  0.00    -0.001 A 
ATOM     15  C   UNL     1      -4.030   0.715  25.271  0.00  0.00    +0.000 A 
ATOM     16  C   UNL     1      -3.979  -0.104  25.189  0.00  0.00    +0.034 A 
ATOM     17  C   UNL     1      -3.751  -0.434  24.468  0.00  0.00    +0.132 A 
ATOM     18  N   UNL     1      -3.575   0.056  23.828  0.00  0.00    -0.229 NA
ATOM     19  C   UNL     1      -3.626   0.876  23.908  0.00  0.00    +0.096 A 
BRANCH  17  20
ATOM     20  N   UNL     1      -3.700  -1.252  24.386  0.00  0.00    -0.288 N 
ATOM     21  C   UNL     1      -4.271  -1.660  23.951  0.00  0.00    +0.124 C 
ATOM     22  C   UNL     1      -4.220  -2.479  23.869  0.00  0.00    +0.164 C 
ATOM     23  O   UNL     1      -3.599  -2.892  24.222  0.00  0.00    -0.350 OA
ATOM     24  C   UNL     1      -3.028  -2.485  24.657  0.00  0.00    +0.164 C 
ATOM     25  C   UNL     1      -3.079  -1.665  24.739  0.00  0.00    +0.124 C 
ENDBRANCH  17  20
ENDBRANCH  13  14
BRANCH   7   6
ATOM      4  C   UNL     1      -1.932   2.641  25.227  0.00  0.00    +0.241 C 
ATOM      5  O   UNL     1      -2.191   3.133  25.835  0.00  0.00    -0.273 OA
ATOM      6  N   UNL     1      -2.472   2.350  24.675  0.00  0.00    -0.204 NA
BRANCH   4   2
ATOM      1  C   UNL     1      -0.717   2.601  24.477  0.00  0.00    +0.010 C 
ATOM      2  C   UNL     1      -1.134   2.440  25.170  0.00  0.00    +0.078 C 
ATOM      3  C   UNL     1      -0.754   2.077  25.805  0.00  0.00    +0.010 C 
ENDBRANCH   4   2
ENDBRANCH   7   6
TORSDOF 4
ENDMDL
MODEL 3
REMARK VINA RESULT:     -10.2      1.173      4.840
REMARK  Name = 
REMARK  4 active torsions:
REMARK  status: ('A' for Active; 'I' for Inactive)
REMARK    1  A    between atoms: C_2  and  C_4
REMARK    2  A    between atoms: N_6  and  C_7
REMARK    3  A    between atoms: C_13  and  C_14
REMARK    4  A    between atoms: C_17  and  N_20
REMARK                            x       y       z     vdW  Elec       q    Type
REMARK                         _______ _______ _______ _____ _____    ______ ____
ROOT
ATOM      7  C   UNL     1      -3.906   2.441  24.653  0.00  0.00    +0.132 C 
ATOM      8  C   UNL     1      -3.697   3.239  24.636  0.00  0.00    +0.202 C 
ATOM      9  O   UNL     1      -4.215   3.877  24.715  0.00  0.00    -0.219 OA
ATOM     10  C   UNL     1      -2.880   3.287  24.528  0.00  0.00    +0.184 C 
ATOM     11  O   UNL     1      -2.438   3.982  24.480  0.00  0.00    -0.220 OA
ATOM     12  C   UNL     1      -2.584   2.519  24.478  0.00  0.00    +0.042 C 
ATOM     13  C   UNL     1      -3.218   1.996  24.555  0.00  0.00    +0.049 C 
ENDROOT
BRANCH  13  14
ATOM     14  C   UNL     1      -3.171   1.172  24.537  0.00  0.00    -0.001 A 
ATOM     15  C   UNL     1      -3.368   0.763  23.847  0.00  0.00    +0.000 A 
ATOM     16  C   UNL     1      -3.322  -0.060  23.829  0.00  0.00    +0.034 A 
ATOM     17  C   UNL     1      -3.079  -0.474  24.500  0.00  0.00    +0.132 A 
ATOM     18  N   UNL     1      -2.883  -0.065  25.189  0.00  0.00    -0.229 NA
ATOM     19  C   UNL     1      -2.929   0.758  25.208  0.00  0.00    +0.096 A 
BRANCH  17  20
ATOM     20  N   UNL     1      -3.033  -1.297  24.482  0.00  0.00    -0.288 N 
ATOM     21  C   UNL     1      -3.723  -1.749  24.459  0.00  0.00    +0.124 C 
ATOM     22  C   UNL     1      -3.677  -2.573  24.441  0.00  0.00    +0.164 C 
ATOM     23  O   UNL     1      -2.941  -2.945  24.446  0.00  0.00    -0.350 OA
ATOM     24  C   UNL     1      -2.250  -2.494  24.469  0.00  0.00    +0.164 C 
ATOM     25  C   UNL     1      -2.297  -1.670  24.487  0.00  0.00    +0.124 C 
ENDBRANCH  17  20
ENDBRANCH  13  14
BRANCH   7   6
ATOM      4  C   UNL     1      -5.134   2.395  25.381  0.00  0.00    +0.241 C 
ATOM      5  O   UNL     1      -4.837   2.950  25.915  0.00  0.00    -0.273 OA
ATOM      6  N   UNL     1      -4.667   2.142  24.750  0.00  0.00    -0.204 NA
BRANCH   4   2
ATOM      1  C   UNL     1      -6.180   1.929  26.234  0.00  0.00    +0.010 C 
ATOM      2  C   UNL     1      -5.896   2.095  25.478  0.00  0.00    +0.078 C 
ATOM      3  C   UNL     1      -6.373   1.961  24.819  0.00  0.00    +0.010 C 
ENDBRANCH   4   2
ENDBRANCH   7   6
TORSDOF 4
ENDMDL
MODEL 4
REMARK VINA RESULT:     -10.1      2.084      5.433
REMARK  Name = 
REMARK  4 active torsions:
REMARK  status: ('A' for Active; 'I' for Inactive)
REMARK    1  A    between atoms: C_2  and  C_4
REMARK    2  A    between atoms: N_6  and  C_7
REMARK    3  A    between atoms: C_13  and  C_14
REMARK    4  A    between atoms: C_17  and  N_20
REMARK                            x       y       z     vdW  Elec       q    Type
REMARK                         _______ _______ _______ _____ _____    ______ ____
ROOT
ATOM      7  C   UNL     1      -2.093   3.578  25.204  0.00  0.00    +0.132 C 
ATOM      8  C   UNL     1      -1.898   4.380  25.213  0.00  0.00    +0.202 C 
ATOM      9  O   UNL     1      -2.413   5.002  25.383  0.00  0.00    -0.219 OA
ATOM     10  C   UNL     1      -1.098   4.451  25.021  0.00  0.00    +0.184 C 
ATOM     11  O   UNL     1      -0.674   5.156  24.967  0.00  0.00    -0.220 OA
ATOM     12  C   UNL     1      -0.799   3.693  24.894  0.00  0.00    +0.042 C 
ATOM     13  C   UNL     1      -1.413   3.153  25.007  0.00  0.00    +0.049 C 
ENDROOT
BRANCH  13  14
ATOM     14  C   UNL     1      -1.357   2.333  24.936  0.00  0.00    -0.001 A 
ATOM     15  C   UNL     1      -1.245   1.867  25.608  0.00  0.00    +0.000 A 
ATOM     16  C   UNL     1      -1.189   1.048  25.537  0.00  0.00    +0.034 A 
ATOM     17  C   UNL     1      -1.246   0.693  24.794  0.00  0.00    +0.132 A 
ATOM     18  N   UNL     1      -1.359   1.159  24.122  0.00  0.00    -0.229 NA
ATOM     19  C   UNL     1      -1.414   1.979  24.193  0.00  0.00    +0.096 A 
BRANCH  17  20
ATOM     20  N   UNL     1      -1.191  -0.126  24.722  0.00  0.00    -0.288 N 
ATOM     21  C   UNL     1      -0.455  -0.481  24.604  0.00  0.00    +0.124 C 
ATOM     22  C   UNL     1      -0.400  -1.301  24.532  0.00  0.00    +0.164 C 
ATOM     23  O   UNL     1      -1.079  -1.767  24.579  0.00  0.00    -0.350 OA
ATOM     24  C   UNL     1      -1.814  -1.412  24.697  0.00  0.00    +0.164 C 
ATOM     25  C   UNL     1      -1.870  -0.592  24.769  0.00  0.00    +0.124 C 
ENDBRANCH  17  20
ENDBRANCH  13  14
BRANCH   7   6
ATOM      4  C   UNL     1      -3.495   3.516  24.942  0.00  0.00    +0.241 C 
ATOM      5  O   UNL     1      -3.412   4.095  24.361  0.00  0.00    -0.273 OA
ATOM      6  N   UNL     1      -2.835   3.258  25.364  0.00  0.00    -0.204 NA
BRANCH   4   2
ATOM      1  C   UNL     1      -4.636   2.767  24.521  0.00  0.00    +0.010 C 
ATOM      2  C   UNL     1      -4.239   3.196  25.102  0.00  0.00    +0.078 C 
ATOM      3  C   UNL     1      -4.583   3.304  25.843  0.00  0.00    +0.010 C 
ENDBRANCH   4   2
ENDBRANCH   7   6
TORSDOF 4
ENDMDL
