REMARK  Name = 
REMARK  9 active torsions:
REMARK  status: ('A' for Active; 'I' for Inactive)
REMARK    1  A    between atoms: O_2  and  C_3
REMARK    2  A    between atoms: C_6  and  C_7
REMARK    3  A    between atoms: C_7  and  N_8
REMARK    4  A    between atoms: C_9  and  C_11
REMARK    5  A    between atoms: C_11  and  C_12
REMARK    6  A    between atoms: C_14  and  C_15
REMARK    7  A    between atoms: C_15  and  N_16
REMARK    8  A    between atoms: C_17  and  C_19
REMARK    9  A    between atoms: C_22  and  N_25
REMARK                            x       y       z     vdW  Elec       q    Type
REMARK                         _______ _______ _______ _____ _____    ______ ____
ROOT
ATOM     12  C   UNL     1       6.672  -5.886   0.000  0.00  0.00    +0.157 C 
ATOM     13  O   UNL     1       7.425  -5.550   0.000  0.00  0.00    -0.351 OA
ATOM     14  C   UNL     1       7.977  -6.163   0.000  0.00  0.00    +0.170 C 
ATOM     28  C   UNL     1       7.565  -6.878   0.000  0.00  0.00    +0.213 C 
ATOM     29  O   UNL     1       7.900  -7.631   0.000  0.00  0.00    -0.218 OA
ATOM     30  C   UNL     1       6.758  -6.706   0.000  0.00  0.00    +0.212 C 
ATOM     31  O   UNL     1       6.145  -7.258   0.000  0.00  0.00    -0.218 OA
ENDROOT
BRANCH  12  11
ATOM     11  C   UNL     1       5.957  -5.473   0.000  0.00  0.00    +0.119 C 
BRANCH  11   9
ATOM      8  N   UNL     1       4.528  -5.473   0.000  0.00  0.00    -0.200 NA
ATOM      9  C   UNL     1       5.243  -5.886   0.000  0.00  0.00    +0.244 C 
ATOM     10  O   UNL     1       5.243  -6.711   0.000  0.00  0.00    -0.273 OA
BRANCH   8   7
ATOM      7  C   UNL     1       3.814  -5.886   0.000  0.00  0.00    +0.141 C 
BRANCH   7   6
ATOM      3  C   UNL     1       1.670  -4.648   0.000  0.00  0.00    +0.139 A 
ATOM      4  C   UNL     1       2.385  -4.236   0.000  0.00  0.00    +0.037 A 
ATOM      5  C   UNL     1       3.099  -4.648   0.000  0.00  0.00    +0.001 A 
ATOM      6  C   UNL     1       3.099  -5.473   0.000  0.00  0.00    -0.000 A 
ATOM     32  C   UNL     1       2.385  -5.886   0.000  0.00  0.00    +0.001 A 
ATOM     33  C   UNL     1       1.670  -5.473   0.000  0.00  0.00    +0.037 A 
BRANCH   3   2
ATOM      1  C   UNL     1       0.241  -4.648   0.000  0.00  0.00    +0.252 C 
ATOM      2  O   UNL     1       0.956  -4.236   0.000  0.00  0.00    -0.471 OA
ENDBRANCH   3   2
ENDBRANCH   7   6
ENDBRANCH   8   7
ENDBRANCH  11   9
ENDBRANCH  12  11
BRANCH  14  15
ATOM     15  C   UNL     1       8.798  -6.077   0.000  0.00  0.00    +0.148 C 
BRANCH  15  16
ATOM     16  N   UNL     1       9.283  -6.744   0.000  0.00  0.00    -0.199 NA
ATOM     17  C   UNL     1      10.103  -6.658   0.000  0.00  0.00    +0.265 C 
ATOM     18  O   UNL     1      10.439  -5.904   0.000  0.00  0.00    -0.268 OA
BRANCH  17  19
ATOM     19  C   UNL     1      10.588  -7.325   0.000  0.00  0.00    +0.055 A 
ATOM     20  C   UNL     1      11.409  -7.239   0.000  0.00  0.00    +0.006 A 
ATOM     21  C   UNL     1      11.893  -7.907   0.000  0.00  0.00    +0.015 A 
ATOM     22  C   UNL     1      11.558  -8.660   0.000  0.00  0.00    +0.048 A 
ATOM     23  C   UNL     1      10.738  -8.747   0.000  0.00  0.00    +0.015 A 
ATOM     24  C   UNL     1      10.253  -8.079   0.000  0.00  0.00    +0.006 A 
BRANCH  22  25
ATOM     25  N   UNL     1      12.043  -9.328   0.000  0.00  0.00    -0.304 N 
ATOM     26  C   UNL     1      12.863  -9.242   0.000  0.00  0.00    +0.112 C 
ATOM     27  C   UNL     1      11.707 -10.082   0.000  0.00  0.00    +0.112 C 
ENDBRANCH  22  25
ENDBRANCH  17  19
ENDBRANCH  15  16
ENDBRANCH  14  15
TORSDOF 9
