MODEL 1
REMARK VINA RESULT:     -12.9      0.000      0.000
REMARK  Name = 
REMARK  6 active torsions:
REMARK  status: ('A' for Active; 'I' for Inactive)
REMARK    1  A    between atoms: N_2  and  C_3
REMARK    2  A    between atoms: C_3  and  C_4
REMARK    3  A    between atoms: C_6  and  C_8
REMARK    4  A    between atoms: C_8  and  C_9
REMARK    5  A    between atoms: C_14  and  C_16
REMARK    6  A    between atoms: C_27  and  C_29
REMARK                            x       y       z     vdW  Elec       q    Type
REMARK                         _______ _______ _______ _____ _____    ______ ____
ROOT
ATOM      9  C   UNL     1      -3.431   0.156  24.436  0.00  0.00    +0.050 C 
ATOM     10  C   UNL     1      -2.737   0.584  24.566  0.00  0.00    +0.063 A 
ATOM     11  C   UNL     1      -2.023   0.186  24.678  0.00  0.00    +0.023 A 
ATOM     12  C   UNL     1      -2.003  -0.638  24.661  0.00  0.00    +0.034 C 
ATOM     13  C   UNL     1      -2.696  -1.065  24.531  0.00  0.00    +0.010 C 
ATOM     14  C   UNL     1      -2.676  -1.890  24.514  0.00  0.00    +0.059 C 
ATOM     15  C   UNL     1      -1.879  -1.730  24.654  0.00  0.00    +0.005 C 
ATOM     18  C   UNL     1      -3.370  -2.317  24.384  0.00  0.00    +0.154 C 
ATOM     19  O   UNL     1      -3.350  -3.142  24.367  0.00  0.00    -0.223 OA
ATOM     20  C   UNL     1      -4.084  -1.920  24.272  0.00  0.00    +0.033 C 
ATOM     21  C   UNL     1      -4.104  -1.095  24.289  0.00  0.00    +0.003 C 
ATOM     22  C   UNL     1      -3.411  -0.668  24.419  0.00  0.00    +0.006 C 
ATOM     23  C   UNL     1      -4.125  -0.271  24.306  0.00  0.00    +0.000 C 
ATOM     24  S   UNL     1      -1.433   0.751  24.793  0.00  0.00    -0.054 S 
ATOM     25  C   UNL     1      -1.782   1.497  24.752  0.00  0.00    +0.186 A 
ATOM     26  N   UNL     1      -1.393   2.220  24.837  0.00  0.00    -0.148 NA
ATOM     27  C   UNL     1      -1.817   2.925  24.782  0.00  0.00    +0.305 C 
ATOM     28  O   UNL     1      -2.630   2.908  24.643  0.00  0.00    -0.265 OA
ATOM     34  N   UNL     1      -2.588   1.394  24.611  0.00  0.00    -0.227 NA
ENDROOT
BRANCH  27  29
ATOM     29  C   UNL     1      -1.429   3.648  24.867  0.00  0.00    +0.201 A 
ATOM     30  C   UNL     1      -1.736   4.325  25.224  0.00  0.00    +0.046 A 
ATOM     31  C   UNL     1      -1.161   4.916  25.187  0.00  0.00    +0.044 A 
ATOM     32  C   UNL     1      -0.500   4.605  24.807  0.00  0.00    +0.180 A 
ATOM     33  O   UNL     1      -0.664   3.821  24.608  0.00  0.00    -0.446 OA
ENDBRANCH  27  29
BRANCH  14  16
ATOM     16  C   UNL     1      -2.379  -2.659  24.545  0.00  0.00    +0.184 C 
ATOM     17  O   UNL     1      -1.563  -2.785  24.566  0.00  0.00    -0.220 OA
ENDBRANCH  14  16
BRANCH   9   8
ATOM      8  C   UNL     1      -4.145   0.554  24.324  0.00  0.00    +0.091 C 
BRANCH   8   6
ATOM      1  C   UNL     1      -5.293   1.722  24.122  0.00  0.00    +0.115 C 
ATOM      2  N   UNL     1      -5.141   1.418  24.874  0.00  0.00    -0.274 N 
ATOM      6  C   UNL     1      -4.567   0.835  24.975  0.00  0.00    +0.226 C 
ATOM      7  O   UNL     1      -4.416   0.532  25.726  0.00  0.00    -0.275 OA
BRANCH   2   3
ATOM      3  C   UNL     1      -5.563   1.699  25.525  0.00  0.00    +0.120 C 
BRANCH   3   4
ATOM      4  C   UNL     1      -5.973   2.413  25.474  0.00  0.00    -0.005 C 
ATOM      5  C   UNL     1      -6.152   2.836  26.160  0.00  0.00    -0.003 C 
ENDBRANCH   3   4
ENDBRANCH   2   3
ENDBRANCH   8   6
ENDBRANCH   9   8
TORSDOF 6
ENDMDL
MODEL 2
REMARK VINA RESULT:     -12.8      1.830      4.026
REMARK  Name = 
REMARK  6 active torsions:
REMARK  status: ('A' for Active; 'I' for Inactive)
REMARK    1  A    between atoms: N_2  and  C_3
REMARK    2  A    between atoms: C_3  and  C_4
REMARK    3  A    between atoms: C_6  and  C_8
REMARK    4  A    between atoms: C_8  and  C_9
REMARK    5  A    between atoms: C_14  and  C_16
REMARK    6  A    between atoms: C_27  and  C_29
REMARK                            x       y       z     vdW  Elec       q    Type
REMARK                         _______ _______ _______ _____ _____    ______ ____
ROOT
ATOM      9  C   UNL     1      -3.759   1.054  24.498  0.00  0.00    +0.050 C 
ATOM     10  C   UNL     1      -2.983   1.332  24.437  0.00  0.00    +0.063 A 
ATOM     11  C   UNL     1      -2.804   2.105  24.659  0.00  0.00    +0.023 A 
ATOM     12  C   UNL     1      -3.398   2.601  24.942  0.00  0.00    +0.034 C 
ATOM     13  C   UNL     1      -4.173   2.324  25.004  0.00  0.00    +0.010 C 
ATOM     14  C   UNL     1      -4.768   2.821  25.287  0.00  0.00    +0.059 C 
ATOM     15  C   UNL     1      -4.122   3.332  25.330  0.00  0.00    +0.005 C 
ATOM     18  C   UNL     1      -5.542   2.543  25.348  0.00  0.00    +0.154 C 
ATOM     19  O   UNL     1      -6.138   3.040  25.632  0.00  0.00    -0.223 OA
ATOM     20  C   UNL     1      -5.722   1.769  25.126  0.00  0.00    +0.033 C 
ATOM     21  C   UNL     1      -5.127   1.273  24.842  0.00  0.00    +0.003 C 
ATOM     22  C   UNL     1      -4.353   1.550  24.781  0.00  0.00    +0.006 C 
ATOM     23  C   UNL     1      -4.532   0.777  24.559  0.00  0.00    +0.000 C 
ATOM     24  S   UNL     1      -1.996   2.224  24.538  0.00  0.00    -0.054 S 
ATOM     25  C   UNL     1      -1.677   1.524  24.242  0.00  0.00    +0.186 A 
ATOM     26  N   UNL     1      -0.886   1.397  24.042  0.00  0.00    -0.148 NA
ATOM     27  C   UNL     1      -0.647   0.664  23.751  0.00  0.00    +0.305 C 
ATOM     28  O   UNL     1      -1.198   0.057  23.657  0.00  0.00    -0.265 OA
ATOM     34  N   UNL     1      -2.287   0.972  24.178  0.00  0.00    -0.227 NA
ENDROOT
BRANCH  27  29
ATOM     29  C   UNL     1       0.144   0.537  23.551  0.00  0.00    +0.201 A 
ATOM     30  C   UNL     1       0.445  -0.120  23.155  0.00  0.00    +0.046 A 
ATOM     31  C   UNL     1       1.259  -0.017  23.072  0.00  0.00    +0.044 A 
ATOM     32  C   UNL     1       1.462   0.703  23.419  0.00  0.00    +0.180 A 
ATOM     33  O   UNL     1       0.773   1.046  23.715  0.00  0.00    -0.446 OA
ENDBRANCH  27  29
BRANCH  14  16
ATOM     16  C   UNL     1      -5.138   3.495  25.585  0.00  0.00    +0.184 C 
ATOM     17  O   UNL     1      -4.714   4.199  25.662  0.00  0.00    -0.220 OA
ENDBRANCH  14  16
BRANCH   9   8
ATOM      8  C   UNL     1      -3.938   0.280  24.275  0.00  0.00    +0.091 C 
BRANCH   8   6
ATOM      1  C   UNL     1      -4.031  -1.276  23.735  0.00  0.00    +0.115 C 
ATOM      2  N   UNL     1      -3.817  -1.123  24.517  0.00  0.00    -0.274 N 
ATOM      6  C   UNL     1      -3.770  -0.345  24.788  0.00  0.00    +0.226 C 
ATOM      7  O   UNL     1      -3.557  -0.192  25.569  0.00  0.00    -0.275 OA
BRANCH   2   3
ATOM      3  C   UNL     1      -3.649  -1.748  25.029  0.00  0.00    +0.120 C 
BRANCH   3   4
ATOM      4  C   UNL     1      -3.564  -2.513  24.732  0.00  0.00    -0.005 C 
ATOM      5  C   UNL     1      -3.258  -3.110  25.212  0.00  0.00    -0.003 C 
ENDBRANCH   3   4
ENDBRANCH   2   3
ENDBRANCH   8   6
ENDBRANCH   9   8
TORSDOF 6
ENDMDL
MODEL 3
REMARK VINA RESULT:     -12.0      1.358      3.196
REMARK  Name = 
REMARK  6 active torsions:
REMARK  status: ('A' for Active; 'I' for Inactive)
REMARK    1  A    between atoms: N_2  and  C_3
REMARK    2  A    between atoms: C_3  and  C_4
REMARK    3  A    between atoms: C_6  and  C_8
REMARK    4  A    between atoms: C_8  and  C_9
REMARK    5  A    between atoms: C_14  and  C_16
REMARK    6  A    between atoms: C_27  and  C_29
REMARK                            x       y       z     vdW  Elec       q    Type
REMARK                         _______ _______ _______ _____ _____    ______ ____
ROOT
ATOM      9  C   UNL     1      -2.562  -0.126  25.002  0.00  0.00    +0.050 C 
ATOM     10  C   UNL     1      -3.295   0.252  24.960  0.00  0.00    +0.063 A 
ATOM     11  C   UNL     1      -3.966  -0.172  24.737  0.00  0.00    +0.023 A 
ATOM     12  C   UNL     1      -3.905  -0.974  24.555  0.00  0.00    +0.034 C 
ATOM     13  C   UNL     1      -3.173  -1.352  24.596  0.00  0.00    +0.010 C 
ATOM     14  C   UNL     1      -3.112  -2.155  24.414  0.00  0.00    +0.059 C 
ATOM     15  C   UNL     1      -3.920  -2.042  24.295  0.00  0.00    +0.005 C 
ATOM     18  C   UNL     1      -2.380  -2.532  24.455  0.00  0.00    +0.154 C 
ATOM     19  O   UNL     1      -2.319  -3.335  24.273  0.00  0.00    -0.223 OA
ATOM     20  C   UNL     1      -1.709  -2.108  24.679  0.00  0.00    +0.033 C 
ATOM     21  C   UNL     1      -1.770  -1.306  24.861  0.00  0.00    +0.003 C 
ATOM     22  C   UNL     1      -2.501  -0.927  24.820  0.00  0.00    +0.006 C 
ATOM     23  C   UNL     1      -1.831  -0.504  25.043  0.00  0.00    +0.000 C 
ATOM     24  S   UNL     1      -4.608   0.346  24.745  0.00  0.00    -0.054 S 
ATOM     25  C   UNL     1      -4.335   1.089  24.973  0.00  0.00    +0.186 A 
ATOM     26  N   UNL     1      -4.792   1.771  25.055  0.00  0.00    -0.148 NA
ATOM     27  C   UNL     1      -4.440   2.478  25.289  0.00  0.00    +0.305 C 
ATOM     28  O   UNL     1      -3.630   2.505  25.442  0.00  0.00    -0.265 OA
ATOM     34  N   UNL     1      -3.522   1.032  25.107  0.00  0.00    -0.227 NA
ENDROOT
BRANCH  27  29
ATOM     29  C   UNL     1      -4.898   3.160  25.371  0.00  0.00    +0.201 A 
ATOM     30  C   UNL     1      -4.685   3.919  25.130  0.00  0.00    +0.046 A 
ATOM     31  C   UNL     1      -5.304   4.430  25.318  0.00  0.00    +0.044 A 
ATOM     32  C   UNL     1      -5.901   3.987  25.675  0.00  0.00    +0.180 A 
ATOM     33  O   UNL     1      -5.650   3.202  25.708  0.00  0.00    -0.446 OA
ENDBRANCH  27  29
BRANCH  14  16
ATOM     16  C   UNL     1      -3.332  -2.917  24.190  0.00  0.00    +0.184 C 
ATOM     17  O   UNL     1      -4.098  -3.063  23.918  0.00  0.00    -0.220 OA
ENDBRANCH  14  16
BRANCH   9   8
ATOM      8  C   UNL     1      -1.891   0.299  25.225  0.00  0.00    +0.091 C 
BRANCH   8   6
ATOM      1  C   UNL     1      -0.747   1.373  25.734  0.00  0.00    +0.115 C 
ATOM      2  N   UNL     1      -0.939   1.323  24.933  0.00  0.00    -0.274 N 
ATOM      6  C   UNL     1      -1.511   0.786  24.678  0.00  0.00    +0.226 C 
ATOM      7  O   UNL     1      -1.702   0.736  23.878  0.00  0.00    -0.275 OA
BRANCH   2   3
ATOM      3  C   UNL     1      -0.558   1.810  24.386  0.00  0.00    +0.120 C 
BRANCH   3   4
ATOM      4  C   UNL     1      -0.140   2.472  24.645  0.00  0.00    -0.005 C 
ATOM      5  C   UNL     1      -0.073   3.135  24.156  0.00  0.00    -0.003 C 
ENDBRANCH   3   4
ENDBRANCH   2   3
ENDBRANCH   8   6
ENDBRANCH   9   8
TORSDOF 6
ENDMDL
MODEL 4
REMARK VINA RESULT:     -11.8      1.028      4.726
REMARK  Name = 
REMARK  6 active torsions:
REMARK  status: ('A' for Active; 'I' for Inactive)
REMARK    1  A    between atoms: N_2  and  C_3
REMARK    2  A    between atoms: C_3  and  C_4
REMARK    3  A    between atoms: C_6  and  C_8
REMARK    4  A    between atoms: C_8  and  C_9
REMARK    5  A    between atoms: C_14  and  C_16
REMARK    6  A    between atoms: C_27  and  C_29
REMARK                            x       y       z     vdW  Elec       q    Type
REMARK                         _______ _______ _______ _____ _____    ______ ____
ROOT
ATOM      9  C   UNL     1      -2.763   2.744  25.305  0.00  0.00    +0.050 C 
ATOM     10  C   UNL     1      -2.394   2.048  25.061  0.00  0.00    +0.063 A 
ATOM     11  C   UNL     1      -1.623   2.071  24.768  0.00  0.00    +0.023 A 
ATOM     12  C   UNL     1      -1.222   2.789  24.719  0.00  0.00    +0.034 C 
ATOM     13  C   UNL     1      -1.591   3.486  24.963  0.00  0.00    +0.010 C 
ATOM     14  C   UNL     1      -1.189   4.205  24.914  0.00  0.00    +0.059 C 
ATOM     15  C   UNL     1      -0.611   3.697  24.617  0.00  0.00    +0.005 C 
ATOM     18  C   UNL     1      -1.559   4.901  25.158  0.00  0.00    +0.154 C 
ATOM     19  O   UNL     1      -1.157   5.621  25.109  0.00  0.00    -0.223 OA
ATOM     20  C   UNL     1      -2.329   4.878  25.451  0.00  0.00    +0.033 C 
ATOM     21  C   UNL     1      -2.731   4.159  25.500  0.00  0.00    +0.003 C 
ATOM     22  C   UNL     1      -2.362   3.463  25.256  0.00  0.00    +0.006 C 
ATOM     23  C   UNL     1      -3.132   3.440  25.549  0.00  0.00    +0.000 C 
ATOM     24  S   UNL     1      -1.403   1.300  24.570  0.00  0.00    -0.054 S 
ATOM     25  C   UNL     1      -2.037   0.802  24.741  0.00  0.00    +0.186 A 
ATOM     26  N   UNL     1      -2.056  -0.015  24.629  0.00  0.00    -0.148 NA
ATOM     27  C   UNL     1      -2.732  -0.444  24.826  0.00  0.00    +0.305 C 
ATOM     28  O   UNL     1      -3.391  -0.055  25.136  0.00  0.00    -0.265 OA
ATOM     34  N   UNL     1      -2.650   1.264  25.045  0.00  0.00    -0.227 NA
ENDROOT
BRANCH  27  29
ATOM     29  C   UNL     1      -2.752  -1.261  24.714  0.00  0.00    +0.201 A 
ATOM     30  C   UNL     1      -3.429  -1.729  24.673  0.00  0.00    +0.046 A 
ATOM     31  C   UNL     1      -3.192  -2.511  24.556  0.00  0.00    +0.044 A 
ATOM     32  C   UNL     1      -2.368  -2.525  24.525  0.00  0.00    +0.180 A 
ATOM     33  O   UNL     1      -2.095  -1.753  24.623  0.00  0.00    -0.446 OA
ENDBRANCH  27  29
BRANCH  14  16
ATOM     16  C   UNL     1      -0.587   4.747  24.762  0.00  0.00    +0.184 C 
ATOM     17  O   UNL     1      -0.018   4.581  24.187  0.00  0.00    -0.220 OA
ENDBRANCH  14  16
BRANCH   9   8
ATOM      8  C   UNL     1      -3.534   2.721  25.598  0.00  0.00    +0.091 C 
BRANCH   8   6
ATOM      1  C   UNL     1      -5.044   2.399  26.181  0.00  0.00    +0.115 C 
ATOM      2  N   UNL     1      -4.925   2.488  25.369  0.00  0.00    -0.274 N 
ATOM      6  C   UNL     1      -4.171   2.649  25.077  0.00  0.00    +0.226 C 
ATOM      7  O   UNL     1      -4.052   2.738  24.267  0.00  0.00    -0.275 OA
BRANCH   2   3
ATOM      3  C   UNL     1      -5.562   2.417  24.849  0.00  0.00    +0.120 C 
BRANCH   3   4
ATOM      4  C   UNL     1      -6.263   2.063  25.102  0.00  0.00    -0.005 C 
ATOM      5  C   UNL     1      -6.768   1.710  24.553  0.00  0.00    -0.003 C 
ENDBRANCH   3   4
ENDBRANCH   2   3
ENDBRANCH   8   6
ENDBRANCH   9   8
TORSDOF 6
ENDMDL
MODEL 5
REMARK VINA RESULT:     -11.7      1.715      5.281
REMARK  Name = 
REMARK  6 active torsions:
REMARK  status: ('A' for Active; 'I' for Inactive)
REMARK    1  A    between atoms: N_2  and  C_3
REMARK    2  A    between atoms: C_3  and  C_4
REMARK    3  A    between atoms: C_6  and  C_8
REMARK    4  A    between atoms: C_8  and  C_9
REMARK    5  A    between atoms: C_14  and  C_16
REMARK    6  A    between atoms: C_27  and  C_29
REMARK                            x       y       z     vdW  Elec       q    Type
REMARK                         _______ _______ _______ _____ _____    ______ ____
ROOT
ATOM      9  C   UNL     1      -3.586   1.986  24.398  0.00  0.00    +0.050 C 
ATOM     10  C   UNL     1      -3.927   1.258  24.585  0.00  0.00    +0.063 A 
ATOM     11  C   UNL     1      -4.638   1.232  25.003  0.00  0.00    +0.023 A 
ATOM     12  C   UNL     1      -5.008   1.931  25.233  0.00  0.00    +0.034 C 
ATOM     13  C   UNL     1      -4.667   2.659  25.046  0.00  0.00    +0.010 C 
ATOM     14  C   UNL     1      -5.037   3.360  25.276  0.00  0.00    +0.059 C 
ATOM     15  C   UNL     1      -5.571   2.810  25.580  0.00  0.00    +0.005 C 
ATOM     18  C   UNL     1      -4.695   4.087  25.088  0.00  0.00    +0.154 C 
ATOM     19  O   UNL     1      -5.066   4.788  25.318  0.00  0.00    -0.223 OA
ATOM     20  C   UNL     1      -3.985   4.114  24.670  0.00  0.00    +0.033 C 
ATOM     21  C   UNL     1      -3.615   3.413  24.440  0.00  0.00    +0.003 C 
ATOM     22  C   UNL     1      -3.956   2.686  24.627  0.00  0.00    +0.006 C 
ATOM     23  C   UNL     1      -3.245   2.713  24.210  0.00  0.00    +0.000 C 
ATOM     24  S   UNL     1      -4.841   0.438  25.108  0.00  0.00    -0.054 S 
ATOM     25  C   UNL     1      -4.257  -0.024  24.756  0.00  0.00    +0.186 A 
ATOM     26  N   UNL     1      -4.240  -0.849  24.732  0.00  0.00    -0.148 NA
ATOM     27  C   UNL     1      -3.617  -1.238  24.358  0.00  0.00    +0.305 C 
ATOM     28  O   UNL     1      -3.009  -0.802  24.008  0.00  0.00    -0.265 OA
ATOM     34  N   UNL     1      -3.691   0.482  24.433  0.00  0.00    -0.227 NA
ENDROOT
BRANCH  27  29
ATOM     29  C   UNL     1      -3.599  -2.062  24.333  0.00  0.00    +0.201 A 
ATOM     30  C   UNL     1      -3.129  -2.552  24.800  0.00  0.00    +0.046 A 
ATOM     31  C   UNL     1      -3.289  -3.334  24.592  0.00  0.00    +0.044 A 
ATOM     32  C   UNL     1      -3.858  -3.328  23.995  0.00  0.00    +0.180 A 
ATOM     33  O   UNL     1      -4.051  -2.542  23.835  0.00  0.00    -0.446 OA
ENDBRANCH  27  29
BRANCH  14  16
ATOM     16  C   UNL     1      -5.592   3.869  25.611  0.00  0.00    +0.184 C 
ATOM     17  O   UNL     1      -6.229   3.562  26.038  0.00  0.00    -0.220 OA
ENDBRANCH  14  16
BRANCH   9   8
ATOM      8  C   UNL     1      -2.875   2.012  23.980  0.00  0.00    +0.091 C 
BRANCH   8   6
ATOM      1  C   UNL     1      -1.475   1.817  23.129  0.00  0.00    +0.115 C 
ATOM      2  N   UNL     1      -1.459   1.822  23.953  0.00  0.00    -0.274 N 
ATOM      6  C   UNL     1      -2.159   1.919  24.380  0.00  0.00    +0.226 C 
ATOM      7  O   UNL     1      -2.143   1.924  25.203  0.00  0.00    -0.275 OA
BRANCH   2   3
ATOM      3  C   UNL     1      -0.743   1.729  24.353  0.00  0.00    +0.120 C 
BRANCH   3   4
ATOM      4  C   UNL     1      -0.061   1.530  23.934  0.00  0.00    -0.005 C 
ATOM      5  C   UNL     1       0.675   1.559  24.308  0.00  0.00    -0.003 C 
ENDBRANCH   3   4
ENDBRANCH   2   3
ENDBRANCH   8   6
ENDBRANCH   9   8
TORSDOF 6
ENDMDL
MODEL 6
REMARK VINA RESULT:     -11.4      1.666      5.438
REMARK  Name = 
REMARK  6 active torsions:
REMARK  status: ('A' for Active; 'I' for Inactive)
REMARK    1  A    between atoms: N_2  and  C_3
REMARK    2  A    between atoms: C_3  and  C_4
REMARK    3  A    between atoms: C_6  and  C_8
REMARK    4  A    between atoms: C_8  and  C_9
REMARK    5  A    between atoms: C_14  and  C_16
REMARK    6  A    between atoms: C_27  and  C_29
REMARK                            x       y       z     vdW  Elec       q    Type
REMARK                         _______ _______ _______ _____ _____    ______ ____
ROOT
ATOM      9  C   UNL     1      -2.265   1.740  25.028  0.00  0.00    +0.050 C 
ATOM     10  C   UNL     1      -2.897   1.228  24.887  0.00  0.00    +0.063 A 
ATOM     11  C   UNL     1      -3.670   1.514  24.902  0.00  0.00    +0.023 A 
ATOM     12  C   UNL     1      -3.812   2.311  25.059  0.00  0.00    +0.034 C 
ATOM     13  C   UNL     1      -3.181   2.823  25.201  0.00  0.00    +0.010 C 
ATOM     14  C   UNL     1      -3.323   3.620  25.358  0.00  0.00    +0.059 C 
ATOM     15  C   UNL     1      -4.097   3.353  25.259  0.00  0.00    +0.005 C 
ATOM     18  C   UNL     1      -2.691   4.131  25.499  0.00  0.00    +0.154 C 
ATOM     19  O   UNL     1      -2.833   4.929  25.656  0.00  0.00    -0.223 OA
ATOM     20  C   UNL     1      -1.917   3.846  25.484  0.00  0.00    +0.033 C 
ATOM     21  C   UNL     1      -1.775   3.048  25.327  0.00  0.00    +0.003 C 
ATOM     22  C   UNL     1      -2.406   2.536  25.185  0.00  0.00    +0.006 C 
ATOM     23  C   UNL     1      -1.633   2.251  25.170  0.00  0.00    +0.000 C 
ATOM     24  S   UNL     1      -4.178   0.883  24.743  0.00  0.00    -0.054 S 
ATOM     25  C   UNL     1      -3.718   0.208  24.629  0.00  0.00    +0.186 A 
ATOM     26  N   UNL     1      -4.000  -0.548  24.457  0.00  0.00    -0.148 NA
ATOM     27  C   UNL     1      -3.472  -1.173  24.357  0.00  0.00    +0.305 C 
ATOM     28  O   UNL     1      -2.661  -1.043  24.430  0.00  0.00    -0.265 OA
ATOM     34  N   UNL     1      -2.926   0.421  24.718  0.00  0.00    -0.227 NA
ENDROOT
BRANCH  27  29
ATOM     29  C   UNL     1      -3.754  -1.929  24.185  0.00  0.00    +0.201 A 
ATOM     30  C   UNL     1      -3.496  -2.633  24.527  0.00  0.00    +0.046 A 
ATOM     31  C   UNL     1      -3.927  -3.252  24.193  0.00  0.00    +0.044 A 
ATOM     32  C   UNL     1      -4.452  -2.931  23.644  0.00  0.00    +0.180 A 
ATOM     33  O   UNL     1      -4.346  -2.113  23.639  0.00  0.00    -0.446 OA
ENDBRANCH  27  29
BRANCH  14  16
ATOM     16  C   UNL     1      -3.734   4.324  25.480  0.00  0.00    +0.184 C 
ATOM     17  O   UNL     1      -4.559   4.323  25.499  0.00  0.00    -0.220 OA
ENDBRANCH  14  16
BRANCH   9   8
ATOM      8  C   UNL     1      -1.491   1.454  25.013  0.00  0.00    +0.091 C 
BRANCH   8   6
ATOM      1  C   UNL     1      -0.115   0.544  24.955  0.00  0.00    +0.115 C 
ATOM      2  N   UNL     1      -0.429   0.862  24.261  0.00  0.00    -0.274 N 
ATOM      6  C   UNL     1      -1.117   1.316  24.289  0.00  0.00    +0.226 C 
ATOM      7  O   UNL     1      -1.430   1.634  23.596  0.00  0.00    -0.275 OA
BRANCH   2   3
ATOM      3  C   UNL     1      -0.055   0.725  23.538  0.00  0.00    +0.120 C 
BRANCH   3   4
ATOM      4  C   UNL     1       0.509   0.127  23.473  0.00  0.00    -0.005 C 
ATOM      5  C   UNL     1       0.913   0.017  22.762  0.00  0.00    -0.003 C 
ENDBRANCH   3   4
ENDBRANCH   2   3
ENDBRANCH   8   6
ENDBRANCH   9   8
TORSDOF 6
ENDMDL
MODEL 7
REMARK VINA RESULT:     -11.1      1.921      4.337
REMARK  Name = 
REMARK  6 active torsions:
REMARK  status: ('A' for Active; 'I' for Inactive)
REMARK    1  A    between atoms: N_2  and  C_3
REMARK    2  A    between atoms: C_3  and  C_4
REMARK    3  A    between atoms: C_6  and  C_8
REMARK    4  A    between atoms: C_8  and  C_9
REMARK    5  A    between atoms: C_14  and  C_16
REMARK    6  A    between atoms: C_27  and  C_29
REMARK                            x       y       z     vdW  Elec       q    Type
REMARK                         _______ _______ _______ _____ _____    ______ ____
ROOT
ATOM      9  C   UNL     1      -3.352   2.484  25.222  0.00  0.00    +0.050 C 
ATOM     10  C   UNL     1      -3.059   1.815  24.835  0.00  0.00    +0.063 A 
ATOM     11  C   UNL     1      -3.581   1.251  24.536  0.00  0.00    +0.023 A 
ATOM     12  C   UNL     1      -4.394   1.353  24.623  0.00  0.00    +0.034 C 
ATOM     13  C   UNL     1      -4.687   2.020  25.009  0.00  0.00    +0.010 C 
ATOM     14  C   UNL     1      -5.501   2.123  25.095  0.00  0.00    +0.059 C 
ATOM     15  C   UNL     1      -5.490   1.404  24.691  0.00  0.00    +0.005 C 
ATOM     18  C   UNL     1      -5.793   2.791  25.482  0.00  0.00    +0.154 C 
ATOM     19  O   UNL     1      -6.608   2.894  25.569  0.00  0.00    -0.223 OA
ATOM     20  C   UNL     1      -5.273   3.356  25.781  0.00  0.00    +0.033 C 
ATOM     21  C   UNL     1      -4.459   3.253  25.694  0.00  0.00    +0.003 C 
ATOM     22  C   UNL     1      -4.165   2.586  25.308  0.00  0.00    +0.006 C 
ATOM     23  C   UNL     1      -3.645   3.151  25.607  0.00  0.00    +0.000 C 
ATOM     24  S   UNL     1      -3.133   0.653  24.184  0.00  0.00    -0.054 S 
ATOM     25  C   UNL     1      -2.336   0.848  24.266  0.00  0.00    +0.186 A 
ATOM     26  N   UNL     1      -1.697   0.404  23.993  0.00  0.00    -0.148 NA
ATOM     27  C   UNL     1      -0.926   0.671  24.116  0.00  0.00    +0.305 C 
ATOM     28  O   UNL     1      -0.795   1.383  24.511  0.00  0.00    -0.265 OA
ATOM     34  N   UNL     1      -2.290   1.567  24.669  0.00  0.00    -0.227 NA
ENDROOT
BRANCH  27  29
ATOM     29  C   UNL     1      -0.287   0.226  23.843  0.00  0.00    +0.201 A 
ATOM     30  C   UNL     1       0.284   0.478  23.304  0.00  0.00    +0.046 A 
ATOM     31  C   UNL     1       0.817  -0.141  23.190  0.00  0.00    +0.044 A 
ATOM     32  C   UNL     1       0.576  -0.775  23.658  0.00  0.00    +0.180 A 
ATOM     33  O   UNL     1      -0.107  -0.549  24.062  0.00  0.00    -0.446 OA
ENDBRANCH  27  29
BRANCH  14  16
ATOM     16  C   UNL     1      -6.311   1.976  25.042  0.00  0.00    +0.184 C 
ATOM     17  O   UNL     1      -6.583   1.307  24.641  0.00  0.00    -0.220 OA
ENDBRANCH  14  16
BRANCH   9   8
ATOM      8  C   UNL     1      -2.831   3.048  25.521  0.00  0.00    +0.091 C 
BRANCH   8   6
ATOM      1  C   UNL     1      -1.572   3.984  26.032  0.00  0.00    +0.115 C 
ATOM      2  N   UNL     1      -1.883   4.089  25.275  0.00  0.00    -0.274 N 
ATOM      6  C   UNL     1      -2.512   3.622  25.019  0.00  0.00    +0.226 C 
ATOM      7  O   UNL     1      -2.824   3.727  24.263  0.00  0.00    -0.275 OA
BRANCH   2   3
ATOM      3  C   UNL     1      -1.565   4.663  24.774  0.00  0.00    +0.120 C 
BRANCH   3   4
ATOM      4  C   UNL     1      -0.849   5.026  24.965  0.00  0.00    -0.005 C 
ATOM      5  C   UNL     1      -0.617   5.713  24.570  0.00  0.00    -0.003 C 
ENDBRANCH   3   4
ENDBRANCH   2   3
ENDBRANCH   8   6
ENDBRANCH   9   8
TORSDOF 6
ENDMDL
MODEL 8
REMARK VINA RESULT:     -10.9      1.673      3.377
REMARK  Name = 
REMARK  6 active torsions:
REMARK  status: ('A' for Active; 'I' for Inactive)
REMARK    1  A    between atoms: N_2  and  C_3
REMARK    2  A    between atoms: C_3  and  C_4
REMARK    3  A    between atoms: C_6  and  C_8
REMARK    4  A    between atoms: C_8  and  C_9
REMARK    5  A    between atoms: C_14  and  C_16
REMARK    6  A    between atoms: C_27  and  C_29
REMARK                            x       y       z     vdW  Elec       q    Type
REMARK                         _______ _______ _______ _____ _____    ______ ____
ROOT
ATOM      9  C   UNL     1      -1.751  -0.269  24.567  0.00  0.00    +0.050 C 
ATOM     10  C   UNL     1      -2.107   0.470  24.663  0.00  0.00    +0.063 A 
ATOM     11  C   UNL     1      -2.929   0.530  24.693  0.00  0.00    +0.023 A 
ATOM     12  C   UNL     1      -3.395  -0.147  24.627  0.00  0.00    +0.034 C 
ATOM     13  C   UNL     1      -3.040  -0.885  24.531  0.00  0.00    +0.010 C 
ATOM     14  C   UNL     1      -3.506  -1.562  24.466  0.00  0.00    +0.059 C 
ATOM     15  C   UNL     1      -4.095  -0.991  24.549  0.00  0.00    +0.005 C 
ATOM     18  C   UNL     1      -3.150  -2.300  24.370  0.00  0.00    +0.154 C 
ATOM     19  O   UNL     1      -3.617  -2.978  24.304  0.00  0.00    -0.223 OA
ATOM     20  C   UNL     1      -2.328  -2.361  24.340  0.00  0.00    +0.033 C 
ATOM     21  C   UNL     1      -1.862  -1.684  24.405  0.00  0.00    +0.003 C 
ATOM     22  C   UNL     1      -2.217  -0.946  24.501  0.00  0.00    +0.006 C 
ATOM     23  C   UNL     1      -1.395  -1.007  24.471  0.00  0.00    +0.000 C 
ATOM     24  S   UNL     1      -3.121   1.327  24.791  0.00  0.00    -0.054 S 
ATOM     25  C   UNL     1      -2.420   1.757  24.821  0.00  0.00    +0.186 A 
ATOM     26  N   UNL     1      -2.355   2.575  24.915  0.00  0.00    -0.148 NA
ATOM     27  C   UNL     1      -1.612   2.931  24.935  0.00  0.00    +0.305 C 
ATOM     28  O   UNL     1      -0.931   2.469  24.862  0.00  0.00    -0.265 OA
ATOM     34  N   UNL     1      -1.791   1.228  24.742  0.00  0.00    -0.227 NA
ENDROOT
BRANCH  27  29
ATOM     29  C   UNL     1      -1.547   3.748  25.028  0.00  0.00    +0.201 A 
ATOM     30  C   UNL     1      -0.895   4.209  24.826  0.00  0.00    +0.046 A 
ATOM     31  C   UNL     1      -1.069   4.993  25.013  0.00  0.00    +0.044 A 
ATOM     32  C   UNL     1      -1.829   5.017  25.331  0.00  0.00    +0.180 A 
ATOM     33  O   UNL     1      -2.125   4.247  25.341  0.00  0.00    -0.446 OA
ENDBRANCH  27  29
BRANCH  14  16
ATOM     16  C   UNL     1      -4.177  -2.041  24.429  0.00  0.00    +0.184 C 
ATOM     17  O   UNL     1      -4.854  -1.772  24.041  0.00  0.00    -0.220 OA
ENDBRANCH  14  16
BRANCH   9   8
ATOM      8  C   UNL     1      -0.929  -0.330  24.536  0.00  0.00    +0.091 C 
BRANCH   8   6
ATOM      1  C   UNL     1       0.719  -0.398  24.488  0.00  0.00    +0.115 C 
ATOM      2  N   UNL     1       0.294  -0.204  23.808  0.00  0.00    -0.274 N 
ATOM      6  C   UNL     1      -0.530  -0.170  23.832  0.00  0.00    +0.226 C 
ATOM      7  O   UNL     1      -0.954   0.024  23.152  0.00  0.00    -0.275 OA
BRANCH   2   3
ATOM      3  C   UNL     1       0.694  -0.044  23.103  0.00  0.00    +0.120 C 
BRANCH   3   4
ATOM      4  C   UNL     1       1.518  -0.022  23.093  0.00  0.00    -0.005 C 
ATOM      5  C   UNL     1       1.921  -0.009  22.373  0.00  0.00    -0.003 C 
ENDBRANCH   3   4
ENDBRANCH   2   3
ENDBRANCH   8   6
ENDBRANCH   9   8
TORSDOF 6
ENDMDL
MODEL 9
REMARK VINA RESULT:     -10.6      2.435      3.490
REMARK  Name = 
REMARK  6 active torsions:
REMARK  status: ('A' for Active; 'I' for Inactive)
REMARK    1  A    between atoms: N_2  and  C_3
REMARK    2  A    between atoms: C_3  and  C_4
REMARK    3  A    between atoms: C_6  and  C_8
REMARK    4  A    between atoms: C_8  and  C_9
REMARK    5  A    between atoms: C_14  and  C_16
REMARK    6  A    between atoms: C_27  and  C_29
REMARK                            x       y       z     vdW  Elec       q    Type
REMARK                         _______ _______ _______ _____ _____    ______ ____
ROOT
ATOM      9  C   UNL     1      -1.821   0.465  24.337  0.00  0.00    +0.050 C 
ATOM     10  C   UNL     1      -1.117   0.066  24.169  0.00  0.00    +0.063 A 
ATOM     11  C   UNL     1      -1.048  -0.738  24.343  0.00  0.00    +0.023 A 
ATOM     12  C   UNL     1      -1.680  -1.142  24.684  0.00  0.00    +0.034 C 
ATOM     13  C   UNL     1      -2.382  -0.744  24.852  0.00  0.00    +0.010 C 
ATOM     14  C   UNL     1      -3.015  -1.149  25.194  0.00  0.00    +0.059 C 
ATOM     15  C   UNL     1      -2.466  -1.762  25.138  0.00  0.00    +0.005 C 
ATOM     18  C   UNL     1      -3.717  -0.749  25.362  0.00  0.00    +0.154 C 
ATOM     19  O   UNL     1      -4.350  -1.155  25.704  0.00  0.00    -0.223 OA
ATOM     20  C   UNL     1      -3.787   0.053  25.188  0.00  0.00    +0.033 C 
ATOM     21  C   UNL     1      -3.155   0.458  24.846  0.00  0.00    +0.003 C 
ATOM     22  C   UNL     1      -2.452   0.060  24.678  0.00  0.00    +0.006 C 
ATOM     23  C   UNL     1      -2.522   0.863  24.504  0.00  0.00    +0.000 C 
ATOM     24  S   UNL     1      -0.293  -0.982  24.116  0.00  0.00    -0.054 S 
ATOM     25  C   UNL     1       0.103  -0.331  23.803  0.00  0.00    +0.186 A 
ATOM     26  N   UNL     1       0.874  -0.326  23.508  0.00  0.00    -0.148 NA
ATOM     27  C   UNL     1       1.199   0.370  23.211  0.00  0.00    +0.305 C 
ATOM     28  O   UNL     1       0.753   1.064  23.207  0.00  0.00    -0.265 OA
ATOM     34  N   UNL     1      -0.406   0.318  23.835  0.00  0.00    -0.227 NA
ENDROOT
BRANCH  27  29
ATOM     29  C   UNL     1       1.970   0.375  22.916  0.00  0.00    +0.201 A 
ATOM     30  C   UNL     1       2.593   0.836  23.195  0.00  0.00    +0.046 A 
ATOM     31  C   UNL     1       3.261   0.664  22.742  0.00  0.00    +0.044 A 
ATOM     32  C   UNL     1       3.050   0.096  22.183  0.00  0.00    +0.180 A 
ATOM     33  O   UNL     1       2.252  -0.083  22.290  0.00  0.00    -0.446 OA
ENDBRANCH  27  29
BRANCH  14  16
ATOM     16  C   UNL     1      -3.456  -1.766  25.516  0.00  0.00    +0.184 C 
ATOM     17  O   UNL     1      -3.269  -2.548  25.330  0.00  0.00    -0.220 OA
ENDBRANCH  14  16
BRANCH   9   8
ATOM      8  C   UNL     1      -1.890   1.268  24.163  0.00  0.00    +0.091 C 
BRANCH   8   6
ATOM      1  C   UNL     1      -1.821   2.855  23.716  0.00  0.00    +0.115 C 
ATOM      2  N   UNL     1      -1.550   2.623  24.460  0.00  0.00    -0.274 N 
ATOM      6  C   UNL     1      -1.584   1.830  24.684  0.00  0.00    +0.226 C 
ATOM      7  O   UNL     1      -1.314   1.600  25.427  0.00  0.00    -0.275 OA
BRANCH   2   3
ATOM      3  C   UNL     1      -1.244   3.186  24.981  0.00  0.00    +0.120 C 
BRANCH   3   4
ATOM      4  C   UNL     1      -1.111   3.958  24.722  0.00  0.00    -0.005 C 
ATOM      5  C   UNL     1      -1.012   4.566  25.272  0.00  0.00    -0.003 C 
ENDBRANCH   3   4
ENDBRANCH   2   3
ENDBRANCH   8   6
ENDBRANCH   9   8
TORSDOF 6
ENDMDL
MODEL 10
REMARK VINA RESULT:     -10.1      1.738      3.609
REMARK  Name = 
REMARK  6 active torsions:
REMARK  status: ('A' for Active; 'I' for Inactive)
REMARK    1  A    between atoms: N_2  and  C_3
REMARK    2  A    between atoms: C_3  and  C_4
REMARK    3  A    between atoms: C_6  and  C_8
REMARK    4  A    between atoms: C_8  and  C_9
REMARK    5  A    between atoms: C_14  and  C_16
REMARK    6  A    between atoms: C_27  and  C_29
REMARK                            x       y       z     vdW  Elec       q    Type
REMARK                         _______ _______ _______ _____ _____    ______ ____
ROOT
ATOM      9  C   UNL     1      -1.849   0.319  24.655  0.00  0.00    +0.050 C 
ATOM     10  C   UNL     1      -2.154   1.087  24.670  0.00  0.00    +0.063 A 
ATOM     11  C   UNL     1      -1.686   1.720  24.424  0.00  0.00    +0.023 A 
ATOM     12  C   UNL     1      -0.916   1.587  24.163  0.00  0.00    +0.034 C 
ATOM     13  C   UNL     1      -0.612   0.821  24.147  0.00  0.00    +0.010 C 
ATOM     14  C   UNL     1       0.160   0.688  23.886  0.00  0.00    +0.059 C 
ATOM     15  C   UNL     1       0.119   1.507  23.800  0.00  0.00    +0.005 C 
ATOM     18  C   UNL     1       0.463  -0.079  23.871  0.00  0.00    +0.154 C 
ATOM     19  O   UNL     1       1.235  -0.212  23.609  0.00  0.00    -0.223 OA
ATOM     20  C   UNL     1      -0.003  -0.713  24.117  0.00  0.00    +0.033 C 
ATOM     21  C   UNL     1      -0.774  -0.580  24.378  0.00  0.00    +0.003 C 
ATOM     22  C   UNL     1      -1.079   0.187  24.394  0.00  0.00    +0.006 C 
ATOM     23  C   UNL     1      -1.546  -0.447  24.640  0.00  0.00    +0.000 C 
ATOM     24  S   UNL     1      -2.133   2.410  24.500  0.00  0.00    -0.054 S 
ATOM     25  C   UNL     1      -2.875   2.203  24.793  0.00  0.00    +0.186 A 
ATOM     26  N   UNL     1      -3.497   2.722  24.953  0.00  0.00    -0.148 NA
ATOM     27  C   UNL     1      -4.211   2.433  25.246  0.00  0.00    +0.305 C 
ATOM     28  O   UNL     1      -4.305   1.624  25.379  0.00  0.00    -0.265 OA
ATOM     34  N   UNL     1      -2.889   1.384  24.898  0.00  0.00    -0.227 NA
ENDROOT
BRANCH  27  29
ATOM     29  C   UNL     1      -4.832   2.952  25.406  0.00  0.00    +0.201 A 
ATOM     30  C   UNL     1      -5.581   2.742  25.680  0.00  0.00    +0.046 A 
ATOM     31  C   UNL     1      -6.025   3.433  25.763  0.00  0.00    +0.044 A 
ATOM     32  C   UNL     1      -5.550   4.069  25.540  0.00  0.00    +0.180 A 
ATOM     33  O   UNL     1      -4.813   3.772  25.319  0.00  0.00    -0.446 OA
ENDBRANCH  27  29
BRANCH  14  16
ATOM     16  C   UNL     1       0.916   0.840  23.595  0.00  0.00    +0.184 C 
ATOM     17  O   UNL     1       1.287   1.557  23.765  0.00  0.00    -0.220 OA
ENDBRANCH  14  16
BRANCH   9   8
ATOM      8  C   UNL     1      -2.317  -0.314  24.901  0.00  0.00    +0.091 C 
BRANCH   8   6
ATOM      1  C   UNL     1      -3.334  -1.502  25.427  0.00  0.00    +0.115 C 
ATOM      2  N   UNL     1      -3.368  -1.247  24.643  0.00  0.00    -0.274 N 
ATOM      6  C   UNL     1      -2.860  -0.653  24.380  0.00  0.00    +0.226 C 
ATOM      7  O   UNL     1      -2.894  -0.397  23.597  0.00  0.00    -0.275 OA
BRANCH   2   3
ATOM      3  C   UNL     1      -3.912  -1.585  24.121  0.00  0.00    +0.120 C 
BRANCH   3   4
ATOM      4  C   UNL     1      -4.158  -2.364  24.232  0.00  0.00    -0.005 C 
ATOM      5  C   UNL     1      -4.576  -2.753  23.636  0.00  0.00    -0.003 C 
ENDBRANCH   3   4
ENDBRANCH   2   3
ENDBRANCH   8   6
ENDBRANCH   9   8
TORSDOF 6
ENDMDL
