REMARK  Name = 
REMARK  10 active torsions:
REMARK  status: ('A' for Active; 'I' for Inactive)
REMARK    1  A    between atoms: O_2  and  C_3
REMARK    2  A    between atoms: C_6  and  S_9
REMARK    3  A    between atoms: S_9  and  N_12
REMARK    4  A    between atoms: C_15  and  N_32
REMARK    5  A    between atoms: C_17  and  C_18
REMARK    6  A    between atoms: N_20  and  C_21
REMARK    7  A    between atoms: C_21  and  C_22
REMARK    8  A    between atoms: C_21  and  C_29
REMARK    9  A    between atoms: C_22  and  C_23
REMARK   10  A    between atoms: C_33  and  C_35
REMARK                            x       y       z     vdW  Elec       q    Type
REMARK                         _______ _______ _______ _____ _____    ______ ____
ROOT
ATOM     12  N   UNL     1       1.429  -9.075   0.000  0.00  0.00    -0.148 NA
ATOM     13  C   UNL     1       2.143  -9.488   0.000  0.00  0.00    +0.098 C 
ATOM     14  C   UNL     1       2.143 -10.312   0.000  0.00  0.00    +0.041 C 
ATOM     15  C   UNL     1       1.429 -10.725   0.000  0.00  0.00    +0.099 C 
ATOM     16  C   UNL     1       0.715 -10.312   0.000  0.00  0.00    +0.049 C 
ATOM     17  C   UNL     1       0.715  -9.488   0.000  0.00  0.00    +0.159 C 
ENDROOT
BRANCH  12   9
ATOM      9  S   UNL     1       1.429  -8.250   0.000  0.00  0.00    +0.064 S 
ATOM     10  O   UNL     1       0.604  -8.250   0.000  0.00  0.00    -0.153 OA
ATOM     11  O   UNL     1       2.254  -8.250   0.000  0.00  0.00    -0.153 OA
BRANCH   9   6
ATOM      3  C   UNL     1       1.429  -5.775   0.000  0.00  0.00    +0.139 A 
ATOM      4  C   UNL     1       2.143  -6.188   0.000  0.00  0.00    +0.038 A 
ATOM      5  C   UNL     1       2.143  -7.013   0.000  0.00  0.00    +0.023 A 
ATOM      6  C   UNL     1       1.429  -7.425   0.000  0.00  0.00    +0.122 A 
ATOM      7  C   UNL     1       0.715  -7.013   0.000  0.00  0.00    +0.023 A 
ATOM      8  C   UNL     1       0.715  -6.188   0.000  0.00  0.00    +0.038 A 
BRANCH   3   2
ATOM      1  C   UNL     1       0.715  -4.537   0.000  0.00  0.00    +0.252 C 
ATOM      2  O   UNL     1       1.429  -4.950   0.000  0.00  0.00    -0.471 OA
ENDBRANCH   3   2
ENDBRANCH   9   6
ENDBRANCH  12   9
BRANCH  17  18
ATOM     18  C   UNL     1       0.000  -9.075   0.000  0.00  0.00    +0.258 C 
ATOM     19  O   UNL     1       0.000  -8.250   0.000  0.00  0.00    -0.272 OA
ATOM     20  N   UNL     1      -0.715  -9.488   0.000  0.00  0.00    -0.197 NA
BRANCH  20  21
ATOM     21  C   UNL     1      -1.429  -9.075   0.000  0.00  0.00    +0.174 C 
BRANCH  21  29
ATOM     29  C   UNL     1      -1.429  -8.250   0.000  0.00  0.00    +0.281 C 
ATOM     30  N   UNL     1      -2.143  -7.838   0.000  0.00  0.00    -0.086 NA
ATOM     31  O   UNL     1      -0.715  -7.838   0.000  0.00  0.00    -0.270 OA
ENDBRANCH  21  29
BRANCH  21  22
ATOM     22  C   UNL     1      -2.143  -9.488   0.000  0.00  0.00    +0.031 C 
BRANCH  22  23
ATOM     23  C   UNL     1      -2.143 -10.312   0.000  0.00  0.00    +0.002 C 
ATOM     24  C   UNL     1      -1.429 -10.725   0.000  0.00  0.00    +0.000 C 
ATOM     25  C   UNL     1      -1.429 -11.550   0.000  0.00  0.00    +0.000 C 
ATOM     26  C   UNL     1      -2.143 -11.963   0.000  0.00  0.00    +0.000 C 
ATOM     27  C   UNL     1      -2.858 -11.550   0.000  0.00  0.00    +0.000 C 
ATOM     28  C   UNL     1      -2.858 -10.725   0.000  0.00  0.00    +0.000 C 
ENDBRANCH  22  23
ENDBRANCH  21  22
ENDBRANCH  20  21
ENDBRANCH  17  18
BRANCH  15  32
ATOM     32  N   UNL     1       1.429 -11.550   0.000  0.00  0.00    -0.203 NA
ATOM     33  C   UNL     1       2.143 -11.963   0.000  0.00  0.00    +0.265 C 
ATOM     34  O   UNL     1       2.858 -11.550   0.000  0.00  0.00    -0.268 OA
BRANCH  33  35
ATOM     35  C   UNL     1       2.143 -12.787   0.000  0.00  0.00    +0.058 A 
ATOM     36  C   UNL     1       2.858 -13.200   0.000  0.00  0.00    +0.025 A 
ATOM     37  C   UNL     1       2.858 -14.025   0.000  0.00  0.00    +0.099 A 
ATOM     38  N   UNL     1       2.143 -14.438   0.000  0.00  0.00    -0.242 NA
ATOM     39  C   UNL     1       1.429 -14.025   0.000  0.00  0.00    +0.099 A 
ATOM     40  C   UNL     1       1.429 -13.200   0.000  0.00  0.00    +0.025 A 
ENDBRANCH  33  35
ENDBRANCH  15  32
TORSDOF 10
