MODEL 1
REMARK VINA RESULT:     -11.3      0.000      0.000
REMARK  Name = 
REMARK  6 active torsions:
REMARK  status: ('A' for Active; 'I' for Inactive)
REMARK    1  A    between atoms: C_4  and  C_5
REMARK    2  A    between atoms: N_7  and  C_8
REMARK    3  A    between atoms: C_11  and  C_14
REMARK    4  A    between atoms: N_19  and  C_20
REMARK    5  A    between atoms: C_20  and  C_21
REMARK    6  A    between atoms: C_27  and  C_28
REMARK                            x       y       z     vdW  Elec       q    Type
REMARK                         _______ _______ _______ _____ _____    ______ ____
ROOT
ATOM      8  C   UNL     1      -1.098   1.978  24.892  0.00  0.00    +0.074 A 
ATOM      9  C   UNL     1      -1.422   1.624  24.221  0.00  0.00    +0.016 A 
ATOM     10  C   UNL     1      -1.500   0.803  24.184  0.00  0.00    -0.001 A 
ATOM     11  C   UNL     1      -1.254   0.336  24.818  0.00  0.00    +0.006 A 
ATOM     12  C   UNL     1      -0.929   0.691  25.489  0.00  0.00    -0.001 A 
ATOM     13  C   UNL     1      -0.851   1.511  25.526  0.00  0.00    +0.016 A 
ENDROOT
BRANCH  11  14
ATOM     14  C   UNL     1      -1.331  -0.484  24.781  0.00  0.00    +0.159 C 
ATOM     15  O   UNL     1      -0.711  -0.945  24.495  0.00  0.00    -0.341 OA
ATOM     16  C   UNL     1      -0.789  -1.766  24.458  0.00  0.00    +0.227 C 
ATOM     17  C   UNL     1      -1.488  -2.124  24.708  0.00  0.00    +0.256 C 
ATOM     18  O   UNL     1      -1.567  -2.945  24.671  0.00  0.00    -0.272 OA
ATOM     19  N   UNL     1      -2.109  -1.663  24.994  0.00  0.00    -0.270 N 
ATOM     27  C   UNL     1      -2.031  -0.843  25.031  0.00  0.00    +0.140 C 
BRANCH  27  28
ATOM     28  C   UNL     1      -2.652  -0.382  25.317  0.00  0.00    +0.205 C 
ATOM     29  O   UNL     1      -2.860  -0.418  26.114  0.00  0.00    -0.218 OA
ENDBRANCH  27  28
BRANCH  19  20
ATOM     20  C   UNL     1      -2.809  -2.023  25.243  0.00  0.00    +0.120 C 
BRANCH  20  21
ATOM     21  C   UNL     1      -3.369  -2.265  24.688  0.00  0.00    -0.002 A 
ATOM     22  C   UNL     1      -3.442  -3.065  24.498  0.00  0.00    -0.003 A 
ATOM     23  C   UNL     1      -4.001  -3.308  23.943  0.00  0.00    -0.000 A 
ATOM     24  C   UNL     1      -4.488  -2.751  23.578  0.00  0.00    -0.000 A 
ATOM     25  C   UNL     1      -4.416  -1.952  23.768  0.00  0.00    -0.000 A 
ATOM     26  C   UNL     1      -3.856  -1.709  24.323  0.00  0.00    -0.003 A 
ENDBRANCH  20  21
ENDBRANCH  19  20
ENDBRANCH  11  14
BRANCH   8   7
ATOM      5  C   UNL     1      -1.669   3.266  25.131  0.00  0.00    +0.272 C 
ATOM      6  O   UNL     1      -2.396   2.912  25.297  0.00  0.00    -0.268 OA
ATOM      7  N   UNL     1      -1.020   2.798  24.929  0.00  0.00    -0.175 NA
BRANCH   5   4
ATOM      1  C   UNL     1      -0.669   5.965  24.747  0.00  0.00    +0.072 C 
ATOM      2  C   UNL     1      -1.131   5.327  24.991  0.00  0.00    +0.123 A 
ATOM      3  C   UNL     1      -0.996   4.533  24.812  0.00  0.00    +0.040 A 
ATOM      4  C   UNL     1      -1.591   4.087  25.168  0.00  0.00    +0.088 A 
ATOM     30  C   UNL     1      -2.094   4.604  25.568  0.00  0.00    +0.127 A 
ATOM     31  C   UNL     1      -2.763   4.391  26.001  0.00  0.00    +0.073 C 
ATOM     32  O   UNL     1      -1.809   5.370  25.458  0.00  0.00    -0.462 OA
ENDBRANCH   5   4
ENDBRANCH   8   7
TORSDOF 6
ENDMDL
MODEL 2
REMARK VINA RESULT:     -10.3      1.457      6.260
REMARK  Name = 
REMARK  6 active torsions:
REMARK  status: ('A' for Active; 'I' for Inactive)
REMARK    1  A    between atoms: C_4  and  C_5
REMARK    2  A    between atoms: N_7  and  C_8
REMARK    3  A    between atoms: C_11  and  C_14
REMARK    4  A    between atoms: N_19  and  C_20
REMARK    5  A    between atoms: C_20  and  C_21
REMARK    6  A    between atoms: C_27  and  C_28
REMARK                            x       y       z     vdW  Elec       q    Type
REMARK                         _______ _______ _______ _____ _____    ______ ____
ROOT
ATOM      8  C   UNL     1      -3.680   0.159  24.079  0.00  0.00    +0.074 A 
ATOM      9  C   UNL     1      -4.193   0.515  24.618  0.00  0.00    +0.016 A 
ATOM     10  C   UNL     1      -4.179   1.333  24.722  0.00  0.00    -0.001 A 
ATOM     11  C   UNL     1      -3.651   1.796  24.288  0.00  0.00    +0.006 A 
ATOM     12  C   UNL     1      -3.138   1.439  23.749  0.00  0.00    -0.001 A 
ATOM     13  C   UNL     1      -3.152   0.621  23.644  0.00  0.00    +0.016 A 
ENDROOT
BRANCH  11  14
ATOM     14  C   UNL     1      -3.637   2.614  24.393  0.00  0.00    +0.159 C 
ATOM     15  O   UNL     1      -4.162   3.092  23.975  0.00  0.00    -0.341 OA
ATOM     16  C   UNL     1      -4.147   3.911  24.080  0.00  0.00    +0.227 C 
ATOM     17  C   UNL     1      -3.607   4.249  24.603  0.00  0.00    +0.256 C 
ATOM     18  O   UNL     1      -3.592   5.068  24.708  0.00  0.00    -0.272 OA
ATOM     19  N   UNL     1      -3.082   3.771  25.021  0.00  0.00    -0.270 N 
ATOM     27  C   UNL     1      -3.096   2.953  24.916  0.00  0.00    +0.140 C 
BRANCH  27  28
ATOM     28  C   UNL     1      -2.571   2.474  25.334  0.00  0.00    +0.205 C 
ATOM     29  O   UNL     1      -2.638   2.404  26.153  0.00  0.00    -0.218 OA
ENDBRANCH  27  28
BRANCH  19  20
ATOM     20  C   UNL     1      -2.541   4.110  25.544  0.00  0.00    +0.120 C 
BRANCH  20  21
ATOM     21  C   UNL     1      -1.865   4.483  25.255  0.00  0.00    -0.002 A 
ATOM     22  C   UNL     1      -1.213   4.034  25.023  0.00  0.00    -0.003 A 
ATOM     23  C   UNL     1      -0.537   4.408  24.733  0.00  0.00    -0.000 A 
ATOM     24  C   UNL     1      -0.513   5.230  24.675  0.00  0.00    -0.000 A 
ATOM     25  C   UNL     1      -1.165   5.680  24.906  0.00  0.00    -0.000 A 
ATOM     26  C   UNL     1      -1.841   5.306  25.196  0.00  0.00    -0.003 A 
ENDBRANCH  20  21
ENDBRANCH  19  20
ENDBRANCH  11  14
BRANCH   8   7
ATOM      5  C   UNL     1      -3.269  -1.148  24.485  0.00  0.00    +0.272 C 
ATOM      6  O   UNL     1      -2.828  -0.818  25.100  0.00  0.00    -0.268 OA
ATOM      7  N   UNL     1      -3.695  -0.659  23.975  0.00  0.00    -0.175 NA
BRANCH   5   4
ATOM      1  C   UNL     1      -4.194  -3.847  23.945  0.00  0.00    +0.072 C 
ATOM      2  C   UNL     1      -3.709  -3.207  24.132  0.00  0.00    +0.123 A 
ATOM      3  C   UNL     1      -3.943  -2.418  24.178  0.00  0.00    +0.040 A 
ATOM      4  C   UNL     1      -3.283  -1.967  24.380  0.00  0.00    +0.088 A 
ATOM     30  C   UNL     1      -2.640  -2.477  24.458  0.00  0.00    +0.127 A 
ATOM     31  C   UNL     1      -1.870  -2.258  24.655  0.00  0.00    +0.073 C 
ATOM     32  O   UNL     1      -2.903  -3.243  24.305  0.00  0.00    -0.462 OA
ENDBRANCH   5   4
ENDBRANCH   8   7
TORSDOF 6
ENDMDL
MODEL 3
REMARK VINA RESULT:     -10.0      2.902      4.871
REMARK  Name = 
REMARK  6 active torsions:
REMARK  status: ('A' for Active; 'I' for Inactive)
REMARK    1  A    between atoms: C_4  and  C_5
REMARK    2  A    between atoms: N_7  and  C_8
REMARK    3  A    between atoms: C_11  and  C_14
REMARK    4  A    between atoms: N_19  and  C_20
REMARK    5  A    between atoms: C_20  and  C_21
REMARK    6  A    between atoms: C_27  and  C_28
REMARK                            x       y       z     vdW  Elec       q    Type
REMARK                         _______ _______ _______ _____ _____    ______ ____
ROOT
ATOM      8  C   UNL     1       0.121   1.990  24.435  0.00  0.00    +0.074 A 
ATOM      9  C   UNL     1      -0.091   2.742  24.171  0.00  0.00    +0.016 A 
ATOM     10  C   UNL     1      -0.785   3.094  24.445  0.00  0.00    -0.001 A 
ATOM     11  C   UNL     1      -1.266   2.695  24.983  0.00  0.00    +0.006 A 
ATOM     12  C   UNL     1      -1.053   1.942  25.247  0.00  0.00    -0.001 A 
ATOM     13  C   UNL     1      -0.360   1.590  24.974  0.00  0.00    +0.016 A 
ENDROOT
BRANCH  11  14
ATOM     14  C   UNL     1      -1.960   3.048  25.257  0.00  0.00    +0.159 C 
ATOM     15  O   UNL     1      -1.945   3.514  25.937  0.00  0.00    -0.341 OA
ATOM     16  C   UNL     1      -2.639   3.867  26.211  0.00  0.00    +0.227 C 
ATOM     17  C   UNL     1      -3.347   3.753  25.804  0.00  0.00    +0.256 C 
ATOM     18  O   UNL     1      -4.041   4.105  26.078  0.00  0.00    -0.272 OA
ATOM     19  N   UNL     1      -3.362   3.286  25.124  0.00  0.00    -0.270 N 
ATOM     27  C   UNL     1      -2.669   2.934  24.850  0.00  0.00    +0.140 C 
BRANCH  27  28
ATOM     28  C   UNL     1      -2.683   2.467  24.170  0.00  0.00    +0.205 C 
ATOM     29  O   UNL     1      -2.825   2.814  23.435  0.00  0.00    -0.218 OA
ENDBRANCH  27  28
BRANCH  19  20
ATOM     20  C   UNL     1      -4.071   3.172  24.717  0.00  0.00    +0.120 C 
BRANCH  20  21
ATOM     21  C   UNL     1      -4.654   2.682  25.034  0.00  0.00    -0.002 A 
ATOM     22  C   UNL     1      -4.587   1.862  24.962  0.00  0.00    -0.003 A 
ATOM     23  C   UNL     1      -5.170   1.372  25.278  0.00  0.00    -0.000 A 
ATOM     24  C   UNL     1      -5.820   1.701  25.666  0.00  0.00    -0.000 A 
ATOM     25  C   UNL     1      -5.887   2.520  25.738  0.00  0.00    -0.000 A 
ATOM     26  C   UNL     1      -5.303   3.010  25.421  0.00  0.00    -0.003 A 
ENDBRANCH  20  21
ENDBRANCH  19  20
ENDBRANCH  11  14
BRANCH   8   7
ATOM      5  C   UNL     1       0.789   1.120  23.519  0.00  0.00    +0.272 C 
ATOM      6  O   UNL     1       0.069   0.955  23.151  0.00  0.00    -0.268 OA
ATOM      7  N   UNL     1       0.815   1.637  24.161  0.00  0.00    -0.175 NA
BRANCH   5   4
ATOM      1  C   UNL     1       3.573   0.678  22.820  0.00  0.00    +0.072 C 
ATOM      2  C   UNL     1       2.763   0.564  22.924  0.00  0.00    +0.123 A 
ATOM      3  C   UNL     1       2.234   1.109  23.246  0.00  0.00    +0.040 A 
ATOM      4  C   UNL     1       1.484   0.767  23.245  0.00  0.00    +0.088 A 
ATOM     30  C   UNL     1       1.548   0.010  22.923  0.00  0.00    +0.127 A 
ATOM     31  C   UNL     1       0.930  -0.526  22.818  0.00  0.00    +0.073 C 
ATOM     32  O   UNL     1       2.339  -0.115  22.725  0.00  0.00    -0.462 OA
ENDBRANCH   5   4
ENDBRANCH   8   7
TORSDOF 6
ENDMDL
MODEL 4
REMARK VINA RESULT:      -9.5      2.777      4.492
REMARK  Name = 
REMARK  6 active torsions:
REMARK  status: ('A' for Active; 'I' for Inactive)
REMARK    1  A    between atoms: C_4  and  C_5
REMARK    2  A    between atoms: N_7  and  C_8
REMARK    3  A    between atoms: C_11  and  C_14
REMARK    4  A    between atoms: N_19  and  C_20
REMARK    5  A    between atoms: C_20  and  C_21
REMARK    6  A    between atoms: C_27  and  C_28
REMARK                            x       y       z     vdW  Elec       q    Type
REMARK                         _______ _______ _______ _____ _____    ______ ____
ROOT
ATOM      8  C   UNL     1      -0.098   0.001  24.091  0.00  0.00    +0.074 A 
ATOM      9  C   UNL     1      -0.579  -0.655  23.954  0.00  0.00    +0.016 A 
ATOM     10  C   UNL     1      -1.363  -0.652  24.208  0.00  0.00    -0.001 A 
ATOM     11  C   UNL     1      -1.667   0.007  24.600  0.00  0.00    +0.006 A 
ATOM     12  C   UNL     1      -1.186   0.663  24.737  0.00  0.00    -0.001 A 
ATOM     13  C   UNL     1      -0.402   0.661  24.483  0.00  0.00    +0.016 A 
ENDROOT
BRANCH  11  14
ATOM     14  C   UNL     1      -2.452   0.010  24.855  0.00  0.00    +0.159 C 
ATOM     15  O   UNL     1      -2.687  -0.482  25.474  0.00  0.00    -0.341 OA
ATOM     16  C   UNL     1      -3.472  -0.479  25.728  0.00  0.00    +0.227 C 
ATOM     17  C   UNL     1      -4.021   0.016  25.364  0.00  0.00    +0.256 C 
ATOM     18  O   UNL     1      -4.806   0.019  25.618  0.00  0.00    -0.272 OA
ATOM     19  N   UNL     1      -3.786   0.508  24.745  0.00  0.00    -0.270 N 
ATOM     27  C   UNL     1      -3.002   0.505  24.490  0.00  0.00    +0.140 C 
BRANCH  27  28
ATOM     28  C   UNL     1      -2.767   0.997  23.872  0.00  0.00    +0.205 C 
ATOM     29  O   UNL     1      -3.055   0.868  23.110  0.00  0.00    -0.218 OA
ENDBRANCH  27  28
BRANCH  19  20
ATOM     20  C   UNL     1      -4.336   1.004  24.380  0.00  0.00    +0.120 C 
BRANCH  20  21
ATOM     21  C   UNL     1      -4.646   1.648  24.791  0.00  0.00    -0.002 A 
ATOM     22  C   UNL     1      -4.169   2.301  24.955  0.00  0.00    -0.003 A 
ATOM     23  C   UNL     1      -4.479   2.946  25.365  0.00  0.00    -0.000 A 
ATOM     24  C   UNL     1      -5.266   2.939  25.611  0.00  0.00    -0.000 A 
ATOM     25  C   UNL     1      -5.743   2.286  25.448  0.00  0.00    -0.000 A 
ATOM     26  C   UNL     1      -5.433   1.641  25.037  0.00  0.00    -0.003 A 
ENDBRANCH  20  21
ENDBRANCH  19  20
ENDBRANCH  11  14
BRANCH   8   7
ATOM      5  C   UNL     1       0.873   0.243  23.070  0.00  0.00    +0.272 C 
ATOM      6  O   UNL     1       0.274   0.491  22.559  0.00  0.00    -0.268 OA
ATOM      7  N   UNL     1       0.686  -0.002  23.836  0.00  0.00    -0.175 NA
BRANCH   5   4
ATOM      1  C   UNL     1       3.734   0.722  22.934  0.00  0.00    +0.072 C 
ATOM      2  C   UNL     1       2.973   0.460  22.753  0.00  0.00    +0.123 A 
ATOM      3  C   UNL     1       2.293   0.602  23.198  0.00  0.00    +0.040 A 
ATOM      4  C   UNL     1       1.658   0.240  22.816  0.00  0.00    +0.088 A 
ATOM     30  C   UNL     1       1.946  -0.125  22.134  0.00  0.00    +0.127 A 
ATOM     31  C   UNL     1       1.498  -0.551  21.588  0.00  0.00    +0.073 C 
ATOM     32  O   UNL     1       2.758   0.011  22.096  0.00  0.00    -0.462 OA
ENDBRANCH   5   4
ENDBRANCH   8   7
TORSDOF 6
ENDMDL
MODEL 5
REMARK VINA RESULT:      -9.2      2.613      3.927
REMARK  Name = 
REMARK  6 active torsions:
REMARK  status: ('A' for Active; 'I' for Inactive)
REMARK    1  A    between atoms: C_4  and  C_5
REMARK    2  A    between atoms: N_7  and  C_8
REMARK    3  A    between atoms: C_11  and  C_14
REMARK    4  A    between atoms: N_19  and  C_20
REMARK    5  A    between atoms: C_20  and  C_21
REMARK    6  A    between atoms: C_27  and  C_28
REMARK                            x       y       z     vdW  Elec       q    Type
REMARK                         _______ _______ _______ _____ _____    ______ ____
ROOT
ATOM      8  C   UNL     1       0.373   0.899  23.705  0.00  0.00    +0.074 A 
ATOM      9  C   UNL     1      -0.228   0.659  23.195  0.00  0.00    +0.016 A 
ATOM     10  C   UNL     1      -1.000   0.579  23.475  0.00  0.00    -0.001 A 
ATOM     11  C   UNL     1      -1.170   0.740  24.266  0.00  0.00    +0.006 A 
ATOM     12  C   UNL     1      -0.568   0.981  24.777  0.00  0.00    -0.001 A 
ATOM     13  C   UNL     1       0.203   1.061  24.496  0.00  0.00    +0.016 A 
ENDROOT
BRANCH  11  14
ATOM     14  C   UNL     1      -1.942   0.660  24.546  0.00  0.00    +0.159 C 
ATOM     15  O   UNL     1      -2.458   1.303  24.524  0.00  0.00    -0.341 OA
ATOM     16  C   UNL     1      -3.230   1.223  24.804  0.00  0.00    +0.227 C 
ATOM     17  C   UNL     1      -3.485   0.500  25.107  0.00  0.00    +0.256 C 
ATOM     18  O   UNL     1      -4.257   0.419  25.388  0.00  0.00    -0.272 OA
ATOM     19  N   UNL     1      -2.969  -0.143  25.130  0.00  0.00    -0.270 N 
ATOM     27  C   UNL     1      -2.198  -0.063  24.850  0.00  0.00    +0.140 C 
BRANCH  27  28
ATOM     28  C   UNL     1      -1.682  -0.706  24.873  0.00  0.00    +0.205 C 
ATOM     29  O   UNL     1      -1.343  -0.938  25.588  0.00  0.00    -0.218 OA
ENDBRANCH  27  28
BRANCH  19  20
ATOM     20  C   UNL     1      -3.225  -0.867  25.434  0.00  0.00    +0.120 C 
BRANCH  20  21
ATOM     21  C   UNL     1      -3.564  -1.427  24.933  0.00  0.00    -0.002 A 
ATOM     22  C   UNL     1      -3.357  -2.223  25.003  0.00  0.00    -0.003 A 
ATOM     23  C   UNL     1      -3.696  -2.783  24.503  0.00  0.00    -0.000 A 
ATOM     24  C   UNL     1      -4.243  -2.549  23.932  0.00  0.00    -0.000 A 
ATOM     25  C   UNL     1      -4.452  -1.754  23.861  0.00  0.00    -0.000 A 
ATOM     26  C   UNL     1      -4.111  -1.193  24.362  0.00  0.00    -0.003 A 
ENDBRANCH  20  21
ENDBRANCH  19  20
ENDBRANCH  11  14
BRANCH   8   7
ATOM      5  C   UNL     1       1.552   0.319  23.142  0.00  0.00    +0.272 C 
ATOM      6  O   UNL     1       1.186  -0.421  23.139  0.00  0.00    -0.268 OA
ATOM      7  N   UNL     1       1.145   0.979  23.425  0.00  0.00    -0.175 NA
BRANCH   5   4
ATOM      1  C   UNL     1       4.361   1.028  22.951  0.00  0.00    +0.072 C 
ATOM      2  C   UNL     1       3.615   0.725  22.774  0.00  0.00    +0.123 A 
ATOM      3  C   UNL     1       2.945   0.774  23.253  0.00  0.00    +0.040 A 
ATOM      4  C   UNL     1       2.324   0.399  22.861  0.00  0.00    +0.088 A 
ATOM     30  C   UNL     1       2.609   0.119  22.140  0.00  0.00    +0.127 A 
ATOM     31  C   UNL     1       2.172  -0.291  21.573  0.00  0.00    +0.073 C 
ATOM     32  O   UNL     1       3.407   0.320  22.086  0.00  0.00    -0.462 OA
ENDBRANCH   5   4
ENDBRANCH   8   7
TORSDOF 6
ENDMDL
MODEL 6
REMARK VINA RESULT:      -9.2      1.155      6.009
REMARK  Name = 
REMARK  6 active torsions:
REMARK  status: ('A' for Active; 'I' for Inactive)
REMARK    1  A    between atoms: C_4  and  C_5
REMARK    2  A    between atoms: N_7  and  C_8
REMARK    3  A    between atoms: C_11  and  C_14
REMARK    4  A    between atoms: N_19  and  C_20
REMARK    5  A    between atoms: C_20  and  C_21
REMARK    6  A    between atoms: C_27  and  C_28
REMARK                            x       y       z     vdW  Elec       q    Type
REMARK                         _______ _______ _______ _____ _____    ______ ____
ROOT
ATOM      8  C   UNL     1      -2.221  -0.365  24.531  0.00  0.00    +0.074 A 
ATOM      9  C   UNL     1      -1.397  -0.378  24.542  0.00  0.00    +0.016 A 
ATOM     10  C   UNL     1      -0.977   0.281  24.805  0.00  0.00    -0.001 A 
ATOM     11  C   UNL     1      -1.382   0.955  25.057  0.00  0.00    +0.006 A 
ATOM     12  C   UNL     1      -2.207   0.967  25.046  0.00  0.00    -0.001 A 
ATOM     13  C   UNL     1      -2.627   0.308  24.783  0.00  0.00    +0.016 A 
ENDROOT
BRANCH  11  14
ATOM     14  C   UNL     1      -0.962   1.614  25.320  0.00  0.00    +0.159 C 
ATOM     15  O   UNL     1      -0.577   1.595  26.049  0.00  0.00    -0.341 OA
ATOM     16  C   UNL     1      -0.157   2.255  26.311  0.00  0.00    +0.227 C 
ATOM     17  C   UNL     1      -0.123   2.934  25.844  0.00  0.00    +0.256 C 
ATOM     18  O   UNL     1       0.297   3.594  26.107  0.00  0.00    -0.272 OA
ATOM     19  N   UNL     1      -0.508   2.953  25.116  0.00  0.00    -0.270 N 
ATOM     27  C   UNL     1      -0.928   2.294  24.853  0.00  0.00    +0.140 C 
BRANCH  27  28
ATOM     28  C   UNL     1      -1.313   2.313  24.124  0.00  0.00    +0.205 C 
ATOM     29  O   UNL     1      -0.875   2.321  23.426  0.00  0.00    -0.218 OA
ENDBRANCH  27  28
BRANCH  19  20
ATOM     20  C   UNL     1      -0.474   3.633  24.649  0.00  0.00    +0.120 C 
BRANCH  20  21
ATOM     21  C   UNL     1      -0.931   4.291  24.843  0.00  0.00    -0.002 A 
ATOM     22  C   UNL     1      -0.620   5.050  24.757  0.00  0.00    -0.003 A 
ATOM     23  C   UNL     1      -1.078   5.708  24.952  0.00  0.00    -0.000 A 
ATOM     24  C   UNL     1      -1.846   5.608  25.233  0.00  0.00    -0.000 A 
ATOM     25  C   UNL     1      -2.158   4.849  25.320  0.00  0.00    -0.000 A 
ATOM     26  C   UNL     1      -1.700   4.190  25.125  0.00  0.00    -0.003 A 
ENDBRANCH  20  21
ENDBRANCH  19  20
ENDBRANCH  11  14
BRANCH   8   7
ATOM      5  C   UNL     1      -3.118  -1.447  24.793  0.00  0.00    +0.272 C 
ATOM      6  O   UNL     1      -3.174  -1.209  25.581  0.00  0.00    -0.268 OA
ATOM      7  N   UNL     1      -2.641  -1.025  24.269  0.00  0.00    -0.175 NA
BRANCH   5   4
ATOM      1  C   UNL     1      -4.907  -3.157  23.273  0.00  0.00    +0.072 C 
ATOM      2  C   UNL     1      -4.359  -2.893  23.831  0.00  0.00    +0.123 A 
ATOM      3  C   UNL     1      -4.070  -2.124  23.900  0.00  0.00    +0.040 A 
ATOM      4  C   UNL     1      -3.538  -2.107  24.530  0.00  0.00    +0.088 A 
ATOM     30  C   UNL     1      -3.498  -2.867  24.850  0.00  0.00    +0.127 A 
ATOM     31  C   UNL     1      -3.032  -3.098  25.490  0.00  0.00    +0.073 C 
ATOM     32  O   UNL     1      -4.006  -3.351  24.419  0.00  0.00    -0.462 OA
ENDBRANCH   5   4
ENDBRANCH   8   7
TORSDOF 6
ENDMDL
MODEL 7
REMARK VINA RESULT:      -8.6      1.332      2.087
REMARK  Name = 
REMARK  6 active torsions:
REMARK  status: ('A' for Active; 'I' for Inactive)
REMARK    1  A    between atoms: C_4  and  C_5
REMARK    2  A    between atoms: N_7  and  C_8
REMARK    3  A    between atoms: C_11  and  C_14
REMARK    4  A    between atoms: N_19  and  C_20
REMARK    5  A    between atoms: C_20  and  C_21
REMARK    6  A    between atoms: C_27  and  C_28
REMARK                            x       y       z     vdW  Elec       q    Type
REMARK                         _______ _______ _______ _____ _____    ______ ____
ROOT
ATOM      8  C   UNL     1      -2.832   2.487  24.404  0.00  0.00    +0.074 A 
ATOM      9  C   UNL     1      -3.437   2.260  24.915  0.00  0.00    +0.016 A 
ATOM     10  C   UNL     1      -3.740   1.494  24.882  0.00  0.00    -0.001 A 
ATOM     11  C   UNL     1      -3.438   0.954  24.337  0.00  0.00    +0.006 A 
ATOM     12  C   UNL     1      -2.832   1.181  23.825  0.00  0.00    -0.001 A 
ATOM     13  C   UNL     1      -2.529   1.947  23.858  0.00  0.00    +0.016 A 
ENDROOT
BRANCH  11  14
ATOM     14  C   UNL     1      -3.741   0.187  24.304  0.00  0.00    +0.159 C 
ATOM     15  O   UNL     1      -4.402   0.025  23.839  0.00  0.00    -0.341 OA
ATOM     16  C   UNL     1      -4.706  -0.742  23.806  0.00  0.00    +0.227 C 
ATOM     17  C   UNL     1      -4.347  -1.346  24.239  0.00  0.00    +0.256 C 
ATOM     18  O   UNL     1      -4.650  -2.113  24.206  0.00  0.00    -0.272 OA
ATOM     19  N   UNL     1      -3.686  -1.183  24.704  0.00  0.00    -0.270 N 
ATOM     27  C   UNL     1      -3.383  -0.417  24.737  0.00  0.00    +0.140 C 
BRANCH  27  28
ATOM     28  C   UNL     1      -2.722  -0.254  25.202  0.00  0.00    +0.205 C 
ATOM     29  O   UNL     1      -2.778  -0.285  26.025  0.00  0.00    -0.218 OA
ENDBRANCH  27  28
BRANCH  19  20
ATOM     20  C   UNL     1      -3.327  -1.787  25.137  0.00  0.00    +0.120 C 
BRANCH  20  21
ATOM     21  C   UNL     1      -2.810  -2.310  24.765  0.00  0.00    -0.002 A 
ATOM     22  C   UNL     1      -1.999  -2.157  24.762  0.00  0.00    -0.003 A 
ATOM     23  C   UNL     1      -1.482  -2.680  24.389  0.00  0.00    -0.000 A 
ATOM     24  C   UNL     1      -1.774  -3.357  24.020  0.00  0.00    -0.000 A 
ATOM     25  C   UNL     1      -2.585  -3.511  24.023  0.00  0.00    -0.000 A 
ATOM     26  C   UNL     1      -3.103  -2.987  24.396  0.00  0.00    -0.003 A 
ENDBRANCH  20  21
ENDBRANCH  19  20
ENDBRANCH  11  14
BRANCH   8   7
ATOM      5  C   UNL     1      -1.915   3.433  24.959  0.00  0.00    +0.272 C 
ATOM      6  O   UNL     1      -1.605   2.845  25.448  0.00  0.00    -0.268 OA
ATOM      7  N   UNL     1      -2.528   3.253  24.437  0.00  0.00    -0.175 NA
BRANCH   5   4
ATOM      1  C   UNL     1      -1.734   6.326  25.124  0.00  0.00    +0.072 C 
ATOM      2  C   UNL     1      -1.529   5.529  25.068  0.00  0.00    +0.123 A 
ATOM      3  C   UNL     1      -2.053   4.893  25.053  0.00  0.00    +0.040 A 
ATOM      4  C   UNL     1      -1.612   4.200  24.991  0.00  0.00    +0.088 A 
ATOM     30  C   UNL     1      -0.813   4.407  24.969  0.00  0.00    +0.127 A 
ATOM     31  C   UNL     1      -0.179   3.883  24.909  0.00  0.00    +0.073 C 
ATOM     32  O   UNL     1      -0.763   5.228  25.016  0.00  0.00    -0.462 OA
ENDBRANCH   5   4
ENDBRANCH   8   7
TORSDOF 6
ENDMDL
