REMARK  Name = 
REMARK  6 active torsions:
REMARK  status: ('A' for Active; 'I' for Inactive)
REMARK    1  A    between atoms: O_2  and  C_3
REMARK    2  A    between atoms: C_6  and  C_9
REMARK    3  A    between atoms: C_15  and  N_16
REMARK    4  A    between atoms: N_16  and  C_17
REMARK    5  A    between atoms: C_17  and  C_18
REMARK    6  A    between atoms: C_22  and  C_24
REMARK                            x       y       z     vdW  Elec       q    Type
REMARK                         _______ _______ _______ _____ _____    ______ ____
ROOT
ATOM      9  C   UNL     1       0.000  -2.475   0.000  0.00  0.00    +0.044 C 
ATOM     10  C   UNL     1       0.667  -2.960   0.000  0.00  0.00    +0.041 C 
ATOM     11  C   UNL     1       0.412  -3.744   0.000  0.00  0.00    +0.184 C 
ATOM     12  O   UNL     1       0.897  -4.412   0.000  0.00  0.00    -0.220 OA
ATOM     13  C   UNL     1      -0.412  -3.744   0.000  0.00  0.00    +0.198 C 
ATOM     14  O   UNL     1      -0.897  -4.412   0.000  0.00  0.00    -0.219 OA
ATOM     15  C   UNL     1      -0.667  -2.960   0.000  0.00  0.00    +0.110 C 
ENDROOT
BRANCH   9   6
ATOM      3  C   UNL     1       0.000   0.000   0.000  0.00  0.00    +0.139 A 
ATOM      4  C   UNL     1       0.715  -0.412   0.000  0.00  0.00    +0.037 A 
ATOM      5  C   UNL     1       0.715  -1.238   0.000  0.00  0.00    -0.001 A 
ATOM      6  C   UNL     1       0.000  -1.650   0.000  0.00  0.00    -0.021 A 
ATOM      7  C   UNL     1      -0.715  -1.238   0.000  0.00  0.00    -0.001 A 
ATOM      8  C   UNL     1      -0.715  -0.412   0.000  0.00  0.00    +0.037 A 
BRANCH   3   2
ATOM      1  C   UNL     1      -0.715   1.238   0.000  0.00  0.00    +0.252 C 
ATOM      2  O   UNL     1       0.000   0.825   0.000  0.00  0.00    -0.471 OA
ENDBRANCH   3   2
ENDBRANCH   9   6
BRANCH  15  16
ATOM     16  N   UNL     1      -1.452  -2.705   0.000  0.00  0.00    -0.212 NA
BRANCH  16  17
ATOM     17  C   UNL     1      -1.624  -1.898   0.000  0.00  0.00    +0.115 C 
BRANCH  17  18
ATOM     18  C   UNL     1      -2.408  -1.643   0.000  0.00  0.00    -0.005 A 
ATOM     19  C   UNL     1      -3.021  -2.195   0.000  0.00  0.00    -0.003 A 
ATOM     20  C   UNL     1      -3.806  -1.940   0.000  0.00  0.00    -0.000 A 
ATOM     21  C   UNL     1      -3.978  -1.133   0.000  0.00  0.00    +0.004 A 
ATOM     22  C   UNL     1      -3.364  -0.581   0.000  0.00  0.00    +0.071 A 
ATOM     23  C   UNL     1      -2.580  -0.836   0.000  0.00  0.00    +0.001 A 
BRANCH  22  24
ATOM     24  C   UNL     1      -3.536   0.226   0.000  0.00  0.00    +0.419 C 
ATOM     25  F   UNL     1      -3.707   1.033   0.000  0.00  0.00    -0.166 F 
ATOM     26  F   UNL     1      -2.729   0.397   0.000  0.00  0.00    -0.166 F 
ATOM     27  F   UNL     1      -4.343   0.054   0.000  0.00  0.00    -0.166 F 
ENDBRANCH  22  24
ENDBRANCH  17  18
ENDBRANCH  16  17
ENDBRANCH  15  16
TORSDOF 6
