MODEL 1
REMARK VINA RESULT:     -10.8      0.000      0.000
REMARK  Name = 
REMARK  8 active torsions:
REMARK  status: ('A' for Active; 'I' for Inactive)
REMARK    1  A    between atoms: O_2  and  C_3
REMARK    2  A    between atoms: C_8  and  N_9
REMARK    3  A    between atoms: N_12  and  C_13
REMARK    4  A    between atoms: C_13  and  C_14
REMARK    5  A    between atoms: C_14  and  C_15
REMARK    6  A    between atoms: C_20  and  C_21
REMARK    7  A    between atoms: C_21  and  C_22
REMARK    8  A    between atoms: C_25  and  C_27
REMARK                            x       y       z     vdW  Elec       q    Type
REMARK                         _______ _______ _______ _____ _____    ______ ____
ROOT
ATOM     14  C   UNL     1      -3.958   1.968  24.787  0.00  0.00    +0.019 C 
ENDROOT
BRANCH  14  15
ATOM     15  C   UNL     1      -3.693   2.737  24.921  0.00  0.00    +0.022 C 
ATOM     16  C   UNL     1      -2.893   2.918  24.835  0.00  0.00    +0.093 C 
ATOM     17  N   UNL     1      -2.628   3.688  24.968  0.00  0.00    -0.280 N 
ATOM     18  C   UNL     1      -3.162   4.277  25.188  0.00  0.00    +0.093 C 
ATOM     19  C   UNL     1      -3.963   4.095  25.274  0.00  0.00    +0.022 C 
ATOM     20  C   UNL     1      -4.228   3.325  25.140  0.00  0.00    +0.015 C 
ATOM     25  C   UNL     1      -1.828   3.870  24.883  0.00  0.00    +0.225 C 
ATOM     26  O   UNL     1      -1.292   3.281  24.663  0.00  0.00    -0.275 OA
BRANCH  25  27
ATOM     27  C   UNL     1      -1.563   4.640  25.017  0.00  0.00    +0.077 C 
ATOM     28  C   UNL     1      -0.975   5.215  24.947  0.00  0.00    +0.010 C 
ATOM     29  C   UNL     1      -1.690   5.397  25.317  0.00  0.00    +0.010 C 
ENDBRANCH  25  27
BRANCH  20  21
ATOM     21  C   UNL     1      -5.028   3.144  25.226  0.00  0.00    +0.114 C 
BRANCH  21  22
ATOM     22  C   UNL     1      -5.481   3.532  25.797  0.00  0.00    +0.365 C 
ATOM     23  O   UNL     1      -5.863   4.238  25.610  0.00  0.00    -0.246 OA
ATOM     24  O   UNL     1      -5.551   3.213  26.554  0.00  0.00    -0.246 OA
ENDBRANCH  21  22
ENDBRANCH  20  21
ENDBRANCH  14  15
BRANCH  14  13
ATOM     13  C   UNL     1      -3.674   1.540  24.140  0.00  0.00    +0.072 C 
BRANCH  13  12
ATOM      9  N   UNL     1      -3.559  -0.930  24.244  0.00  0.00    -0.302 N 
ATOM     10  C   UNL     1      -3.841  -0.502  24.892  0.00  0.00    +0.108 C 
ATOM     11  C   UNL     1      -3.880   0.321  24.857  0.00  0.00    +0.094 C 
ATOM     12  N   UNL     1      -3.636   0.716  24.175  0.00  0.00    -0.270 NA
ATOM     30  C   UNL     1      -3.355   0.289  23.528  0.00  0.00    +0.094 C 
ATOM     31  C   UNL     1      -3.316  -0.534  23.563  0.00  0.00    +0.108 C 
BRANCH   9   8
ATOM      3  C   UNL     1      -2.832  -2.124  24.540  0.00  0.00    +0.152 A 
ATOM      4  C   UNL     1      -2.793  -2.947  24.574  0.00  0.00    +0.038 A 
ATOM      5  C   UNL     1      -3.444  -3.401  24.348  0.00  0.00    +0.003 A 
ATOM      6  C   UNL     1      -4.134  -3.030  24.087  0.00  0.00    +0.001 A 
ATOM      7  C   UNL     1      -4.173  -2.207  24.052  0.00  0.00    +0.018 A 
ATOM      8  C   UNL     1      -3.521  -1.754  24.279  0.00  0.00    +0.082 A 
BRANCH   3   2
ATOM      1  C   UNL     1      -1.466  -2.039  24.951  0.00  0.00    +0.253 C 
ATOM      2  O   UNL     1      -2.180  -1.671  24.766  0.00  0.00    -0.470 OA
ENDBRANCH   3   2
ENDBRANCH   9   8
ENDBRANCH  13  12
ENDBRANCH  14  13
TORSDOF 8
ENDMDL
MODEL 2
REMARK VINA RESULT:     -10.0      1.537      6.251
REMARK  Name = 
REMARK  8 active torsions:
REMARK  status: ('A' for Active; 'I' for Inactive)
REMARK    1  A    between atoms: O_2  and  C_3
REMARK    2  A    between atoms: C_8  and  N_9
REMARK    3  A    between atoms: N_12  and  C_13
REMARK    4  A    between atoms: C_13  and  C_14
REMARK    5  A    between atoms: C_14  and  C_15
REMARK    6  A    between atoms: C_20  and  C_21
REMARK    7  A    between atoms: C_21  and  C_22
REMARK    8  A    between atoms: C_25  and  C_27
REMARK                            x       y       z     vdW  Elec       q    Type
REMARK                         _______ _______ _______ _____ _____    ______ ____
ROOT
ATOM     14  C   UNL     1      -1.926   0.214  25.048  0.00  0.00    +0.019 C 
ENDROOT
BRANCH  14  15
ATOM     15  C   UNL     1      -2.132  -0.564  24.865  0.00  0.00    +0.022 C 
ATOM     16  C   UNL     1      -2.900  -0.740  24.622  0.00  0.00    +0.093 C 
ATOM     17  N   UNL     1      -3.106  -1.518  24.439  0.00  0.00    -0.280 N 
ATOM     18  C   UNL     1      -2.545  -2.119  24.500  0.00  0.00    +0.093 C 
ATOM     19  C   UNL     1      -1.776  -1.942  24.744  0.00  0.00    +0.022 C 
ATOM     20  C   UNL     1      -1.570  -1.165  24.927  0.00  0.00    +0.015 C 
ATOM     25  C   UNL     1      -3.874  -1.695  24.195  0.00  0.00    +0.225 C 
ATOM     26  O   UNL     1      -4.436  -1.093  24.134  0.00  0.00    -0.275 OA
BRANCH  25  27
ATOM     27  C   UNL     1      -4.081  -2.472  24.012  0.00  0.00    +0.077 C 
ATOM     28  C   UNL     1      -4.415  -3.019  23.493  0.00  0.00    +0.010 C 
ATOM     29  C   UNL     1      -4.103  -3.271  24.214  0.00  0.00    +0.010 C 
ENDBRANCH  25  27
BRANCH  20  21
ATOM     21  C   UNL     1      -0.803  -0.989  25.170  0.00  0.00    +0.114 C 
BRANCH  21  22
ATOM     22  C   UNL     1      -0.179  -1.491  24.969  0.00  0.00    +0.365 C 
ATOM     23  O   UNL     1       0.240  -1.367  24.270  0.00  0.00    -0.246 OA
ATOM     24  O   UNL     1       0.024  -2.116  25.467  0.00  0.00    -0.246 OA
ENDBRANCH  21  22
ENDBRANCH  20  21
ENDBRANCH  14  15
BRANCH  14  13
ATOM     13  C   UNL     1      -2.484   0.818  24.972  0.00  0.00    +0.072 C 
BRANCH  13  12
ATOM      9  N   UNL     1      -1.754   3.183  24.967  0.00  0.00    -0.302 N 
ATOM     10  C   UNL     1      -2.225   2.895  24.353  0.00  0.00    +0.108 C 
ATOM     11  C   UNL     1      -2.468   2.106  24.355  0.00  0.00    +0.094 C 
ATOM     12  N   UNL     1      -2.240   1.606  24.970  0.00  0.00    -0.270 NA
ATOM     30  C   UNL     1      -1.770   1.893  25.583  0.00  0.00    +0.094 C 
ATOM     31  C   UNL     1      -1.527   2.682  25.582  0.00  0.00    +0.108 C 
BRANCH   9   8
ATOM      3  C   UNL     1      -1.983   4.549  25.315  0.00  0.00    +0.152 A 
ATOM      4  C   UNL     1      -1.740   5.337  25.313  0.00  0.00    +0.038 A 
ATOM      5  C   UNL     1      -1.024   5.548  24.962  0.00  0.00    +0.003 A 
ATOM      6  C   UNL     1      -0.550   4.969  24.612  0.00  0.00    +0.001 A 
ATOM      7  C   UNL     1      -0.794   4.180  24.614  0.00  0.00    +0.018 A 
ATOM      8  C   UNL     1      -1.510   3.971  24.965  0.00  0.00    +0.082 A 
BRANCH   3   2
ATOM      1  C   UNL     1      -3.165   4.915  26.029  0.00  0.00    +0.253 C 
ATOM      2  O   UNL     1      -2.700   4.340  25.666  0.00  0.00    -0.470 OA
ENDBRANCH   3   2
ENDBRANCH   9   8
ENDBRANCH  13  12
ENDBRANCH  14  13
TORSDOF 8
ENDMDL
MODEL 3
REMARK VINA RESULT:      -9.6      1.441      2.588
REMARK  Name = 
REMARK  8 active torsions:
REMARK  status: ('A' for Active; 'I' for Inactive)
REMARK    1  A    between atoms: O_2  and  C_3
REMARK    2  A    between atoms: C_8  and  N_9
REMARK    3  A    between atoms: N_12  and  C_13
REMARK    4  A    between atoms: C_13  and  C_14
REMARK    5  A    between atoms: C_14  and  C_15
REMARK    6  A    between atoms: C_20  and  C_21
REMARK    7  A    between atoms: C_21  and  C_22
REMARK    8  A    between atoms: C_25  and  C_27
REMARK                            x       y       z     vdW  Elec       q    Type
REMARK                         _______ _______ _______ _____ _____    ______ ____
ROOT
ATOM     14  C   UNL     1      -2.032   1.800  25.339  0.00  0.00    +0.019 C 
ENDROOT
BRANCH  14  15
ATOM     15  C   UNL     1      -1.721   2.564  25.352  0.00  0.00    +0.022 C 
ATOM     16  C   UNL     1      -2.191   3.205  25.132  0.00  0.00    +0.093 C 
ATOM     17  N   UNL     1      -1.880   3.968  25.144  0.00  0.00    -0.280 N 
ATOM     18  C   UNL     1      -1.098   4.092  25.376  0.00  0.00    +0.093 C 
ATOM     19  C   UNL     1      -0.627   3.450  25.596  0.00  0.00    +0.022 C 
ATOM     20  C   UNL     1      -0.938   2.686  25.584  0.00  0.00    +0.015 C 
ATOM     25  C   UNL     1      -2.350   4.610  24.925  0.00  0.00    +0.225 C 
ATOM     26  O   UNL     1      -3.132   4.487  24.692  0.00  0.00    -0.275 OA
BRANCH  25  27
ATOM     27  C   UNL     1      -2.038   5.374  24.937  0.00  0.00    +0.077 C 
ATOM     28  C   UNL     1      -1.535   5.945  24.619  0.00  0.00    +0.010 C 
ATOM     29  C   UNL     1      -2.002   6.124  25.275  0.00  0.00    +0.010 C 
ENDBRANCH  25  27
BRANCH  20  21
ATOM     21  C   UNL     1      -0.468   2.046  25.804  0.00  0.00    +0.114 C 
BRANCH  21  22
ATOM     22  C   UNL     1       0.349   2.137  25.870  0.00  0.00    +0.365 C 
ATOM     23  O   UNL     1       0.836   1.973  25.224  0.00  0.00    -0.246 OA
ATOM     24  O   UNL     1       0.680   2.392  26.581  0.00  0.00    -0.246 OA
ENDBRANCH  21  22
ENDBRANCH  20  21
ENDBRANCH  14  15
BRANCH  14  13
ATOM     13  C   UNL     1      -2.720   1.642  24.911  0.00  0.00    +0.072 C 
BRANCH  13  12
ATOM      9  N   UNL     1      -3.372  -0.699  24.438  0.00  0.00    -0.302 N 
ATOM     10  C   UNL     1      -3.013  -0.243  23.851  0.00  0.00    +0.108 C 
ATOM     11  C   UNL     1      -2.796   0.537  24.008  0.00  0.00    +0.094 C 
ATOM     12  N   UNL     1      -2.937   0.862  24.753  0.00  0.00    -0.270 NA
ATOM     30  C   UNL     1      -3.295   0.407  25.341  0.00  0.00    +0.094 C 
ATOM     31  C   UNL     1      -3.512  -0.373  25.183  0.00  0.00    +0.108 C 
BRANCH   9   8
ATOM      3  C   UNL     1      -3.059  -2.092  24.432  0.00  0.00    +0.152 A 
ATOM      4  C   UNL     1      -3.277  -2.873  24.274  0.00  0.00    +0.038 A 
ATOM      5  C   UNL     1      -4.023  -3.039  23.966  0.00  0.00    +0.003 A 
ATOM      6  C   UNL     1      -4.553  -2.424  23.815  0.00  0.00    +0.001 A 
ATOM      7  C   UNL     1      -4.336  -1.644  23.973  0.00  0.00    +0.018 A 
ATOM      8  C   UNL     1      -3.589  -1.479  24.281  0.00  0.00    +0.082 A 
BRANCH   3   2
ATOM      1  C   UNL     1      -1.750  -2.527  24.805  0.00  0.00    +0.253 C 
ATOM      2  O   UNL     1      -2.312  -1.927  24.740  0.00  0.00    -0.470 OA
ENDBRANCH   3   2
ENDBRANCH   9   8
ENDBRANCH  13  12
ENDBRANCH  14  13
TORSDOF 8
ENDMDL
MODEL 4
REMARK VINA RESULT:      -9.2      3.006      4.886
REMARK  Name = 
REMARK  8 active torsions:
REMARK  status: ('A' for Active; 'I' for Inactive)
REMARK    1  A    between atoms: O_2  and  C_3
REMARK    2  A    between atoms: C_8  and  N_9
REMARK    3  A    between atoms: N_12  and  C_13
REMARK    4  A    between atoms: C_13  and  C_14
REMARK    5  A    between atoms: C_14  and  C_15
REMARK    6  A    between atoms: C_20  and  C_21
REMARK    7  A    between atoms: C_21  and  C_22
REMARK    8  A    between atoms: C_25  and  C_27
REMARK                            x       y       z     vdW  Elec       q    Type
REMARK                         _______ _______ _______ _____ _____    ______ ____
ROOT
ATOM     14  C   UNL     1      -2.122  -0.126  24.290  0.00  0.00    +0.019 C 
ENDROOT
BRANCH  14  15
ATOM     15  C   UNL     1      -2.910  -0.001  24.498  0.00  0.00    +0.022 C 
ATOM     16  C   UNL     1      -3.196   0.767  24.588  0.00  0.00    +0.093 C 
ATOM     17  N   UNL     1      -3.984   0.892  24.797  0.00  0.00    -0.280 N 
ATOM     18  C   UNL     1      -4.487   0.248  24.915  0.00  0.00    +0.093 C 
ATOM     19  C   UNL     1      -4.201  -0.521  24.825  0.00  0.00    +0.022 C 
ATOM     20  C   UNL     1      -3.412  -0.646  24.616  0.00  0.00    +0.015 C 
ATOM     25  C   UNL     1      -4.271   1.660  24.887  0.00  0.00    +0.225 C 
ATOM     26  O   UNL     1      -3.768   2.304  24.769  0.00  0.00    -0.275 OA
BRANCH  25  27
ATOM     27  C   UNL     1      -5.060   1.784  25.096  0.00  0.00    +0.077 C 
ATOM     28  C   UNL     1      -5.629   1.946  25.670  0.00  0.00    +0.010 C 
ATOM     29  C   UNL     1      -5.854   1.839  24.883  0.00  0.00    +0.010 C 
ENDBRANCH  25  27
BRANCH  20  21
ATOM     21  C   UNL     1      -3.126  -1.413  24.526  0.00  0.00    +0.114 C 
BRANCH  21  22
ATOM     22  C   UNL     1      -3.639  -2.056  24.597  0.00  0.00    +0.365 C 
ATOM     23  O   UNL     1      -3.694  -2.461  25.314  0.00  0.00    -0.246 OA
ATOM     24  O   UNL     1      -4.095  -2.294  23.953  0.00  0.00    -0.246 OA
ENDBRANCH  21  22
ENDBRANCH  20  21
ENDBRANCH  14  15
BRANCH  14  13
ATOM     13  C   UNL     1      -1.539   0.402  24.542  0.00  0.00    +0.072 C 
BRANCH  13  12
ATOM      9  N   UNL     1       0.702   0.368  23.492  0.00  0.00    -0.302 N 
ATOM     10  C   UNL     1       0.237   1.049  23.451  0.00  0.00    +0.108 C 
ATOM     11  C   UNL     1      -0.510   1.061  23.801  0.00  0.00    +0.094 C 
ATOM     12  N   UNL     1      -0.792   0.391  24.192  0.00  0.00    -0.270 NA
ATOM     30  C   UNL     1      -0.329  -0.289  24.233  0.00  0.00    +0.094 C 
ATOM     31  C   UNL     1       0.418  -0.301  23.883  0.00  0.00    +0.108 C 
BRANCH   9   8
ATOM      3  C   UNL     1       1.560  -0.026  22.420  0.00  0.00    +0.152 A 
ATOM      4  C   UNL     1       2.307  -0.037  22.070  0.00  0.00    +0.038 A 
ATOM      5  C   UNL     1       2.942   0.334  22.442  0.00  0.00    +0.003 A 
ATOM      6  C   UNL     1       2.831   0.718  23.165  0.00  0.00    +0.001 A 
ATOM      7  C   UNL     1       2.084   0.729  23.515  0.00  0.00    +0.018 A 
ATOM      8  C   UNL     1       1.449   0.357  23.142  0.00  0.00    +0.082 A 
BRANCH   3   2
ATOM      1  C   UNL     1       1.027  -0.750  21.309  0.00  0.00    +0.253 C 
ATOM      2  O   UNL     1       0.924  -0.398  22.048  0.00  0.00    -0.470 OA
ENDBRANCH   3   2
ENDBRANCH   9   8
ENDBRANCH  13  12
ENDBRANCH  14  13
TORSDOF 8
ENDMDL
MODEL 5
REMARK VINA RESULT:      -8.9      2.410      5.326
REMARK  Name = 
REMARK  8 active torsions:
REMARK  status: ('A' for Active; 'I' for Inactive)
REMARK    1  A    between atoms: O_2  and  C_3
REMARK    2  A    between atoms: C_8  and  N_9
REMARK    3  A    between atoms: N_12  and  C_13
REMARK    4  A    between atoms: C_13  and  C_14
REMARK    5  A    between atoms: C_14  and  C_15
REMARK    6  A    between atoms: C_20  and  C_21
REMARK    7  A    between atoms: C_21  and  C_22
REMARK    8  A    between atoms: C_25  and  C_27
REMARK                            x       y       z     vdW  Elec       q    Type
REMARK                         _______ _______ _______ _____ _____    ______ ____
ROOT
ATOM     14  C   UNL     1      -1.356   0.688  24.529  0.00  0.00    +0.019 C 
ENDROOT
BRANCH  14  15
ATOM     15  C   UNL     1      -0.716   0.267  24.225  0.00  0.00    +0.022 C 
ATOM     16  C   UNL     1      -0.085   0.668  23.878  0.00  0.00    +0.093 C 
ATOM     17  N   UNL     1       0.555   0.247  23.574  0.00  0.00    -0.280 N 
ATOM     18  C   UNL     1       0.565  -0.577  23.616  0.00  0.00    +0.093 C 
ATOM     19  C   UNL     1      -0.067  -0.979  23.964  0.00  0.00    +0.022 C 
ATOM     20  C   UNL     1      -0.707  -0.557  24.268  0.00  0.00    +0.015 C 
ATOM     25  C   UNL     1       1.187   0.648  23.226  0.00  0.00    +0.225 C 
ATOM     26  O   UNL     1       1.177   1.472  23.183  0.00  0.00    -0.275 OA
BRANCH  25  27
ATOM     27  C   UNL     1       1.827   0.226  22.922  0.00  0.00    +0.077 C 
ATOM     28  C   UNL     1       2.188  -0.170  22.295  0.00  0.00    +0.010 C 
ATOM     29  C   UNL     1       2.574  -0.108  23.022  0.00  0.00    +0.010 C 
ENDBRANCH  25  27
BRANCH  20  21
ATOM     21  C   UNL     1      -1.338  -0.959  24.615  0.00  0.00    +0.114 C 
BRANCH  21  22
ATOM     22  C   UNL     1      -1.295  -1.775  24.730  0.00  0.00    +0.365 C 
ATOM     23  O   UNL     1      -0.903  -2.078  25.390  0.00  0.00    -0.246 OA
ATOM     24  O   UNL     1      -1.644  -2.288  24.187  0.00  0.00    -0.246 OA
ENDBRANCH  21  22
ENDBRANCH  20  21
ENDBRANCH  14  15
BRANCH  14  13
ATOM     13  C   UNL     1      -1.515   1.452  24.256  0.00  0.00    +0.072 C 
BRANCH  13  12
ATOM      9  N   UNL     1      -3.615   2.588  24.909  0.00  0.00    -0.302 N 
ATOM     10  C   UNL     1      -3.512   2.323  24.134  0.00  0.00    +0.108 C 
ATOM     11  C   UNL     1      -2.813   1.944  23.916  0.00  0.00    +0.094 C 
ATOM     12  N   UNL     1      -2.215   1.830  24.474  0.00  0.00    -0.270 NA
ATOM     30  C   UNL     1      -2.317   2.094  25.248  0.00  0.00    +0.094 C 
ATOM     31  C   UNL     1      -3.017   2.473  25.466  0.00  0.00    +0.108 C 
BRANCH   9   8
ATOM      3  C   UNL     1      -4.980   2.521  25.322  0.00  0.00    +0.152 A 
ATOM      4  C   UNL     1      -5.680   2.900  25.540  0.00  0.00    +0.038 A 
ATOM      5  C   UNL     1      -5.714   3.724  25.563  0.00  0.00    +0.003 A 
ATOM      6  C   UNL     1      -5.047   4.169  25.367  0.00  0.00    +0.001 A 
ATOM      7  C   UNL     1      -4.347   3.791  25.149  0.00  0.00    +0.018 A 
ATOM      8  C   UNL     1      -4.315   2.966  25.127  0.00  0.00    +0.082 A 
BRANCH   3   2
ATOM      1  C   UNL     1      -5.618   1.252  25.480  0.00  0.00    +0.253 C 
ATOM      2  O   UNL     1      -4.948   1.697  25.300  0.00  0.00    -0.470 OA
ENDBRANCH   3   2
ENDBRANCH   9   8
ENDBRANCH  13  12
ENDBRANCH  14  13
TORSDOF 8
ENDMDL
MODEL 6
REMARK VINA RESULT:      -8.6      1.429      5.622
REMARK  Name = 
REMARK  8 active torsions:
REMARK  status: ('A' for Active; 'I' for Inactive)
REMARK    1  A    between atoms: O_2  and  C_3
REMARK    2  A    between atoms: C_8  and  N_9
REMARK    3  A    between atoms: N_12  and  C_13
REMARK    4  A    between atoms: C_13  and  C_14
REMARK    5  A    between atoms: C_14  and  C_15
REMARK    6  A    between atoms: C_20  and  C_21
REMARK    7  A    between atoms: C_21  and  C_22
REMARK    8  A    between atoms: C_25  and  C_27
REMARK                            x       y       z     vdW  Elec       q    Type
REMARK                         _______ _______ _______ _____ _____    ______ ____
ROOT
ATOM     14  C   UNL     1      -2.925   0.817  24.030  0.00  0.00    +0.019 C 
ENDROOT
BRANCH  14  15
ATOM     15  C   UNL     1      -3.274   0.103  24.252  0.00  0.00    +0.022 C 
ATOM     16  C   UNL     1      -2.829  -0.590  24.251  0.00  0.00    +0.093 C 
ATOM     17  N   UNL     1      -3.178  -1.304  24.473  0.00  0.00    -0.280 N 
ATOM     18  C   UNL     1      -3.971  -1.325  24.696  0.00  0.00    +0.093 C 
ATOM     19  C   UNL     1      -4.417  -0.629  24.697  0.00  0.00    +0.022 C 
ATOM     20  C   UNL     1      -4.068   0.085  24.475  0.00  0.00    +0.015 C 
ATOM     25  C   UNL     1      -2.733  -1.999  24.472  0.00  0.00    +0.225 C 
ATOM     26  O   UNL     1      -1.938  -1.979  24.249  0.00  0.00    -0.275 OA
BRANCH  25  27
ATOM     27  C   UNL     1      -3.082  -2.713  24.694  0.00  0.00    +0.077 C 
ATOM     28  C   UNL     1      -3.537  -3.375  24.505  0.00  0.00    +0.010 C 
ATOM     29  C   UNL     1      -3.231  -3.287  25.266  0.00  0.00    +0.010 C 
ENDBRANCH  25  27
BRANCH  20  21
ATOM     21  C   UNL     1      -4.513   0.778  24.476  0.00  0.00    +0.114 C 
BRANCH  21  22
ATOM     22  C   UNL     1      -5.182   0.840  24.957  0.00  0.00    +0.365 C 
ATOM     23  O   UNL     1      -5.929   0.685  24.644  0.00  0.00    -0.246 OA
ATOM     24  O   UNL     1      -5.102   1.056  25.748  0.00  0.00    -0.246 OA
ENDBRANCH  21  22
ENDBRANCH  20  21
ENDBRANCH  14  15
BRANCH  14  13
ATOM     13  C   UNL     1      -2.147   0.983  24.250  0.00  0.00    +0.072 C 
BRANCH  13  12
ATOM      9  N   UNL     1      -1.437   3.324  24.624  0.00  0.00    -0.302 N 
ATOM     10  C   UNL     1      -1.322   2.758  25.215  0.00  0.00    +0.108 C 
ATOM     11  C   UNL     1      -1.559   1.978  25.090  0.00  0.00    +0.094 C 
ATOM     12  N   UNL     1      -1.910   1.763  24.375  0.00  0.00    -0.270 NA
ATOM     30  C   UNL     1      -2.024   2.328  23.785  0.00  0.00    +0.094 C 
ATOM     31  C   UNL     1      -1.788   3.108  23.910  0.00  0.00    +0.108 C 
BRANCH   9   8
ATOM      3  C   UNL     1      -1.706   4.633  25.129  0.00  0.00    +0.152 A 
ATOM      4  C   UNL     1      -1.470   5.413  25.253  0.00  0.00    +0.038 A 
ATOM      5  C   UNL     1      -0.727   5.665  24.999  0.00  0.00    +0.003 A 
ATOM      6  C   UNL     1      -0.220   5.136  24.618  0.00  0.00    +0.001 A 
ATOM      7  C   UNL     1      -0.457   4.355  24.494  0.00  0.00    +0.018 A 
ATOM      8  C   UNL     1      -1.200   4.104  24.749  0.00  0.00    +0.082 A 
BRANCH   3   2
ATOM      1  C   UNL     1      -2.918   4.881  25.844  0.00  0.00    +0.253 C 
ATOM      2  O   UNL     1      -2.450   4.382  25.384  0.00  0.00    -0.470 OA
ENDBRANCH   3   2
ENDBRANCH   9   8
ENDBRANCH  13  12
ENDBRANCH  14  13
TORSDOF 8
ENDMDL
MODEL 7
REMARK VINA RESULT:      -8.5      2.633      4.770
REMARK  Name = 
REMARK  8 active torsions:
REMARK  status: ('A' for Active; 'I' for Inactive)
REMARK    1  A    between atoms: O_2  and  C_3
REMARK    2  A    between atoms: C_8  and  N_9
REMARK    3  A    between atoms: N_12  and  C_13
REMARK    4  A    between atoms: C_13  and  C_14
REMARK    5  A    between atoms: C_14  and  C_15
REMARK    6  A    between atoms: C_20  and  C_21
REMARK    7  A    between atoms: C_21  and  C_22
REMARK    8  A    between atoms: C_25  and  C_27
REMARK                            x       y       z     vdW  Elec       q    Type
REMARK                         _______ _______ _______ _____ _____    ______ ____
ROOT
ATOM     14  C   UNL     1      -1.300   0.896  24.718  0.00  0.00    +0.019 C 
ENDROOT
BRANCH  14  15
ATOM     15  C   UNL     1      -0.527   0.969  24.439  0.00  0.00    +0.022 C 
ATOM     16  C   UNL     1      -0.237   0.434  23.883  0.00  0.00    +0.093 C 
ATOM     17  N   UNL     1       0.536   0.506  23.604  0.00  0.00    -0.280 N 
ATOM     18  C   UNL     1       1.019   1.114  23.881  0.00  0.00    +0.093 C 
ATOM     19  C   UNL     1       0.729   1.650  24.438  0.00  0.00    +0.022 C 
ATOM     20  C   UNL     1      -0.044   1.577  24.717  0.00  0.00    +0.015 C 
ATOM     25  C   UNL     1       0.826  -0.029  23.047  0.00  0.00    +0.225 C 
ATOM     26  O   UNL     1       0.342  -0.637  22.769  0.00  0.00    -0.275 OA
BRANCH  25  27
ATOM     27  C   UNL     1       1.599   0.044  22.768  0.00  0.00    +0.077 C 
ATOM     28  C   UNL     1       2.127   0.122  22.139  0.00  0.00    +0.010 C 
ATOM     29  C   UNL     1       2.409   0.092  22.914  0.00  0.00    +0.010 C 
ENDBRANCH  25  27
BRANCH  20  21
ATOM     21  C   UNL     1      -0.333   2.112  25.273  0.00  0.00    +0.114 C 
BRANCH  21  22
ATOM     22  C   UNL     1       0.156   2.709  25.567  0.00  0.00    +0.365 C 
ATOM     23  O   UNL     1       0.650   2.557  26.210  0.00  0.00    -0.246 OA
ATOM     24  O   UNL     1       0.151   3.456  25.218  0.00  0.00    -0.246 OA
ENDBRANCH  21  22
ENDBRANCH  20  21
ENDBRANCH  14  15
BRANCH  14  13
ATOM     13  C   UNL     1      -1.916   0.742  24.190  0.00  0.00    +0.072 C 
BRANCH  13  12
ATOM      9  N   UNL     1      -4.221   1.461  24.737  0.00  0.00    -0.302 N 
ATOM     10  C   UNL     1      -3.830   0.920  25.224  0.00  0.00    +0.108 C 
ATOM     11  C   UNL     1      -3.062   0.681  25.042  0.00  0.00    +0.094 C 
ATOM     12  N   UNL     1      -2.684   0.982  24.373  0.00  0.00    -0.270 NA
ATOM     30  C   UNL     1      -3.074   1.522  23.887  0.00  0.00    +0.094 C 
ATOM     31  C   UNL     1      -3.842   1.761  24.069  0.00  0.00    +0.108 C 
BRANCH   9   8
ATOM      3  C   UNL     1      -5.117   2.420  25.301  0.00  0.00    +0.152 A 
ATOM      4  C   UNL     1      -5.885   2.660  25.483  0.00  0.00    +0.038 A 
ATOM      5  C   UNL     1      -6.525   2.179  25.284  0.00  0.00    +0.003 A 
ATOM      6  C   UNL     1      -6.397   1.458  24.903  0.00  0.00    +0.001 A 
ATOM      7  C   UNL     1      -5.629   1.219  24.720  0.00  0.00    +0.018 A 
ATOM      8  C   UNL     1      -4.989   1.700  24.920  0.00  0.00    +0.082 A 
BRANCH   3   2
ATOM      1  C   UNL     1      -4.606   3.638  25.846  0.00  0.00    +0.253 C 
ATOM      2  O   UNL     1      -4.477   2.902  25.500  0.00  0.00    -0.470 OA
ENDBRANCH   3   2
ENDBRANCH   9   8
ENDBRANCH  13  12
ENDBRANCH  14  13
TORSDOF 8
ENDMDL
MODEL 8
REMARK VINA RESULT:      -8.2      0.886      2.434
REMARK  Name = 
REMARK  8 active torsions:
REMARK  status: ('A' for Active; 'I' for Inactive)
REMARK    1  A    between atoms: O_2  and  C_3
REMARK    2  A    between atoms: C_8  and  N_9
REMARK    3  A    between atoms: N_12  and  C_13
REMARK    4  A    between atoms: C_13  and  C_14
REMARK    5  A    between atoms: C_14  and  C_15
REMARK    6  A    between atoms: C_20  and  C_21
REMARK    7  A    between atoms: C_21  and  C_22
REMARK    8  A    between atoms: C_25  and  C_27
REMARK                            x       y       z     vdW  Elec       q    Type
REMARK                         _______ _______ _______ _____ _____    ______ ____
ROOT
ATOM     14  C   UNL     1      -3.509   1.802  24.958  0.00  0.00    +0.019 C 
ENDROOT
BRANCH  14  15
ATOM     15  C   UNL     1      -3.751   2.579  25.098  0.00  0.00    +0.022 C 
ATOM     16  C   UNL     1      -4.553   2.751  25.183  0.00  0.00    +0.093 C 
ATOM     17  N   UNL     1      -4.795   3.527  25.322  0.00  0.00    -0.280 N 
ATOM     18  C   UNL     1      -4.236   4.131  25.376  0.00  0.00    +0.093 C 
ATOM     19  C   UNL     1      -3.433   3.958  25.291  0.00  0.00    +0.022 C 
ATOM     20  C   UNL     1      -3.191   3.182  25.152  0.00  0.00    +0.015 C 
ATOM     25  C   UNL     1      -5.597   3.701  25.408  0.00  0.00    +0.225 C 
ATOM     26  O   UNL     1      -6.157   3.097  25.354  0.00  0.00    -0.275 OA
BRANCH  25  27
ATOM     27  C   UNL     1      -5.839   4.477  25.547  0.00  0.00    +0.077 C 
ATOM     28  C   UNL     1      -5.931   5.115  26.062  0.00  0.00    +0.010 C 
ATOM     29  C   UNL     1      -6.166   5.183  25.274  0.00  0.00    +0.010 C 
ENDBRANCH  25  27
BRANCH  20  21
ATOM     21  C   UNL     1      -2.389   3.009  25.066  0.00  0.00    +0.114 C 
BRANCH  21  22
ATOM     22  C   UNL     1      -1.821   3.542  25.339  0.00  0.00    +0.365 C 
ATOM     23  O   UNL     1      -1.519   4.118  24.831  0.00  0.00    -0.246 OA
ATOM     24  O   UNL     1      -1.554   3.498  26.118  0.00  0.00    -0.246 OA
ENDBRANCH  21  22
ENDBRANCH  20  21
ENDBRANCH  14  15
BRANCH  14  13
ATOM     13  C   UNL     1      -4.069   1.218  24.793  0.00  0.00    +0.072 C 
BRANCH  13  12
ATOM      9  N   UNL     1      -3.366  -1.145  24.576  0.00  0.00    -0.302 N 
ATOM     10  C   UNL     1      -3.391  -0.658  23.909  0.00  0.00    +0.108 C 
ATOM     11  C   UNL     1      -3.625   0.130  23.982  0.00  0.00    +0.094 C 
ATOM     12  N   UNL     1      -3.835   0.431  24.721  0.00  0.00    -0.270 NA
ATOM     30  C   UNL     1      -3.811  -0.055  25.386  0.00  0.00    +0.094 C 
ATOM     31  C   UNL     1      -3.576  -0.842  25.314  0.00  0.00    +0.108 C 
BRANCH   9   8
ATOM      3  C   UNL     1      -2.335  -2.133  24.568  0.00  0.00    +0.152 A 
ATOM      4  C   UNL     1      -2.101  -2.920  24.496  0.00  0.00    +0.038 A 
ATOM      5  C   UNL     1      -2.663  -3.508  24.358  0.00  0.00    +0.003 A 
ATOM      6  C   UNL     1      -3.462  -3.307  24.293  0.00  0.00    +0.001 A 
ATOM      7  C   UNL     1      -3.696  -2.519  24.366  0.00  0.00    +0.018 A 
ATOM      8  C   UNL     1      -3.132  -1.932  24.503  0.00  0.00    +0.082 A 
BRANCH   3   2
ATOM      1  C   UNL     1      -0.979  -1.750  24.806  0.00  0.00    +0.253 C 
ATOM      2  O   UNL     1      -1.771  -1.546  24.705  0.00  0.00    -0.470 OA
ENDBRANCH   3   2
ENDBRANCH   9   8
ENDBRANCH  13  12
ENDBRANCH  14  13
TORSDOF 8
ENDMDL
