REMARK  Name = 
REMARK  5 active torsions:
REMARK  status: ('A' for Active; 'I' for Inactive)
REMARK    1  A    between atoms: C_4  and  C_22
REMARK    2  A    between atoms: C_5  and  N_6
REMARK    3  A    between atoms: N_6  and  S_7
REMARK    4  A    between atoms: S_7  and  C_10
REMARK    5  A    between atoms: C_13  and  C_16
REMARK                            x       y       z     vdW  Elec       q    Type
REMARK                         _______ _______ _______ _____ _____    ______ ____
ROOT
ATOM      6  N   UNL     1       5.748  -3.587   0.000  0.00  0.00    -0.076 NA
ENDROOT
BRANCH   6   5
ATOM      1  O   UNL     1       6.645  -0.825   0.000  0.00  0.00    -0.220 OA
ATOM      2  C   UNL     1       6.645  -1.650   0.000  0.00  0.00    +0.184 C 
ATOM      3  C   UNL     1       7.313  -2.135   0.000  0.00  0.00    +0.041 C 
ATOM      4  C   UNL     1       7.058  -2.920   0.000  0.00  0.00    +0.045 C 
ATOM      5  C   UNL     1       6.233  -2.920   0.000  0.00  0.00    +0.135 C 
ATOM     20  C   UNL     1       5.978  -2.135   0.000  0.00  0.00    +0.200 C 
ATOM     21  O   UNL     1       5.193  -1.880   0.000  0.00  0.00    -0.219 OA
BRANCH   4  22
ATOM     22  C   UNL     1       7.543  -3.587   0.000  0.00  0.00    -0.021 A 
ATOM     23  C   UNL     1       8.363  -3.501   0.000  0.00  0.00    -0.004 A 
ATOM     24  C   UNL     1       8.848  -4.168   0.000  0.00  0.00    -0.000 A 
ATOM     25  C   UNL     1       8.512  -4.922   0.000  0.00  0.00    -0.000 A 
ATOM     26  C   UNL     1       7.692  -5.008   0.000  0.00  0.00    -0.000 A 
ATOM     27  C   UNL     1       7.207  -4.341   0.000  0.00  0.00    -0.004 A 
ENDBRANCH   4  22
ENDBRANCH   6   5
BRANCH   6   7
ATOM      7  S   UNL     1       4.927  -3.501   0.000  0.00  0.00    +0.077 S 
ATOM      8  O   UNL     1       4.841  -4.321   0.000  0.00  0.00    -0.152 OA
ATOM      9  O   UNL     1       5.014  -2.680   0.000  0.00  0.00    -0.152 OA
BRANCH   7  10
ATOM     10  C   UNL     1       4.107  -3.414   0.000  0.00  0.00    +0.124 A 
ATOM     11  C   UNL     1       3.622  -4.082   0.000  0.00  0.00    +0.020 A 
ATOM     12  C   UNL     1       2.801  -3.996   0.000  0.00  0.00    +0.005 A 
ATOM     13  C   UNL     1       2.466  -3.242   0.000  0.00  0.00    +0.072 A 
ATOM     14  C   UNL     1       2.951  -2.575   0.000  0.00  0.00    +0.005 A 
ATOM     15  C   UNL     1       3.771  -2.661   0.000  0.00  0.00    +0.020 A 
BRANCH  13  16
ATOM     16  C   UNL     1       1.645  -3.156   0.000  0.00  0.00    +0.419 C 
ATOM     17  F   UNL     1       0.825  -3.070   0.000  0.00  0.00    -0.166 F 
ATOM     18  F   UNL     1       1.559  -3.976   0.000  0.00  0.00    -0.166 F 
ATOM     19  F   UNL     1       1.732  -2.335   0.000  0.00  0.00    -0.166 F 
ENDBRANCH  13  16
ENDBRANCH   7  10
ENDBRANCH   6   7
TORSDOF 5
