MODEL 1
REMARK VINA RESULT:     -10.9      0.000      0.000
REMARK  Name = 
REMARK  9 active torsions:
REMARK  status: ('A' for Active; 'I' for Inactive)
REMARK    1  A    between atoms: C_2  and  C_4
REMARK    2  A    between atoms: C_6  and  C_7
REMARK    3  A    between atoms: C_7  and  C_8
REMARK    4  A    between atoms: C_20  and  C_21
REMARK    5  A    between atoms: C_21  and  N_22
REMARK    6  A    between atoms: C_23  and  C_25
REMARK    7  A    between atoms: C_25  and  C_26
REMARK    8  A    between atoms: C_26  and  C_29
REMARK    9  A    between atoms: C_29  and  C_30
REMARK                            x       y       z     vdW  Elec       q    Type
REMARK                         _______ _______ _______ _____ _____    ______ ____
ROOT
ATOM      4  C   UNL     1      -3.321   1.521  23.760  0.00  0.00    +0.006 C 
ATOM      5  C   UNL     1      -3.790   0.842  23.780  0.00  0.00    +0.005 C 
ATOM      6  C   UNL     1      -4.356   0.750  24.373  0.00  0.00    +0.026 C 
ATOM     17  C   UNL     1      -4.453   1.336  24.946  0.00  0.00    -0.048 C 
ATOM     18  C   UNL     1      -5.019   1.244  25.539  0.00  0.00    +0.026 C 
ATOM     19  C   UNL     1      -3.983   2.014  24.925  0.00  0.00    -0.033 C 
ATOM     20  C   UNL     1      -3.417   2.106  24.332  0.00  0.00    +0.043 C 
ENDROOT
BRANCH   4   2
ATOM      1  C   UNL     1      -2.920   2.081  22.508  0.00  0.00    +0.000 C 
ATOM      2  C   UNL     1      -2.755   1.613  23.167  0.00  0.00    +0.000 C 
ATOM      3  C   UNL     1      -2.023   1.237  23.232  0.00  0.00    +0.000 C 
ENDBRANCH   4   2
BRANCH   6   7
ATOM      7  C   UNL     1      -4.826   0.072  24.394  0.00  0.00    +0.070 C 
BRANCH   7   8
ATOM      8  C   UNL     1      -4.474  -0.673  24.437  0.00  0.00    +0.141 A 
ATOM      9  N   UNL     1      -4.049  -0.972  25.078  0.00  0.00    -0.228 NA
ATOM     10  C   UNL     1      -3.799  -1.733  24.884  0.00  0.00    +0.118 A 
ATOM     11  C   UNL     1      -4.068  -1.905  24.124  0.00  0.00    +0.181 A 
ATOM     12  N   UNL     1      -4.486  -1.250  23.847  0.00  0.00    -0.210 NA
ATOM     13  N   UNL     1      -3.899  -2.636  23.782  0.00  0.00    -0.224 NA
ATOM     14  C   UNL     1      -3.459  -3.195  24.199  0.00  0.00    +0.101 A 
ATOM     15  C   UNL     1      -3.190  -3.023  24.960  0.00  0.00    +0.022 A 
ATOM     16  C   UNL     1      -3.359  -2.293  25.303  0.00  0.00    +0.024 A 
ENDBRANCH   7   8
ENDBRANCH   6   7
BRANCH  20  21
ATOM     21  C   UNL     1      -2.948   2.785  24.312  0.00  0.00    +0.119 C 
BRANCH  21  22
ATOM     22  N   UNL     1      -2.432   2.947  24.935  0.00  0.00    -0.205 NA
ATOM     23  C   UNL     1      -2.111   3.702  25.019  0.00  0.00    +0.241 C 
ATOM     24  O   UNL     1      -2.306   4.296  24.479  0.00  0.00    -0.273 OA
BRANCH  23  25
ATOM     25  C   UNL     1      -1.595   3.865  25.642  0.00  0.00    +0.087 C 
BRANCH  25  26
ATOM     26  C   UNL     1      -0.793   3.684  25.571  0.00  0.00    +0.019 C 
ATOM     27  C   UNL     1      -0.715   4.264  24.989  0.00  0.00    +0.001 C 
ATOM     28  C   UNL     1      -0.872   3.105  26.153  0.00  0.00    +0.001 C 
BRANCH  26  29
ATOM     29  C   UNL     1       0.009   3.504  25.499  0.00  0.00    +0.115 C 
BRANCH  29  30
ATOM     30  C   UNL     1       0.310   2.816  25.841  0.00  0.00    +0.365 C 
ATOM     31  O   UNL     1       0.479   2.798  26.649  0.00  0.00    -0.246 OA
ATOM     32  O   UNL     1       0.442   2.148  25.376  0.00  0.00    -0.246 OA
ENDBRANCH  29  30
ENDBRANCH  26  29
ENDBRANCH  25  26
ENDBRANCH  23  25
ENDBRANCH  21  22
ENDBRANCH  20  21
TORSDOF 9
ENDMDL
MODEL 2
REMARK VINA RESULT:     -10.8      2.677      4.336
REMARK  Name = 
REMARK  9 active torsions:
REMARK  status: ('A' for Active; 'I' for Inactive)
REMARK    1  A    between atoms: C_2  and  C_4
REMARK    2  A    between atoms: C_6  and  C_7
REMARK    3  A    between atoms: C_7  and  C_8
REMARK    4  A    between atoms: C_20  and  C_21
REMARK    5  A    between atoms: C_21  and  N_22
REMARK    6  A    between atoms: C_23  and  C_25
REMARK    7  A    between atoms: C_25  and  C_26
REMARK    8  A    between atoms: C_26  and  C_29
REMARK    9  A    between atoms: C_29  and  C_30
REMARK                            x       y       z     vdW  Elec       q    Type
REMARK                         _______ _______ _______ _____ _____    ______ ____
ROOT
ATOM      4  C   UNL     1      -1.508   1.667  24.553  0.00  0.00    +0.006 C 
ATOM      5  C   UNL     1      -2.177   2.147  24.512  0.00  0.00    +0.005 C 
ATOM      6  C   UNL     1      -2.533   2.295  23.782  0.00  0.00    +0.026 C 
ATOM     17  C   UNL     1      -2.220   1.963  23.095  0.00  0.00    -0.048 C 
ATOM     18  C   UNL     1      -2.576   2.111  22.365  0.00  0.00    +0.026 C 
ATOM     19  C   UNL     1      -1.550   1.483  23.138  0.00  0.00    -0.033 C 
ATOM     20  C   UNL     1      -1.194   1.335  23.867  0.00  0.00    +0.043 C 
ENDROOT
BRANCH   4   2
ATOM      1  C   UNL     1      -1.307   0.814  25.683  0.00  0.00    +0.000 C 
ATOM      2  C   UNL     1      -1.152   1.519  25.283  0.00  0.00    +0.000 C 
ATOM      3  C   UNL     1      -0.639   2.076  25.613  0.00  0.00    +0.000 C 
ENDBRANCH   4   2
BRANCH   6   7
ATOM      7  C   UNL     1      -3.203   2.775  23.739  0.00  0.00    +0.070 C 
BRANCH   7   8
ATOM      8  C   UNL     1      -3.843   2.636  24.241  0.00  0.00    +0.141 A 
ATOM      9  N   UNL     1      -4.376   2.009  24.186  0.00  0.00    -0.228 NA
ATOM     10  C   UNL     1      -4.924   2.086  24.797  0.00  0.00    +0.118 A 
ATOM     11  C   UNL     1      -4.731   2.762  25.229  0.00  0.00    +0.181 A 
ATOM     12  N   UNL     1      -4.063   3.102  24.886  0.00  0.00    -0.210 NA
ATOM     13  N   UNL     1      -5.190   2.979  25.880  0.00  0.00    -0.224 NA
ATOM     14  C   UNL     1      -5.840   2.522  26.098  0.00  0.00    +0.101 A 
ATOM     15  C   UNL     1      -6.033   1.847  25.666  0.00  0.00    +0.022 A 
ATOM     16  C   UNL     1      -5.576   1.628  25.015  0.00  0.00    +0.024 A 
ENDBRANCH   7   8
ENDBRANCH   6   7
BRANCH  20  21
ATOM     21  C   UNL     1      -0.524   0.855  23.909  0.00  0.00    +0.119 C 
BRANCH  21  22
ATOM     22  N   UNL     1       0.049   0.895  23.316  0.00  0.00    -0.205 NA
ATOM     23  C   UNL     1       0.592   0.281  23.225  0.00  0.00    +0.241 C 
ATOM     24  O   UNL     1       0.562  -0.374  23.727  0.00  0.00    -0.273 OA
BRANCH  23  25
ATOM     25  C   UNL     1       1.165   0.321  22.633  0.00  0.00    +0.087 C 
BRANCH  25  26
ATOM     26  C   UNL     1       1.958   0.184  22.817  0.00  0.00    +0.019 C 
ATOM     27  C   UNL     1       1.907  -0.566  22.476  0.00  0.00    +0.001 C 
ATOM     28  C   UNL     1       2.008   0.934  23.156  0.00  0.00    +0.001 C 
BRANCH  26  29
ATOM     29  C   UNL     1       2.750   0.047  23.000  0.00  0.00    +0.115 C 
BRANCH  29  30
ATOM     30  C   UNL     1       3.342   0.490  22.633  0.00  0.00    +0.365 C 
ATOM     31  O   UNL     1       3.816   0.994  23.082  0.00  0.00    -0.246 OA
ATOM     32  O   UNL     1       3.458   0.428  21.819  0.00  0.00    -0.246 OA
ENDBRANCH  29  30
ENDBRANCH  26  29
ENDBRANCH  25  26
ENDBRANCH  23  25
ENDBRANCH  21  22
ENDBRANCH  20  21
TORSDOF 9
ENDMDL
MODEL 3
REMARK VINA RESULT:     -10.6      1.981      5.203
REMARK  Name = 
REMARK  9 active torsions:
REMARK  status: ('A' for Active; 'I' for Inactive)
REMARK    1  A    between atoms: C_2  and  C_4
REMARK    2  A    between atoms: C_6  and  C_7
REMARK    3  A    between atoms: C_7  and  C_8
REMARK    4  A    between atoms: C_20  and  C_21
REMARK    5  A    between atoms: C_21  and  N_22
REMARK    6  A    between atoms: C_23  and  C_25
REMARK    7  A    between atoms: C_25  and  C_26
REMARK    8  A    between atoms: C_26  and  C_29
REMARK    9  A    between atoms: C_29  and  C_30
REMARK                            x       y       z     vdW  Elec       q    Type
REMARK                         _______ _______ _______ _____ _____    ______ ____
ROOT
ATOM      4  C   UNL     1      -3.508   1.437  23.945  0.00  0.00    +0.006 C 
ATOM      5  C   UNL     1      -3.526   2.215  24.220  0.00  0.00    +0.005 C 
ATOM      6  C   UNL     1      -4.085   2.441  24.782  0.00  0.00    +0.026 C 
ATOM     17  C   UNL     1      -4.626   1.889  25.071  0.00  0.00    -0.048 C 
ATOM     18  C   UNL     1      -5.186   2.115  25.634  0.00  0.00    +0.026 C 
ATOM     19  C   UNL     1      -4.608   1.111  24.797  0.00  0.00    -0.033 C 
ATOM     20  C   UNL     1      -4.048   0.886  24.234  0.00  0.00    +0.043 C 
ENDROOT
BRANCH   4   2
ATOM      1  C   UNL     1      -2.214   0.923  23.623  0.00  0.00    +0.000 C 
ATOM      2  C   UNL     1      -2.949   1.211  23.382  0.00  0.00    +0.000 C 
ATOM      3  C   UNL     1      -3.124   1.274  22.578  0.00  0.00    +0.000 C 
ENDBRANCH   4   2
BRANCH   6   7
ATOM      7  C   UNL     1      -4.104   3.219  25.057  0.00  0.00    +0.070 C 
BRANCH   7   8
ATOM      8  C   UNL     1      -3.409   3.662  25.089  0.00  0.00    +0.141 A 
ATOM      9  N   UNL     1      -2.775   3.536  25.601  0.00  0.00    -0.228 NA
ATOM     10  C   UNL     1      -2.201   4.106  25.443  0.00  0.00    +0.118 A 
ATOM     11  C   UNL     1      -2.480   4.585  24.832  0.00  0.00    +0.181 A 
ATOM     12  N   UNL     1      -3.226   4.312  24.613  0.00  0.00    -0.210 NA
ATOM     13  N   UNL     1      -2.017   5.209  24.554  0.00  0.00    -0.224 NA
ATOM     14  C   UNL     1      -1.276   5.354  24.887  0.00  0.00    +0.101 A 
ATOM     15  C   UNL     1      -0.998   4.874  25.498  0.00  0.00    +0.022 A 
ATOM     16  C   UNL     1      -1.460   4.250  25.776  0.00  0.00    +0.024 A 
ENDBRANCH   7   8
ENDBRANCH   6   7
BRANCH  20  21
ATOM     21  C   UNL     1      -4.031   0.107  23.960  0.00  0.00    +0.119 C 
BRANCH  21  22
ATOM     22  N   UNL     1      -3.944  -0.516  24.493  0.00  0.00    -0.205 NA
ATOM     23  C   UNL     1      -4.111  -1.288  24.257  0.00  0.00    +0.241 C 
ATOM     24  O   UNL     1      -4.364  -1.438  23.486  0.00  0.00    -0.273 OA
BRANCH  23  25
ATOM     25  C   UNL     1      -4.024  -1.911  24.791  0.00  0.00    +0.087 C 
BRANCH  25  26
ATOM     26  C   UNL     1      -3.409  -2.453  24.696  0.00  0.00    +0.019 C 
ATOM     27  C   UNL     1      -3.752  -2.717  23.993  0.00  0.00    +0.001 C 
ATOM     28  C   UNL     1      -3.067  -2.189  25.398  0.00  0.00    +0.001 C 
BRANCH  26  29
ATOM     29  C   UNL     1      -2.795  -2.995  24.600  0.00  0.00    +0.115 C 
BRANCH  29  30
ATOM     30  C   UNL     1      -2.011  -2.738  24.615  0.00  0.00    +0.365 C 
ATOM     31  O   UNL     1      -1.597  -2.635  23.909  0.00  0.00    -0.246 OA
ATOM     32  O   UNL     1      -1.642  -2.584  25.336  0.00  0.00    -0.246 OA
ENDBRANCH  29  30
ENDBRANCH  26  29
ENDBRANCH  25  26
ENDBRANCH  23  25
ENDBRANCH  21  22
ENDBRANCH  20  21
TORSDOF 9
ENDMDL
MODEL 4
REMARK VINA RESULT:     -10.5      1.190      2.050
REMARK  Name = 
REMARK  9 active torsions:
REMARK  status: ('A' for Active; 'I' for Inactive)
REMARK    1  A    between atoms: C_2  and  C_4
REMARK    2  A    between atoms: C_6  and  C_7
REMARK    3  A    between atoms: C_7  and  C_8
REMARK    4  A    between atoms: C_20  and  C_21
REMARK    5  A    between atoms: C_21  and  N_22
REMARK    6  A    between atoms: C_23  and  C_25
REMARK    7  A    between atoms: C_25  and  C_26
REMARK    8  A    between atoms: C_26  and  C_29
REMARK    9  A    between atoms: C_29  and  C_30
REMARK                            x       y       z     vdW  Elec       q    Type
REMARK                         _______ _______ _______ _____ _____    ______ ____
ROOT
ATOM      4  C   UNL     1      -4.579   1.348  24.653  0.00  0.00    +0.006 C 
ATOM      5  C   UNL     1      -4.473   0.645  24.233  0.00  0.00    +0.005 C 
ATOM      6  C   UNL     1      -3.832   0.565  23.719  0.00  0.00    +0.026 C 
ATOM     17  C   UNL     1      -3.297   1.187  23.626  0.00  0.00    -0.048 C 
ATOM     18  C   UNL     1      -2.656   1.107  23.112  0.00  0.00    +0.026 C 
ATOM     19  C   UNL     1      -3.404   1.889  24.047  0.00  0.00    -0.033 C 
ATOM     20  C   UNL     1      -4.045   1.969  24.560  0.00  0.00    +0.043 C 
ENDROOT
BRANCH   4   2
ATOM      1  C   UNL     1      -5.164   1.153  25.942  0.00  0.00    +0.000 C 
ATOM      2  C   UNL     1      -5.219   1.428  25.166  0.00  0.00    +0.000 C 
ATOM      3  C   UNL     1      -5.917   1.783  24.904  0.00  0.00    +0.000 C 
ENDBRANCH   4   2
BRANCH   6   7
ATOM      7  C   UNL     1      -3.725  -0.136  23.299  0.00  0.00    +0.070 C 
BRANCH   7   8
ATOM      8  C   UNL     1      -3.613  -0.847  23.702  0.00  0.00    +0.141 A 
ATOM      9  N   UNL     1      -2.966  -1.038  24.177  0.00  0.00    -0.228 NA
ATOM     10  C   UNL     1      -3.082  -1.800  24.470  0.00  0.00    +0.118 A 
ATOM     11  C   UNL     1      -3.800  -2.080  24.176  0.00  0.00    +0.181 A 
ATOM     12  N   UNL     1      -4.128  -1.492  23.701  0.00  0.00    -0.210 NA
ATOM     13  N   UNL     1      -4.061  -2.836  24.379  0.00  0.00    -0.224 NA
ATOM     14  C   UNL     1      -3.606  -3.312  24.875  0.00  0.00    +0.101 A 
ATOM     15  C   UNL     1      -2.888  -3.031  25.169  0.00  0.00    +0.022 A 
ATOM     16  C   UNL     1      -2.625  -2.276  24.967  0.00  0.00    +0.024 A 
ENDBRANCH   7   8
ENDBRANCH   6   7
BRANCH  20  21
ATOM     21  C   UNL     1      -4.151   2.671  24.980  0.00  0.00    +0.119 C 
BRANCH  21  22
ATOM     22  N   UNL     1      -3.686   3.330  24.806  0.00  0.00    -0.205 NA
ATOM     23  C   UNL     1      -3.522   3.887  25.392  0.00  0.00    +0.241 C 
ATOM     24  O   UNL     1      -3.824   3.785  26.153  0.00  0.00    -0.273 OA
BRANCH  23  25
ATOM     25  C   UNL     1      -3.057   4.545  25.217  0.00  0.00    +0.087 C 
BRANCH  25  26
ATOM     26  C   UNL     1      -2.245   4.527  25.362  0.00  0.00    +0.019 C 
ATOM     27  C   UNL     1      -2.392   4.444  26.171  0.00  0.00    +0.001 C 
ATOM     28  C   UNL     1      -2.098   4.609  24.555  0.00  0.00    +0.001 C 
BRANCH  26  29
ATOM     29  C   UNL     1      -1.433   4.508  25.509  0.00  0.00    +0.115 C 
BRANCH  29  30
ATOM     30  C   UNL     1      -0.913   4.901  25.004  0.00  0.00    +0.365 C 
ATOM     31  O   UNL     1      -0.404   4.469  24.519  0.00  0.00    -0.246 OA
ATOM     32  O   UNL     1      -0.902   5.725  24.985  0.00  0.00    -0.246 OA
ENDBRANCH  29  30
ENDBRANCH  26  29
ENDBRANCH  25  26
ENDBRANCH  23  25
ENDBRANCH  21  22
ENDBRANCH  20  21
TORSDOF 9
ENDMDL
MODEL 5
REMARK VINA RESULT:     -10.3      1.775      2.743
REMARK  Name = 
REMARK  9 active torsions:
REMARK  status: ('A' for Active; 'I' for Inactive)
REMARK    1  A    between atoms: C_2  and  C_4
REMARK    2  A    between atoms: C_6  and  C_7
REMARK    3  A    between atoms: C_7  and  C_8
REMARK    4  A    between atoms: C_20  and  C_21
REMARK    5  A    between atoms: C_21  and  N_22
REMARK    6  A    between atoms: C_23  and  C_25
REMARK    7  A    between atoms: C_25  and  C_26
REMARK    8  A    between atoms: C_26  and  C_29
REMARK    9  A    between atoms: C_29  and  C_30
REMARK                            x       y       z     vdW  Elec       q    Type
REMARK                         _______ _______ _______ _____ _____    ______ ____
ROOT
ATOM      4  C   UNL     1      -0.574   0.012  24.385  0.00  0.00    +0.006 C 
ATOM      5  C   UNL     1      -0.886  -0.747  24.470  0.00  0.00    +0.005 C 
ATOM      6  C   UNL     1      -1.170  -0.996  25.203  0.00  0.00    +0.026 C 
ATOM     17  C   UNL     1      -1.142  -0.486  25.852  0.00  0.00    -0.048 C 
ATOM     18  C   UNL     1      -1.426  -0.735  26.586  0.00  0.00    +0.026 C 
ATOM     19  C   UNL     1      -0.829   0.272  25.766  0.00  0.00    -0.033 C 
ATOM     20  C   UNL     1      -0.546   0.522  25.033  0.00  0.00    +0.043 C 
ENDROOT
BRANCH   4   2
ATOM      1  C   UNL     1       0.487   0.095  23.431  0.00  0.00    +0.000 C 
ATOM      2  C   UNL     1      -0.290   0.262  23.652  0.00  0.00    +0.000 C 
ATOM      3  C   UNL     1      -0.784   0.679  23.138  0.00  0.00    +0.000 C 
ENDBRANCH   4   2
BRANCH   6   7
ATOM      7  C   UNL     1      -1.483  -1.755  25.289  0.00  0.00    +0.070 C 
BRANCH   7   8
ATOM      8  C   UNL     1      -2.184  -1.958  24.906  0.00  0.00    +0.141 A 
ATOM      9  N   UNL     1      -2.877  -1.511  24.893  0.00  0.00    -0.228 NA
ATOM     10  C   UNL     1      -3.437  -1.921  24.447  0.00  0.00    +0.118 A 
ATOM     11  C   UNL     1      -3.090  -2.622  24.184  0.00  0.00    +0.181 A 
ATOM     12  N   UNL     1      -2.316  -2.645  24.467  0.00  0.00    -0.210 NA
ATOM     13  N   UNL     1      -3.524  -3.148  23.720  0.00  0.00    -0.224 NA
ATOM     14  C   UNL     1      -4.305  -2.975  23.520  0.00  0.00    +0.101 A 
ATOM     15  C   UNL     1      -4.652  -2.274  23.783  0.00  0.00    +0.022 A 
ATOM     16  C   UNL     1      -4.219  -1.747  24.247  0.00  0.00    +0.024 A 
ENDBRANCH   7   8
ENDBRANCH   6   7
BRANCH  20  21
ATOM     21  C   UNL     1      -0.233   1.281  24.948  0.00  0.00    +0.119 C 
BRANCH  21  22
ATOM     22  N   UNL     1      -0.590   1.918  25.332  0.00  0.00    -0.205 NA
ATOM     23  C   UNL     1      -0.197   2.641  25.384  0.00  0.00    +0.241 C 
ATOM     24  O   UNL     1       0.555   2.727  25.053  0.00  0.00    -0.273 OA
BRANCH  23  25
ATOM     25  C   UNL     1      -0.554   3.279  25.768  0.00  0.00    +0.087 C 
BRANCH  25  26
ATOM     26  C   UNL     1      -1.033   3.799  25.343  0.00  0.00    +0.019 C 
ATOM     27  C   UNL     1      -1.693   3.531  25.761  0.00  0.00    +0.001 C 
ATOM     28  C   UNL     1      -0.374   4.066  24.926  0.00  0.00    +0.001 C 
BRANCH  26  29
ATOM     29  C   UNL     1      -1.514   4.319  24.919  0.00  0.00    +0.115 C 
BRANCH  29  30
ATOM     30  C   UNL     1      -1.751   5.032  25.258  0.00  0.00    +0.365 C 
ATOM     31  O   UNL     1      -2.415   5.055  25.747  0.00  0.00    -0.246 OA
ATOM     32  O   UNL     1      -1.324   5.721  25.109  0.00  0.00    -0.246 OA
ENDBRANCH  29  30
ENDBRANCH  26  29
ENDBRANCH  25  26
ENDBRANCH  23  25
ENDBRANCH  21  22
ENDBRANCH  20  21
TORSDOF 9
ENDMDL
MODEL 6
REMARK VINA RESULT:      -9.9      3.011      4.708
REMARK  Name = 
REMARK  9 active torsions:
REMARK  status: ('A' for Active; 'I' for Inactive)
REMARK    1  A    between atoms: C_2  and  C_4
REMARK    2  A    between atoms: C_6  and  C_7
REMARK    3  A    between atoms: C_7  and  C_8
REMARK    4  A    between atoms: C_20  and  C_21
REMARK    5  A    between atoms: C_21  and  N_22
REMARK    6  A    between atoms: C_23  and  C_25
REMARK    7  A    between atoms: C_25  and  C_26
REMARK    8  A    between atoms: C_26  and  C_29
REMARK    9  A    between atoms: C_29  and  C_30
REMARK                            x       y       z     vdW  Elec       q    Type
REMARK                         _______ _______ _______ _____ _____    ______ ____
ROOT
ATOM      4  C   UNL     1      -0.845   1.686  24.698  0.00  0.00    +0.006 C 
ATOM      5  C   UNL     1      -0.317   1.066  24.563  0.00  0.00    +0.005 C 
ATOM      6  C   UNL     1      -0.603   0.303  24.433  0.00  0.00    +0.026 C 
ATOM     17  C   UNL     1      -1.416   0.159  24.439  0.00  0.00    -0.048 C 
ATOM     18  C   UNL     1      -1.701  -0.604  24.310  0.00  0.00    +0.026 C 
ATOM     19  C   UNL     1      -1.942   0.780  24.574  0.00  0.00    -0.033 C 
ATOM     20  C   UNL     1      -1.657   1.543  24.704  0.00  0.00    +0.043 C 
ENDROOT
BRANCH   4   2
ATOM      1  C   UNL     1      -0.490   2.976  24.197  0.00  0.00    +0.000 C 
ATOM      2  C   UNL     1      -0.560   2.449  24.827  0.00  0.00    +0.000 C 
ATOM      3  C   UNL     1      -0.344   2.686  25.588  0.00  0.00    +0.000 C 
ENDBRANCH   4   2
BRANCH   6   7
ATOM      7  C   UNL     1      -0.076  -0.318  24.298  0.00  0.00    +0.070 C 
BRANCH   7   8
ATOM      8  C   UNL     1       0.522  -0.237  23.736  0.00  0.00    +0.141 A 
ATOM      9  N   UNL     1       1.291   0.024  23.881  0.00  0.00    -0.228 NA
ATOM     10  C   UNL     1       1.700   0.020  23.165  0.00  0.00    +0.118 A 
ATOM     11  C   UNL     1       1.184  -0.244  22.578  0.00  0.00    +0.181 A 
ATOM     12  N   UNL     1       0.456  -0.402  22.930  0.00  0.00    -0.210 NA
ATOM     13  N   UNL     1       1.445  -0.305  21.797  0.00  0.00    -0.224 NA
ATOM     14  C   UNL     1       2.221  -0.103  21.604  0.00  0.00    +0.101 A 
ATOM     15  C   UNL     1       2.737   0.160  22.192  0.00  0.00    +0.022 A 
ATOM     16  C   UNL     1       2.477   0.222  22.972  0.00  0.00    +0.024 A 
ENDBRANCH   7   8
ENDBRANCH   6   7
BRANCH  20  21
ATOM     21  C   UNL     1      -2.185   2.163  24.839  0.00  0.00    +0.119 C 
BRANCH  21  22
ATOM     22  N   UNL     1      -2.969   2.098  24.589  0.00  0.00    -0.205 NA
ATOM     23  C   UNL     1      -3.540   2.613  24.887  0.00  0.00    +0.241 C 
ATOM     24  O   UNL     1      -3.328   3.193  25.435  0.00  0.00    -0.273 OA
BRANCH  23  25
ATOM     25  C   UNL     1      -4.324   2.548  24.638  0.00  0.00    +0.087 C 
BRANCH  25  26
ATOM     26  C   UNL     1      -4.937   2.592  25.189  0.00  0.00    +0.019 C 
ATOM     27  C   UNL     1      -4.900   3.416  25.163  0.00  0.00    +0.001 C 
ATOM     28  C   UNL     1      -4.973   1.769  25.214  0.00  0.00    +0.001 C 
BRANCH  26  29
ATOM     29  C   UNL     1      -5.549   2.637  25.740  0.00  0.00    +0.115 C 
BRANCH  29  30
ATOM     30  C   UNL     1      -6.187   2.116  25.691  0.00  0.00    +0.365 C 
ATOM     31  O   UNL     1      -6.623   2.062  24.993  0.00  0.00    -0.246 OA
ATOM     32  O   UNL     1      -6.388   1.649  26.341  0.00  0.00    -0.246 OA
ENDBRANCH  29  30
ENDBRANCH  26  29
ENDBRANCH  25  26
ENDBRANCH  23  25
ENDBRANCH  21  22
ENDBRANCH  20  21
TORSDOF 9
ENDMDL
