MODEL 1
REMARK VINA RESULT:      -7.3      0.000      0.000
REMARK  Name = 
REMARK  11 active torsions:
REMARK  status: ('A' for Active; 'I' for Inactive)
REMARK    1  A    between atoms: O_2  and  C_3
REMARK    2  A    between atoms: C_6  and  S_9
REMARK    3  A    between atoms: S_9  and  N_12
REMARK    4  A    between atoms: N_12  and  C_13
REMARK    5  A    between atoms: C_13  and  C_14
REMARK    6  A    between atoms: C_18  and  C_19
REMARK    7  A    between atoms: C_19  and  C_20
REMARK    8  A    between atoms: N_22  and  C_23
REMARK    9  A    between atoms: C_23  and  C_24
REMARK   10  A    between atoms: C_24  and  N_25
REMARK   11  A    between atoms: C_29  and  C_30
REMARK                            x       y       z     vdW  Elec       q    Type
REMARK                         _______ _______ _______ _____ _____    ______ ____
ROOT
ATOM     14  C   UNL     1      -1.271   0.989  24.300  0.00  0.00    +0.041 C 
ATOM     15  C   UNL     1      -1.379   0.191  24.121  0.00  0.00    -0.033 C 
ATOM     16  C   UNL     1      -0.731  -0.277  23.915  0.00  0.00    -0.048 C 
ATOM     17  C   UNL     1      -0.839  -1.075  23.737  0.00  0.00    +0.026 C 
ATOM     18  C   UNL     1       0.024   0.054  23.887  0.00  0.00    +0.027 C 
ATOM     28  C   UNL     1       0.132   0.852  24.066  0.00  0.00    +0.005 C 
ATOM     29  C   UNL     1      -0.516   1.319  24.272  0.00  0.00    +0.006 C 
ENDROOT
BRANCH  29  30
ATOM     30  C   UNL     1      -0.408   2.118  24.451  0.00  0.00    +0.000 C 
ATOM     31  C   UNL     1      -0.233   2.348  25.223  0.00  0.00    +0.000 C 
ATOM     32  C   UNL     1      -0.477   2.686  23.856  0.00  0.00    +0.000 C 
ENDBRANCH  29  30
BRANCH  14  13
ATOM     13  C   UNL     1      -1.918   1.456  24.506  0.00  0.00    +0.120 C 
BRANCH  13  12
ATOM     12  N   UNL     1      -2.685   1.160  24.421  0.00  0.00    -0.077 NA
BRANCH  12   9
ATOM      9  S   UNL     1      -3.331   1.615  24.658  0.00  0.00    +0.077 S 
ATOM     10  O   UNL     1      -3.234   1.347  25.433  0.00  0.00    -0.152 OA
ATOM     11  O   UNL     1      -3.427   1.882  23.883  0.00  0.00    -0.152 OA
BRANCH   9   6
ATOM      3  C   UNL     1      -5.268   2.981  25.370  0.00  0.00    +0.139 A 
ATOM      4  C   UNL     1      -5.340   2.160  25.311  0.00  0.00    +0.038 A 
ATOM      5  C   UNL     1      -4.695   1.706  25.074  0.00  0.00    +0.023 A 
ATOM      6  C   UNL     1      -3.976   2.070  24.895  0.00  0.00    +0.124 A 
ATOM      7  C   UNL     1      -3.904   2.890  24.954  0.00  0.00    +0.023 A 
ATOM      8  C   UNL     1      -4.550   3.345  25.192  0.00  0.00    +0.038 A 
BRANCH   3   2
ATOM      1  C   UNL     1      -5.858   4.259  25.617  0.00  0.00    +0.252 C 
ATOM      2  O   UNL     1      -5.914   3.436  25.608  0.00  0.00    -0.471 OA
ENDBRANCH   3   2
ENDBRANCH   9   6
ENDBRANCH  12   9
ENDBRANCH  13  12
ENDBRANCH  14  13
BRANCH  18  19
ATOM     19  C   UNL     1       0.673  -0.414  23.681  0.00  0.00    +0.091 C 
BRANCH  19  20
ATOM     20  C   UNL     1       1.212  -0.145  23.118  0.00  0.00    +0.242 C 
ATOM     21  O   UNL     1       0.956   0.039  22.356  0.00  0.00    -0.273 OA
ATOM     22  N   UNL     1       2.008  -0.061  23.318  0.00  0.00    -0.204 NA
BRANCH  22  23
ATOM     23  C   UNL     1       2.548   0.208  22.755  0.00  0.00    +0.132 C 
BRANCH  23  24
ATOM     24  C   UNL     1       3.328  -0.060  22.772  0.00  0.00    +0.096 C 
BRANCH  24  25
ATOM     25  N   UNL     1       3.951   0.483  22.772  0.00  0.00    -0.269 NA
ATOM     26  C   UNL     1       4.653   0.303  23.164  0.00  0.00    +0.090 C 
ATOM     27  C   UNL     1       3.869   1.205  22.381  0.00  0.00    +0.090 C 
ENDBRANCH  24  25
ENDBRANCH  23  24
ENDBRANCH  22  23
ENDBRANCH  19  20
ENDBRANCH  18  19
TORSDOF 11
ENDMDL
MODEL 2
REMARK VINA RESULT:      -7.1      1.716      6.451
REMARK  Name = 
REMARK  11 active torsions:
REMARK  status: ('A' for Active; 'I' for Inactive)
REMARK    1  A    between atoms: O_2  and  C_3
REMARK    2  A    between atoms: C_6  and  S_9
REMARK    3  A    between atoms: S_9  and  N_12
REMARK    4  A    between atoms: N_12  and  C_13
REMARK    5  A    between atoms: C_13  and  C_14
REMARK    6  A    between atoms: C_18  and  C_19
REMARK    7  A    between atoms: C_19  and  C_20
REMARK    8  A    between atoms: N_22  and  C_23
REMARK    9  A    between atoms: C_23  and  C_24
REMARK   10  A    between atoms: C_24  and  N_25
REMARK   11  A    between atoms: C_29  and  C_30
REMARK                            x       y       z     vdW  Elec       q    Type
REMARK                         _______ _______ _______ _____ _____    ______ ____
ROOT
ATOM     14  C   UNL     1      -1.096   0.187  24.233  0.00  0.00    +0.041 C 
ATOM     15  C   UNL     1      -1.318  -0.604  24.308  0.00  0.00    -0.033 C 
ATOM     16  C   UNL     1      -2.059  -0.798  24.612  0.00  0.00    -0.048 C 
ATOM     17  C   UNL     1      -2.281  -1.589  24.686  0.00  0.00    +0.026 C 
ATOM     18  C   UNL     1      -2.580  -0.200  24.842  0.00  0.00    +0.027 C 
ATOM     28  C   UNL     1      -2.359   0.591  24.767  0.00  0.00    +0.005 C 
ATOM     29  C   UNL     1      -1.616   0.784  24.463  0.00  0.00    +0.006 C 
ENDROOT
BRANCH  29  30
ATOM     30  C   UNL     1      -1.395   1.576  24.388  0.00  0.00    +0.000 C 
ATOM     31  C   UNL     1      -1.017   1.959  25.013  0.00  0.00    +0.000 C 
ATOM     32  C   UNL     1      -1.551   1.984  23.687  0.00  0.00    +0.000 C 
ENDBRANCH  29  30
BRANCH  14  13
ATOM     13  C   UNL     1      -0.355   0.381  23.929  0.00  0.00    +0.120 C 
BRANCH  13  12
ATOM     12  N   UNL     1       0.097  -0.195  23.546  0.00  0.00    -0.077 NA
BRANCH  12   9
ATOM      9  S   UNL     1       0.860  -0.015  23.288  0.00  0.00    +0.077 S 
ATOM     10  O   UNL     1       1.147  -0.137  24.052  0.00  0.00    -0.152 OA
ATOM     11  O   UNL     1       0.573   0.107  22.524  0.00  0.00    -0.152 OA
BRANCH   9   6
ATOM      3  C   UNL     1       3.148   0.525  22.515  0.00  0.00    +0.139 A 
ATOM      4  C   UNL     1       2.726  -0.089  22.158  0.00  0.00    +0.038 A 
ATOM      5  C   UNL     1       1.964  -0.269  22.416  0.00  0.00    +0.023 A 
ATOM      6  C   UNL     1       1.622   0.164  23.030  0.00  0.00    +0.124 A 
ATOM      7  C   UNL     1       2.045   0.778  23.386  0.00  0.00    +0.023 A 
ATOM      8  C   UNL     1       2.808   0.958  23.128  0.00  0.00    +0.038 A 
BRANCH   3   2
ATOM      1  C   UNL     1       4.556   0.576  22.755  0.00  0.00    +0.252 C 
ATOM      2  O   UNL     1       3.911   0.704  22.256  0.00  0.00    -0.471 OA
ENDBRANCH   3   2
ENDBRANCH   9   6
ENDBRANCH  12   9
ENDBRANCH  13  12
ENDBRANCH  14  13
BRANCH  18  19
ATOM     19  C   UNL     1      -3.323  -0.394  25.146  0.00  0.00    +0.091 C 
BRANCH  19  20
ATOM     20  C   UNL     1      -3.994   0.004  24.879  0.00  0.00    +0.242 C 
ATOM     21  O   UNL     1      -4.287  -0.142  24.122  0.00  0.00    -0.273 OA
ATOM     22  N   UNL     1      -4.372   0.549  25.370  0.00  0.00    -0.204 NA
BRANCH  22  23
ATOM     23  C   UNL     1      -5.044   0.947  25.103  0.00  0.00    +0.132 C 
BRANCH  23  24
ATOM     24  C   UNL     1      -5.464   1.435  25.618  0.00  0.00    +0.096 C 
BRANCH  24  25
ATOM     25  N   UNL     1      -5.854   2.103  25.327  0.00  0.00    -0.269 NA
ATOM     26  C   UNL     1      -6.575   2.021  24.936  0.00  0.00    +0.090 C 
ATOM     27  C   UNL     1      -5.521   2.851  25.428  0.00  0.00    +0.090 C 
ENDBRANCH  24  25
ENDBRANCH  23  24
ENDBRANCH  22  23
ENDBRANCH  19  20
ENDBRANCH  18  19
TORSDOF 11
ENDMDL
MODEL 3
REMARK VINA RESULT:      -6.6      3.420      5.412
REMARK  Name = 
REMARK  11 active torsions:
REMARK  status: ('A' for Active; 'I' for Inactive)
REMARK    1  A    between atoms: O_2  and  C_3
REMARK    2  A    between atoms: C_6  and  S_9
REMARK    3  A    between atoms: S_9  and  N_12
REMARK    4  A    between atoms: N_12  and  C_13
REMARK    5  A    between atoms: C_13  and  C_14
REMARK    6  A    between atoms: C_18  and  C_19
REMARK    7  A    between atoms: C_19  and  C_20
REMARK    8  A    between atoms: N_22  and  C_23
REMARK    9  A    between atoms: C_23  and  C_24
REMARK   10  A    between atoms: C_24  and  N_25
REMARK   11  A    between atoms: C_29  and  C_30
REMARK                            x       y       z     vdW  Elec       q    Type
REMARK                         _______ _______ _______ _____ _____    ______ ____
ROOT
ATOM     14  C   UNL     1      -4.060   1.533  24.423  0.00  0.00    +0.041 C 
ATOM     15  C   UNL     1      -4.581   1.778  25.014  0.00  0.00    -0.033 C 
ATOM     16  C   UNL     1      -4.635   2.578  25.210  0.00  0.00    -0.048 C 
ATOM     17  C   UNL     1      -5.155   2.823  25.800  0.00  0.00    +0.026 C 
ATOM     18  C   UNL     1      -4.168   3.132  24.815  0.00  0.00    +0.027 C 
ATOM     28  C   UNL     1      -3.647   2.886  24.224  0.00  0.00    +0.005 C 
ATOM     29  C   UNL     1      -3.594   2.086  24.028  0.00  0.00    +0.006 C 
ENDROOT
BRANCH  29  30
ATOM     30  C   UNL     1      -3.072   1.840  23.437  0.00  0.00    +0.000 C 
ATOM     31  C   UNL     1      -3.317   1.830  22.650  0.00  0.00    +0.000 C 
ATOM     32  C   UNL     1      -2.306   1.604  23.635  0.00  0.00    +0.000 C 
ENDBRANCH  29  30
BRANCH  14  13
ATOM     13  C   UNL     1      -4.007   0.734  24.227  0.00  0.00    +0.120 C 
BRANCH  13  12
ATOM     12  N   UNL     1      -4.367   0.166  24.707  0.00  0.00    -0.077 NA
BRANCH  12   9
ATOM      9  S   UNL     1      -4.172  -0.631  24.620  0.00  0.00    +0.077 S 
ATOM     10  O   UNL     1      -4.663  -0.677  23.957  0.00  0.00    -0.152 OA
ATOM     11  O   UNL     1      -3.681  -0.584  25.282  0.00  0.00    -0.152 OA
BRANCH   9   6
ATOM      3  C   UNL     1      -3.589  -3.022  24.355  0.00  0.00    +0.139 A 
ATOM      4  C   UNL     1      -3.287  -2.591  24.992  0.00  0.00    +0.038 A 
ATOM      5  C   UNL     1      -3.481  -1.795  25.079  0.00  0.00    +0.023 A 
ATOM      6  C   UNL     1      -3.977  -1.427  24.532  0.00  0.00    +0.124 A 
ATOM      7  C   UNL     1      -4.280  -1.858  23.895  0.00  0.00    +0.023 A 
ATOM      8  C   UNL     1      -4.085  -2.655  23.808  0.00  0.00    +0.038 A 
BRANCH   3   2
ATOM      1  C   UNL     1      -2.751  -4.037  23.799  0.00  0.00    +0.252 C 
ATOM      2  O   UNL     1      -3.394  -3.819  24.268  0.00  0.00    -0.471 OA
ENDBRANCH   3   2
ENDBRANCH   9   6
ENDBRANCH  12   9
ENDBRANCH  13  12
ENDBRANCH  14  13
BRANCH  18  19
ATOM     19  C   UNL     1      -4.222   3.932  25.011  0.00  0.00    +0.091 C 
BRANCH  19  20
ATOM     20  C   UNL     1      -3.613   4.449  24.804  0.00  0.00    +0.242 C 
ATOM     21  O   UNL     1      -3.684   4.923  24.132  0.00  0.00    -0.273 OA
ATOM     22  N   UNL     1      -2.933   4.491  25.269  0.00  0.00    -0.204 NA
BRANCH  22  23
ATOM     23  C   UNL     1      -2.324   5.008  25.063  0.00  0.00    +0.132 C 
BRANCH  23  24
ATOM     24  C   UNL     1      -1.604   4.977  25.464  0.00  0.00    +0.096 C 
BRANCH  24  25
ATOM     25  N   UNL     1      -0.895   4.991  25.041  0.00  0.00    -0.269 NA
ATOM     26  C   UNL     1      -0.424   4.315  25.003  0.00  0.00    +0.090 C 
ATOM     27  C   UNL     1      -0.658   5.682  24.657  0.00  0.00    +0.090 C 
ENDBRANCH  24  25
ENDBRANCH  23  24
ENDBRANCH  22  23
ENDBRANCH  19  20
ENDBRANCH  18  19
TORSDOF 11
ENDMDL
MODEL 4
REMARK VINA RESULT:      -6.6      2.760      4.437
REMARK  Name = 
REMARK  11 active torsions:
REMARK  status: ('A' for Active; 'I' for Inactive)
REMARK    1  A    between atoms: O_2  and  C_3
REMARK    2  A    between atoms: C_6  and  S_9
REMARK    3  A    between atoms: S_9  and  N_12
REMARK    4  A    between atoms: N_12  and  C_13
REMARK    5  A    between atoms: C_13  and  C_14
REMARK    6  A    between atoms: C_18  and  C_19
REMARK    7  A    between atoms: C_19  and  C_20
REMARK    8  A    between atoms: N_22  and  C_23
REMARK    9  A    between atoms: C_23  and  C_24
REMARK   10  A    between atoms: C_24  and  N_25
REMARK   11  A    between atoms: C_29  and  C_30
REMARK                            x       y       z     vdW  Elec       q    Type
REMARK                         _______ _______ _______ _____ _____    ______ ____
ROOT
ATOM     14  C   UNL     1      -0.712   0.552  25.056  0.00  0.00    +0.041 C 
ATOM     15  C   UNL     1      -0.976   0.223  25.765  0.00  0.00    -0.033 C 
ATOM     16  C   UNL     1      -1.090  -0.591  25.825  0.00  0.00    -0.048 C 
ATOM     17  C   UNL     1      -1.354  -0.920  26.533  0.00  0.00    +0.026 C 
ATOM     18  C   UNL     1      -0.938  -1.078  25.175  0.00  0.00    +0.027 C 
ATOM     28  C   UNL     1      -0.673  -0.749  24.466  0.00  0.00    +0.005 C 
ATOM     29  C   UNL     1      -0.561   0.066  24.407  0.00  0.00    +0.006 C 
ENDROOT
BRANCH  29  30
ATOM     30  C   UNL     1      -0.296   0.396  23.698  0.00  0.00    +0.000 C 
ATOM     31  C   UNL     1       0.513   0.461  23.550  0.00  0.00    +0.000 C 
ATOM     32  C   UNL     1      -0.841   0.659  23.137  0.00  0.00    +0.000 C 
ENDBRANCH  29  30
BRANCH  14  13
ATOM     13  C   UNL     1      -0.599   1.367  24.997  0.00  0.00    +0.120 C 
BRANCH  13  12
ATOM     12  N   UNL     1      -0.796   1.858  25.630  0.00  0.00    -0.077 NA
BRANCH  12   9
ATOM      9  S   UNL     1      -0.917   2.665  25.504  0.00  0.00    +0.077 S 
ATOM     10  O   UNL     1      -0.114   2.805  25.635  0.00  0.00    -0.152 OA
ATOM     11  O   UNL     1      -1.720   2.524  25.373  0.00  0.00    -0.152 OA
BRANCH   9   6
ATOM      3  C   UNL     1      -1.279   5.084  25.126  0.00  0.00    +0.139 A 
ATOM      4  C   UNL     1      -0.594   4.719  24.844  0.00  0.00    +0.038 A 
ATOM      5  C   UNL     1      -0.474   3.914  24.970  0.00  0.00    +0.023 A 
ATOM      6  C   UNL     1      -1.038   3.470  25.378  0.00  0.00    +0.124 A 
ATOM      7  C   UNL     1      -1.723   3.835  25.660  0.00  0.00    +0.023 A 
ATOM      8  C   UNL     1      -1.843   4.641  25.534  0.00  0.00    +0.038 A 
BRANCH   3   2
ATOM      1  C   UNL     1      -2.166   6.193  24.969  0.00  0.00    +0.252 C 
ATOM      2  O   UNL     1      -1.399   5.890  25.000  0.00  0.00    -0.471 OA
ENDBRANCH   3   2
ENDBRANCH   9   6
ENDBRANCH  12   9
ENDBRANCH  13  12
ENDBRANCH  14  13
BRANCH  18  19
ATOM     19  C   UNL     1      -1.051  -1.894  25.235  0.00  0.00    +0.091 C 
BRANCH  19  20
ATOM     20  C   UNL     1      -1.559  -2.278  24.711  0.00  0.00    +0.242 C 
ATOM     21  O   UNL     1      -1.252  -2.680  24.058  0.00  0.00    -0.273 OA
ATOM     22  N   UNL     1      -2.373  -2.261  24.839  0.00  0.00    -0.204 NA
BRANCH  22  23
ATOM     23  C   UNL     1      -2.881  -2.646  24.314  0.00  0.00    +0.132 C 
BRANCH  23  24
ATOM     24  C   UNL     1      -3.688  -2.688  24.479  0.00  0.00    +0.096 C 
BRANCH  24  25
ATOM     25  N   UNL     1      -4.236  -2.396  23.934  0.00  0.00    -0.269 NA
ATOM     26  C   UNL     1      -4.590  -2.908  23.392  0.00  0.00    +0.090 C 
ATOM     27  C   UNL     1      -4.427  -1.594  23.931  0.00  0.00    +0.090 C 
ENDBRANCH  24  25
ENDBRANCH  23  24
ENDBRANCH  22  23
ENDBRANCH  19  20
ENDBRANCH  18  19
TORSDOF 11
ENDMDL
MODEL 5
REMARK VINA RESULT:      -6.5      1.803      6.590
REMARK  Name = 
REMARK  11 active torsions:
REMARK  status: ('A' for Active; 'I' for Inactive)
REMARK    1  A    between atoms: O_2  and  C_3
REMARK    2  A    between atoms: C_6  and  S_9
REMARK    3  A    between atoms: S_9  and  N_12
REMARK    4  A    between atoms: N_12  and  C_13
REMARK    5  A    between atoms: C_13  and  C_14
REMARK    6  A    between atoms: C_18  and  C_19
REMARK    7  A    between atoms: C_19  and  C_20
REMARK    8  A    between atoms: N_22  and  C_23
REMARK    9  A    between atoms: C_23  and  C_24
REMARK   10  A    between atoms: C_24  and  N_25
REMARK   11  A    between atoms: C_29  and  C_30
REMARK                            x       y       z     vdW  Elec       q    Type
REMARK                         _______ _______ _______ _____ _____    ______ ____
ROOT
ATOM     14  C   UNL     1      -1.636   2.212  24.288  0.00  0.00    +0.041 C 
ATOM     15  C   UNL     1      -1.426   2.645  24.958  0.00  0.00    -0.033 C 
ATOM     16  C   UNL     1      -1.967   3.166  25.299  0.00  0.00    -0.048 C 
ATOM     17  C   UNL     1      -1.757   3.598  25.969  0.00  0.00    +0.026 C 
ATOM     18  C   UNL     1      -2.718   3.254  24.969  0.00  0.00    +0.027 C 
ATOM     28  C   UNL     1      -2.928   2.822  24.299  0.00  0.00    +0.005 C 
ATOM     29  C   UNL     1      -2.387   2.301  23.959  0.00  0.00    +0.006 C 
ENDROOT
BRANCH  29  30
ATOM     30  C   UNL     1      -2.597   1.867  23.288  0.00  0.00    +0.000 C 
ATOM     31  C   UNL     1      -2.942   1.123  23.369  0.00  0.00    +0.000 C 
ATOM     32  C   UNL     1      -2.461   2.180  22.536  0.00  0.00    +0.000 C 
ENDBRANCH  29  30
BRANCH  14  13
ATOM     13  C   UNL     1      -1.095   1.692  23.947  0.00  0.00    +0.120 C 
BRANCH  13  12
ATOM     12  N   UNL     1      -0.419   1.468  24.365  0.00  0.00    -0.077 NA
BRANCH  12   9
ATOM      9  S   UNL     1       0.226   1.145  23.963  0.00  0.00    +0.077 S 
ATOM     10  O   UNL     1       0.548   1.901  23.876  0.00  0.00    -0.152 OA
ATOM     11  O   UNL     1      -0.096   0.391  24.051  0.00  0.00    -0.152 OA
BRANCH   9   6
ATOM      3  C   UNL     1       2.161   0.181  22.758  0.00  0.00    +0.139 A 
ATOM      4  C   UNL     1       1.423  -0.188  22.716  0.00  0.00    +0.038 A 
ATOM      5  C   UNL     1       0.778   0.134  23.118  0.00  0.00    +0.023 A 
ATOM      6  C   UNL     1       0.870   0.824  23.561  0.00  0.00    +0.124 A 
ATOM      7  C   UNL     1       1.608   1.192  23.603  0.00  0.00    +0.023 A 
ATOM      8  C   UNL     1       2.253   0.870  23.201  0.00  0.00    +0.038 A 
BRANCH   3   2
ATOM      1  C   UNL     1       3.538   0.238  22.381  0.00  0.00    +0.252 C 
ATOM      2  O   UNL     1       2.805  -0.141  22.356  0.00  0.00    -0.471 OA
ENDBRANCH   3   2
ENDBRANCH   9   6
ENDBRANCH  12   9
ENDBRANCH  13  12
ENDBRANCH  14  13
BRANCH  18  19
ATOM     19  C   UNL     1      -3.260   3.776  25.311  0.00  0.00    +0.091 C 
BRANCH  19  20
ATOM     20  C   UNL     1      -4.066   3.692  25.155  0.00  0.00    +0.242 C 
ATOM     21  O   UNL     1      -4.409   4.098  24.524  0.00  0.00    -0.273 OA
ATOM     22  N   UNL     1      -4.528   3.203  25.632  0.00  0.00    -0.204 NA
BRANCH  22  23
ATOM     23  C   UNL     1      -5.335   3.119  25.477  0.00  0.00    +0.132 C 
BRANCH  23  24
ATOM     24  C   UNL     1      -5.818   2.723  26.015  0.00  0.00    +0.096 C 
BRANCH  24  25
ATOM     25  N   UNL     1      -6.186   2.017  25.797  0.00  0.00    -0.269 NA
ATOM     26  C   UNL     1      -6.212   1.385  26.326  0.00  0.00    +0.090 C 
ATOM     27  C   UNL     1      -6.528   1.944  25.049  0.00  0.00    +0.090 C 
ENDBRANCH  24  25
ENDBRANCH  23  24
ENDBRANCH  22  23
ENDBRANCH  19  20
ENDBRANCH  18  19
TORSDOF 11
ENDMDL
