REMARK  Name = 
REMARK  6 active torsions:
REMARK  status: ('A' for Active; 'I' for Inactive)
REMARK    1  A    between atoms: C_5  and  C_6
REMARK    2  A    between atoms: C_6  and  C_7
REMARK    3  A    between atoms: C_10  and  C_12
REMARK    4  A    between atoms: C_19  and  C_20
REMARK    5  A    between atoms: C_20  and  N_21
REMARK    6  A    between atoms: N_21  and  C_22
REMARK                            x       y       z     vdW  Elec       q    Type
REMARK                         _______ _______ _______ _____ _____    ______ ____
ROOT
ATOM      1  O   UNL     1       2.858  -2.475   0.000  0.00  0.00    -0.220 OA
ATOM      2  C   UNL     1       2.143  -2.888   0.000  0.00  0.00    +0.180 C 
ATOM      3  C   UNL     1       2.143  -3.712   0.000  0.00  0.00    +0.038 C 
ATOM      4  C   UNL     1       1.429  -4.125   0.000  0.00  0.00    +0.033 C 
ATOM      5  C   UNL     1       0.715  -3.712   0.000  0.00  0.00    +0.121 C 
ATOM     18  O   UNL     1       0.715  -2.888   0.000  0.00  0.00    -0.354 OA
ATOM     19  C   UNL     1       1.429  -2.475   0.000  0.00  0.00    +0.163 C 
ENDROOT
BRANCH   5   6
ATOM      6  C   UNL     1       0.000  -4.125   0.000  0.00  0.00    +0.079 C 
BRANCH   6   7
ATOM      7  C   UNL     1       0.000  -4.950   0.000  0.00  0.00    +0.103 A 
ATOM      8  N   UNL     1       0.667  -5.435   0.000  0.00  0.00    -0.081 NA
ATOM      9  O   UNL     1       0.412  -6.220   0.000  0.00  0.00    -0.354 OA
ATOM     10  C   UNL     1      -0.412  -6.220   0.000  0.00  0.00    +0.177 A 
ATOM     11  C   UNL     1      -0.667  -5.435   0.000  0.00  0.00    +0.058 A 
BRANCH  10  12
ATOM     12  C   UNL     1      -0.897  -6.887   0.000  0.00  0.00    +0.037 A 
ATOM     13  C   UNL     1      -0.562  -7.641   0.000  0.00  0.00    +0.003 A 
ATOM     14  C   UNL     1      -1.047  -8.308   0.000  0.00  0.00    +0.000 A 
ATOM     15  C   UNL     1      -1.867  -8.222   0.000  0.00  0.00    +0.000 A 
ATOM     16  C   UNL     1      -2.203  -7.468   0.000  0.00  0.00    +0.000 A 
ATOM     17  C   UNL     1      -1.718  -6.801   0.000  0.00  0.00    +0.003 A 
ENDBRANCH  10  12
ENDBRANCH   6   7
ENDBRANCH   5   6
BRANCH  19  20
ATOM     20  C   UNL     1       1.429  -1.650   0.000  0.00  0.00    +0.121 C 
BRANCH  20  21
ATOM     21  N   UNL     1       0.715  -1.238   0.000  0.00  0.00    -0.217 NA
BRANCH  21  22
ATOM     22  C   UNL     1       0.715  -0.412   0.000  0.00  0.00    +0.076 C 
ATOM     23  C   UNL     1       0.000   0.000   0.000  0.00  0.00    +0.036 C 
ATOM     24  C   UNL     1       0.000   0.825   0.000  0.00  0.00    +0.090 C 
ATOM     25  N   UNL     1       0.715   1.238   0.000  0.00  0.00    -0.218 NA
ATOM     26  C   UNL     1       1.429   0.825   0.000  0.00  0.00    +0.090 C 
ATOM     27  C   UNL     1       1.429   0.000   0.000  0.00  0.00    +0.036 C 
ENDBRANCH  21  22
ENDBRANCH  20  21
ENDBRANCH  19  20
TORSDOF 6
