REMARK  Name = 
REMARK  11 active torsions:
REMARK  status: ('A' for Active; 'I' for Inactive)
REMARK    1  A    between atoms: C_2  and  N_4
REMARK    2  A    between atoms: C_5  and  C_7
REMARK    3  A    between atoms: C_7  and  C_8
REMARK    4  A    between atoms: C_10  and  C_11
REMARK    5  A    between atoms: C_11  and  N_12
REMARK    6  A    between atoms: N_12  and  C_13
REMARK    7  A    between atoms: N_12  and  S_28
REMARK    8  A    between atoms: C_13  and  C_14
REMARK    9  A    between atoms: C_16  and  C_17
REMARK   10  A    between atoms: C_17  and  C_18
REMARK   11  A    between atoms: N_20  and  C_21
REMARK                            x       y       z     vdW  Elec       q    Type
REMARK                         _______ _______ _______ _____ _____    ______ ____
ROOT
ATOM     12  N   UNL     1      -4.621   1.272   0.000  0.00  0.00    -0.154 NA
ENDROOT
BRANCH  12  28
ATOM     28  S   UNL     1      -4.286   0.518   0.000  0.00  0.00    +0.046 S 
ATOM     29  C   UNL     1      -3.950  -0.236   0.000  0.00  0.00    +0.196 C 
ATOM     30  O   UNL     1      -3.532   0.854   0.000  0.00  0.00    -0.157 OA
ATOM     31  O   UNL     1      -5.039   0.182   0.000  0.00  0.00    -0.157 OA
ENDBRANCH  12  28
BRANCH  12  11
ATOM     11  C   UNL     1      -5.442   1.358   0.000  0.00  0.00    +0.128 C 
BRANCH  11  10
ATOM      8  C   UNL     1      -7.007  -0.094   0.000  0.00  0.00    +0.157 C 
ATOM      9  O   UNL     1      -6.752   0.691   0.000  0.00  0.00    -0.351 OA
ATOM     10  C   UNL     1      -5.927   0.691   0.000  0.00  0.00    +0.166 C 
ATOM     32  C   UNL     1      -5.672  -0.094   0.000  0.00  0.00    +0.213 C 
ATOM     33  O   UNL     1      -4.887  -0.349   0.000  0.00  0.00    -0.218 OA
ATOM     34  C   UNL     1      -6.339  -0.579   0.000  0.00  0.00    +0.212 C 
ATOM     35  O   UNL     1      -6.339  -1.404   0.000  0.00  0.00    -0.218 OA
BRANCH   8   7
ATOM      7  C   UNL     1      -7.791  -0.349   0.000  0.00  0.00    +0.119 C 
BRANCH   7   5
ATOM      4  N   UNL     1      -8.747  -1.411   0.000  0.00  0.00    -0.207 NA
ATOM      5  C   UNL     1      -7.963  -1.156   0.000  0.00  0.00    +0.244 C 
ATOM      6  O   UNL     1      -7.350  -1.708   0.000  0.00  0.00    -0.273 OA
BRANCH   4   2
ATOM      1  C   UNL     1      -9.704  -2.473   0.000  0.00  0.00    +0.023 C 
ATOM      2  C   UNL     1      -8.919  -2.218   0.000  0.00  0.00    +0.095 C 
ATOM      3  C   UNL     1      -8.306  -2.770   0.000  0.00  0.00    +0.023 C 
ENDBRANCH   4   2
ENDBRANCH   7   5
ENDBRANCH   8   7
ENDBRANCH  11  10
ENDBRANCH  12  11
BRANCH  12  13
ATOM     13  C   UNL     1      -4.136   1.939   0.000  0.00  0.00    +0.128 C 
BRANCH  13  14
ATOM     14  C   UNL     1      -3.316   1.853   0.000  0.00  0.00    +0.166 C 
ATOM     15  O   UNL     1      -2.764   2.466   0.000  0.00  0.00    -0.351 OA
ATOM     16  C   UNL     1      -2.010   2.130   0.000  0.00  0.00    +0.157 C 
ATOM     24  C   UNL     1      -2.096   1.310   0.000  0.00  0.00    +0.212 C 
ATOM     25  O   UNL     1      -1.483   0.758   0.000  0.00  0.00    -0.218 OA
ATOM     26  C   UNL     1      -2.903   1.138   0.000  0.00  0.00    +0.213 C 
ATOM     27  O   UNL     1      -3.239   0.385   0.000  0.00  0.00    -0.218 OA
BRANCH  16  17
ATOM     17  C   UNL     1      -1.296   2.543   0.000  0.00  0.00    +0.119 C 
BRANCH  17  18
ATOM     18  C   UNL     1      -0.581   2.130   0.000  0.00  0.00    +0.244 C 
ATOM     19  O   UNL     1      -0.581   1.305   0.000  0.00  0.00    -0.273 OA
ATOM     20  N   UNL     1       0.133   2.543   0.000  0.00  0.00    -0.207 NA
BRANCH  20  21
ATOM     21  C   UNL     1       0.848   2.130   0.000  0.00  0.00    +0.095 C 
ATOM     22  C   UNL     1       1.562   2.543   0.000  0.00  0.00    +0.023 C 
ATOM     23  C   UNL     1       0.848   1.305   0.000  0.00  0.00    +0.023 C 
ENDBRANCH  20  21
ENDBRANCH  17  18
ENDBRANCH  16  17
ENDBRANCH  13  14
ENDBRANCH  12  13
TORSDOF 11
