REMARK  Name = 
REMARK  4 active torsions:
REMARK  status: ('A' for Active; 'I' for Inactive)
REMARK    1  A    between atoms: C_5  and  C_6
REMARK    2  A    between atoms: C_6  and  N_7
REMARK    3  A    between atoms: C_12  and  C_13
REMARK    4  A    between atoms: C_15  and  C_18
REMARK                            x       y       z     vdW  Elec       q    Type
REMARK                         _______ _______ _______ _____ _____    ______ ____
ROOT
ATOM      7  N   UNL     1       0.000   0.000   0.000  0.00  0.00    -0.260 NA
ATOM      8  C   UNL     1       0.000   0.825   0.000  0.00  0.00    +0.105 C 
ATOM      9  C   UNL     1       0.715   1.238   0.000  0.00  0.00    +0.160 C 
ATOM     10  O   UNL     1       1.429   0.825   0.000  0.00  0.00    -0.350 OA
ATOM     11  C   UNL     1       1.429   0.000   0.000  0.00  0.00    +0.166 C 
ATOM     12  C   UNL     1       0.715  -0.412   0.000  0.00  0.00    +0.147 C 
ENDROOT
BRANCH  12  13
ATOM     13  C   UNL     1       0.715  -1.238   0.000  0.00  0.00    +0.156 A 
ATOM     14  N   UNL     1       1.382  -1.722   0.000  0.00  0.00    -0.228 NA
ATOM     15  C   UNL     1       1.127  -2.507   0.000  0.00  0.00    +0.104 A 
ATOM     16  C   UNL     1       0.302  -2.507   0.000  0.00  0.00    +0.119 A 
ATOM     17  N   UNL     1       0.047  -1.722   0.000  0.00  0.00    -0.226 NA
BRANCH  15  18
ATOM     18  C   UNL     1       1.612  -3.175   0.000  0.00  0.00    +0.047 A 
ATOM     19  C   UNL     1       2.432  -3.088   0.000  0.00  0.00    +0.006 A 
ATOM     20  C   UNL     1       2.917  -3.756   0.000  0.00  0.00    +0.030 A 
ATOM     21  C   UNL     1       2.582  -4.509   0.000  0.00  0.00    +0.142 A 
ATOM     22  F   UNL     1       3.067  -5.177   0.000  0.00  0.00    -0.204 F 
ATOM     23  C   UNL     1       1.761  -4.596   0.000  0.00  0.00    +0.059 A 
ATOM     24  C   UNL     1       1.276  -3.928   0.000  0.00  0.00    +0.144 A 
ATOM     25  F   UNL     1       0.456  -4.014   0.000  0.00  0.00    -0.204 F 
ENDBRANCH  15  18
ENDBRANCH  12  13
BRANCH   7   6
ATOM      6  C   UNL     1      -0.715  -0.412   0.000  0.00  0.00    +0.100 C 
BRANCH   6   5
ATOM      1  C   UNL     1      -3.572   1.238   0.000  0.00  0.00    +0.031 C 
ATOM      2  C   UNL     1      -2.858   0.825   0.000  0.00  0.00    -0.022 A 
ATOM      3  C   UNL     1      -2.143   1.238   0.000  0.00  0.00    -0.005 A 
ATOM      4  C   UNL     1      -1.429   0.825   0.000  0.00  0.00    -0.003 A 
ATOM      5  C   UNL     1      -1.429   0.000   0.000  0.00  0.00    -0.006 A 
ATOM     26  C   UNL     1      -2.143  -0.412   0.000  0.00  0.00    -0.003 A 
ATOM     27  C   UNL     1      -2.858   0.000   0.000  0.00  0.00    -0.005 A 
ENDBRANCH   6   5
ENDBRANCH   7   6
TORSDOF 4
