MODEL 1
REMARK VINA RESULT:     -13.4      0.000      0.000
REMARK  Name = 
REMARK  6 active torsions:
REMARK  status: ('A' for Active; 'I' for Inactive)
REMARK    1  A    between atoms: C_5  and  C_6
REMARK    2  A    between atoms: C_6  and  C_7
REMARK    3  A    between atoms: C_10  and  C_12
REMARK    4  A    between atoms: C_20  and  C_21
REMARK    5  A    between atoms: C_21  and  N_22
REMARK    6  A    between atoms: C_23  and  C_25
REMARK                            x       y       z     vdW  Elec       q    Type
REMARK                         _______ _______ _______ _____ _____    ______ ____
ROOT
ATOM      1  O   UNL     1      -5.418   3.480  26.228  0.00  0.00    -0.220 OA
ATOM      2  C   UNL     1      -5.114   2.994  25.635  0.00  0.00    +0.181 C 
ATOM      3  C   UNL     1      -5.592   2.418  25.288  0.00  0.00    +0.038 C 
ATOM      4  C   UNL     1      -5.288   1.932  24.694  0.00  0.00    +0.033 C 
ATOM      5  C   UNL     1      -4.505   2.023  24.448  0.00  0.00    +0.121 C 
ATOM     19  O   UNL     1      -4.028   2.598  24.795  0.00  0.00    -0.354 OA
ATOM     20  C   UNL     1      -4.332   3.084  25.388  0.00  0.00    +0.167 C 
ENDROOT
BRANCH   5   6
ATOM      6  C   UNL     1      -4.201   1.537  23.855  0.00  0.00    +0.079 C 
BRANCH   6   7
ATOM      7  C   UNL     1      -3.778   0.856  24.055  0.00  0.00    +0.103 A 
ATOM      8  N   UNL     1      -2.971   0.819  24.217  0.00  0.00    -0.081 NA
ATOM      9  O   UNL     1      -2.783   0.033  24.390  0.00  0.00    -0.354 OA
ATOM     10  C   UNL     1      -3.474  -0.413  24.334  0.00  0.00    +0.177 A 
ATOM     11  C   UNL     1      -4.089   0.096  24.127  0.00  0.00    +0.058 A 
BRANCH  10  12
ATOM     12  C   UNL     1      -3.539  -1.225  24.462  0.00  0.00    +0.037 A 
ATOM     13  C   UNL     1      -3.222  -1.561  25.146  0.00  0.00    +0.005 A 
ATOM     14  C   UNL     1      -3.287  -2.373  25.276  0.00  0.00    +0.030 A 
ATOM     15  C   UNL     1      -3.668  -2.850  24.721  0.00  0.00    +0.140 A 
ATOM     16  F   UNL     1      -3.734  -3.662  24.849  0.00  0.00    -0.204 F 
ATOM     17  C   UNL     1      -3.985  -2.514  24.036  0.00  0.00    +0.030 A 
ATOM     18  C   UNL     1      -3.920  -1.702  23.908  0.00  0.00    +0.005 A 
ENDBRANCH  10  12
ENDBRANCH   6   7
ENDBRANCH   5   6
BRANCH  20  21
ATOM     21  C   UNL     1      -3.854   3.661  25.736  0.00  0.00    +0.147 C 
BRANCH  21  22
ATOM     22  N   UNL     1      -3.147   3.883  25.374  0.00  0.00    -0.203 NA
ATOM     23  C   UNL     1      -2.580   4.304  25.800  0.00  0.00    +0.241 C 
ATOM     24  O   UNL     1      -2.720   4.502  26.589  0.00  0.00    -0.273 OA
BRANCH  23  25
ATOM     25  C   UNL     1      -1.873   4.526  25.438  0.00  0.00    +0.078 C 
ATOM     26  C   UNL     1      -1.578   5.226  25.116  0.00  0.00    +0.009 C 
ATOM     27  C   UNL     1      -0.873   4.841  24.926  0.00  0.00    +0.001 C 
ATOM     28  C   UNL     1      -1.169   4.141  25.249  0.00  0.00    +0.009 C 
ENDBRANCH  23  25
ENDBRANCH  21  22
ENDBRANCH  20  21
TORSDOF 6
ENDMDL
MODEL 2
REMARK VINA RESULT:     -12.9      1.381      2.975
REMARK  Name = 
REMARK  6 active torsions:
REMARK  status: ('A' for Active; 'I' for Inactive)
REMARK    1  A    between atoms: C_5  and  C_6
REMARK    2  A    between atoms: C_6  and  C_7
REMARK    3  A    between atoms: C_10  and  C_12
REMARK    4  A    between atoms: C_20  and  C_21
REMARK    5  A    between atoms: C_21  and  N_22
REMARK    6  A    between atoms: C_23  and  C_25
REMARK                            x       y       z     vdW  Elec       q    Type
REMARK                         _______ _______ _______ _____ _____    ______ ____
ROOT
ATOM      1  O   UNL     1      -1.994   4.566  25.733  0.00  0.00    -0.220 OA
ATOM      2  C   UNL     1      -1.766   3.836  25.423  0.00  0.00    +0.181 C 
ATOM      3  C   UNL     1      -0.969   3.620  25.417  0.00  0.00    +0.038 C 
ATOM      4  C   UNL     1      -0.741   2.891  25.107  0.00  0.00    +0.033 C 
ATOM      5  C   UNL     1      -1.310   2.377  24.802  0.00  0.00    +0.121 C 
ATOM     19  O   UNL     1      -2.106   2.592  24.807  0.00  0.00    -0.354 OA
ATOM     20  C   UNL     1      -2.334   3.322  25.118  0.00  0.00    +0.167 C 
ENDROOT
BRANCH   5   6
ATOM      6  C   UNL     1      -1.082   1.647  24.491  0.00  0.00    +0.079 C 
BRANCH   6   7
ATOM      7  C   UNL     1      -1.285   0.950  24.884  0.00  0.00    +0.103 A 
ATOM      8  N   UNL     1      -0.972   0.689  25.601  0.00  0.00    -0.081 NA
ATOM      9  O   UNL     1      -1.331  -0.031  25.788  0.00  0.00    -0.354 OA
ATOM     10  C   UNL     1      -1.865  -0.214  25.187  0.00  0.00    +0.177 A 
ATOM     11  C   UNL     1      -1.837   0.393  24.628  0.00  0.00    +0.058 A 
BRANCH  10  12
ATOM     12  C   UNL     1      -2.343  -0.885  25.150  0.00  0.00    +0.037 A 
ATOM     13  C   UNL     1      -2.076  -1.560  24.758  0.00  0.00    +0.005 A 
ATOM     14  C   UNL     1      -2.554  -2.232  24.720  0.00  0.00    +0.030 A 
ATOM     15  C   UNL     1      -3.299  -2.228  25.076  0.00  0.00    +0.140 A 
ATOM     16  F   UNL     1      -3.777  -2.899  25.039  0.00  0.00    -0.204 F 
ATOM     17  C   UNL     1      -3.566  -1.553  25.468  0.00  0.00    +0.030 A 
ATOM     18  C   UNL     1      -3.087  -0.882  25.505  0.00  0.00    +0.005 A 
ENDBRANCH  10  12
ENDBRANCH   6   7
ENDBRANCH   5   6
BRANCH  20  21
ATOM     21  C   UNL     1      -3.131   3.537  25.123  0.00  0.00    +0.147 C 
BRANCH  21  22
ATOM     22  N   UNL     1      -3.714   2.959  25.202  0.00  0.00    -0.203 NA
ATOM     23  C   UNL     1      -4.510   3.167  25.146  0.00  0.00    +0.241 C 
ATOM     24  O   UNL     1      -4.724   3.952  25.010  0.00  0.00    -0.273 OA
BRANCH  23  25
ATOM     25  C   UNL     1      -5.093   2.589  25.225  0.00  0.00    +0.078 C 
ATOM     26  C   UNL     1      -5.610   2.360  25.826  0.00  0.00    +0.009 C 
ATOM     27  C   UNL     1      -5.919   1.771  25.336  0.00  0.00    +0.001 C 
ATOM     28  C   UNL     1      -5.402   2.001  24.736  0.00  0.00    +0.009 C 
ENDBRANCH  23  25
ENDBRANCH  21  22
ENDBRANCH  20  21
TORSDOF 6
ENDMDL
MODEL 3
REMARK VINA RESULT:     -12.7      1.905      2.697
REMARK  Name = 
REMARK  6 active torsions:
REMARK  status: ('A' for Active; 'I' for Inactive)
REMARK    1  A    between atoms: C_5  and  C_6
REMARK    2  A    between atoms: C_6  and  C_7
REMARK    3  A    between atoms: C_10  and  C_12
REMARK    4  A    between atoms: C_20  and  C_21
REMARK    5  A    between atoms: C_21  and  N_22
REMARK    6  A    between atoms: C_23  and  C_25
REMARK                            x       y       z     vdW  Elec       q    Type
REMARK                         _______ _______ _______ _____ _____    ______ ____
ROOT
ATOM      1  O   UNL     1      -1.680   4.038  25.422  0.00  0.00    -0.220 OA
ATOM      2  C   UNL     1      -2.297   3.573  25.135  0.00  0.00    +0.181 C 
ATOM      3  C   UNL     1      -3.080   3.809  25.248  0.00  0.00    +0.038 C 
ATOM      4  C   UNL     1      -3.697   3.344  24.960  0.00  0.00    +0.033 C 
ATOM      5  C   UNL     1      -3.532   2.642  24.560  0.00  0.00    +0.121 C 
ATOM     19  O   UNL     1      -2.750   2.405  24.447  0.00  0.00    -0.354 OA
ATOM     20  C   UNL     1      -2.133   2.870  24.734  0.00  0.00    +0.167 C 
ENDROOT
BRANCH   5   6
ATOM      6  C   UNL     1      -4.149   2.176  24.272  0.00  0.00    +0.079 C 
BRANCH   6   7
ATOM      7  C   UNL     1      -4.283   1.426  24.590  0.00  0.00    +0.103 A 
ATOM      8  N   UNL     1      -4.752   1.255  25.246  0.00  0.00    -0.081 NA
ATOM      9  O   UNL     1      -4.730   0.439  25.368  0.00  0.00    -0.354 OA
ATOM     10  C   UNL     1      -4.249   0.106  24.787  0.00  0.00    +0.177 A 
ATOM     11  C   UNL     1      -3.973   0.717  24.306  0.00  0.00    +0.058 A 
BRANCH  10  12
ATOM     12  C   UNL     1      -4.074  -0.695  24.702  0.00  0.00    +0.037 A 
ATOM     13  C   UNL     1      -3.658  -1.092  25.295  0.00  0.00    +0.005 A 
ATOM     14  C   UNL     1      -3.483  -1.893  25.211  0.00  0.00    +0.030 A 
ATOM     15  C   UNL     1      -3.723  -2.299  24.533  0.00  0.00    +0.140 A 
ATOM     16  F   UNL     1      -3.548  -3.101  24.448  0.00  0.00    -0.204 F 
ATOM     17  C   UNL     1      -4.138  -1.903  23.940  0.00  0.00    +0.030 A 
ATOM     18  C   UNL     1      -4.313  -1.101  24.026  0.00  0.00    +0.005 A 
ENDBRANCH  10  12
ENDBRANCH   6   7
ENDBRANCH   5   6
BRANCH  20  21
ATOM     21  C   UNL     1      -1.350   2.634  24.622  0.00  0.00    +0.147 C 
BRANCH  21  22
ATOM     22  N   UNL     1      -1.177   1.842  24.465  0.00  0.00    -0.203 NA
ATOM     23  C   UNL     1      -0.398   1.611  24.328  0.00  0.00    +0.241 C 
ATOM     24  O   UNL     1       0.209   2.169  24.347  0.00  0.00    -0.273 OA
BRANCH  23  25
ATOM     25  C   UNL     1      -0.224   0.819  24.171  0.00  0.00    +0.078 C 
ATOM     26  C   UNL     1      -0.293   0.113  24.592  0.00  0.00    +0.009 C 
ATOM     27  C   UNL     1       0.021  -0.300  23.950  0.00  0.00    +0.001 C 
ATOM     28  C   UNL     1       0.089   0.407  23.530  0.00  0.00    +0.009 C 
ENDBRANCH  23  25
ENDBRANCH  21  22
ENDBRANCH  20  21
TORSDOF 6
ENDMDL
MODEL 4
REMARK VINA RESULT:     -12.4      2.283      5.198
REMARK  Name = 
REMARK  6 active torsions:
REMARK  status: ('A' for Active; 'I' for Inactive)
REMARK    1  A    between atoms: C_5  and  C_6
REMARK    2  A    between atoms: C_6  and  C_7
REMARK    3  A    between atoms: C_10  and  C_12
REMARK    4  A    between atoms: C_20  and  C_21
REMARK    5  A    between atoms: C_21  and  N_22
REMARK    6  A    between atoms: C_23  and  C_25
REMARK                            x       y       z     vdW  Elec       q    Type
REMARK                         _______ _______ _______ _____ _____    ______ ____
ROOT
ATOM      1  O   UNL     1       0.387  -0.248  23.564  0.00  0.00    -0.220 OA
ATOM      2  C   UNL     1      -0.042   0.331  23.965  0.00  0.00    +0.181 C 
ATOM      3  C   UNL     1       0.154   1.128  23.875  0.00  0.00    +0.038 C 
ATOM      4  C   UNL     1      -0.276   1.707  24.276  0.00  0.00    +0.033 C 
ATOM      5  C   UNL     1      -0.902   1.489  24.768  0.00  0.00    +0.121 C 
ATOM     19  O   UNL     1      -1.098   0.693  24.859  0.00  0.00    -0.354 OA
ATOM     20  C   UNL     1      -0.668   0.115  24.457  0.00  0.00    +0.167 C 
ENDROOT
BRANCH   5   6
ATOM      6  C   UNL     1      -1.331   2.068  25.169  0.00  0.00    +0.079 C 
BRANCH   6   7
ATOM      7  C   UNL     1      -2.080   2.288  24.899  0.00  0.00    +0.103 A 
ATOM      8  N   UNL     1      -2.237   2.802  24.274  0.00  0.00    -0.081 NA
ATOM      9  O   UNL     1      -3.057   2.864  24.196  0.00  0.00    -0.354 OA
ATOM     10  C   UNL     1      -3.405   2.388  24.773  0.00  0.00    +0.177 A 
ATOM     11  C   UNL     1      -2.801   2.032  25.208  0.00  0.00    +0.058 A 
BRANCH  10  12
ATOM     12  C   UNL     1      -4.214   2.286  24.894  0.00  0.00    +0.037 A 
ATOM     13  C   UNL     1      -4.574   1.570  24.696  0.00  0.00    +0.005 A 
ATOM     14  C   UNL     1      -5.383   1.467  24.817  0.00  0.00    +0.030 A 
ATOM     15  C   UNL     1      -5.834   2.080  25.137  0.00  0.00    +0.140 A 
ATOM     16  F   UNL     1      -6.643   1.978  25.258  0.00  0.00    -0.204 F 
ATOM     17  C   UNL     1      -5.474   2.796  25.335  0.00  0.00    +0.030 A 
ATOM     18  C   UNL     1      -4.665   2.898  25.213  0.00  0.00    +0.005 A 
ENDBRANCH  10  12
ENDBRANCH   6   7
ENDBRANCH   5   6
BRANCH  20  21
ATOM     21  C   UNL     1      -0.864  -0.682  24.548  0.00  0.00    +0.147 C 
BRANCH  21  22
ATOM     22  N   UNL     1      -1.656  -0.914  24.561  0.00  0.00    -0.203 NA
ATOM     23  C   UNL     1      -1.856  -1.684  24.774  0.00  0.00    +0.241 C 
ATOM     24  O   UNL     1      -1.266  -2.225  24.973  0.00  0.00    -0.273 OA
BRANCH  23  25
ATOM     25  C   UNL     1      -2.648  -1.916  24.787  0.00  0.00    +0.078 C 
ATOM     26  C   UNL     1      -3.258  -1.877  25.342  0.00  0.00    +0.009 C 
ATOM     27  C   UNL     1      -3.768  -2.243  24.806  0.00  0.00    +0.001 C 
ATOM     28  C   UNL     1      -3.158  -2.280  24.252  0.00  0.00    +0.009 C 
ENDBRANCH  23  25
ENDBRANCH  21  22
ENDBRANCH  20  21
TORSDOF 6
ENDMDL
MODEL 5
REMARK VINA RESULT:     -12.4      2.512      5.359
REMARK  Name = 
REMARK  6 active torsions:
REMARK  status: ('A' for Active; 'I' for Inactive)
REMARK    1  A    between atoms: C_5  and  C_6
REMARK    2  A    between atoms: C_6  and  C_7
REMARK    3  A    between atoms: C_10  and  C_12
REMARK    4  A    between atoms: C_20  and  C_21
REMARK    5  A    between atoms: C_21  and  N_22
REMARK    6  A    between atoms: C_23  and  C_25
REMARK                            x       y       z     vdW  Elec       q    Type
REMARK                         _______ _______ _______ _____ _____    ______ ____
ROOT
ATOM      1  O   UNL     1      -2.486  -1.807  25.249  0.00  0.00    -0.220 OA
ATOM      2  C   UNL     1      -1.993  -1.172  25.063  0.00  0.00    +0.181 C 
ATOM      3  C   UNL     1      -1.176  -1.241  25.156  0.00  0.00    +0.038 C 
ATOM      4  C   UNL     1      -0.684  -0.606  24.969  0.00  0.00    +0.033 C 
ATOM      5  C   UNL     1      -1.009   0.099  24.689  0.00  0.00    +0.121 C 
ATOM     19  O   UNL     1      -1.826   0.169  24.597  0.00  0.00    -0.354 OA
ATOM     20  C   UNL     1      -2.318  -0.467  24.783  0.00  0.00    +0.167 C 
ENDROOT
BRANCH   5   6
ATOM      6  C   UNL     1      -0.517   0.734  24.503  0.00  0.00    +0.079 C 
BRANCH   6   7
ATOM      7  C   UNL     1      -0.561   1.433  24.940  0.00  0.00    +0.103 A 
ATOM      8  N   UNL     1      -0.307   1.534  25.718  0.00  0.00    -0.081 NA
ATOM      9  O   UNL     1      -0.456   2.317  25.935  0.00  0.00    -0.354 OA
ATOM     10  C   UNL     1      -0.802   2.699  25.291  0.00  0.00    +0.177 A 
ATOM     11  C   UNL     1      -0.867   2.152  24.676  0.00  0.00    +0.058 A 
BRANCH  10  12
ATOM     12  C   UNL     1      -1.041   3.488  25.265  0.00  0.00    +0.037 A 
ATOM     13  C   UNL     1      -0.550   4.056  24.922  0.00  0.00    +0.005 A 
ATOM     14  C   UNL     1      -0.788   4.845  24.896  0.00  0.00    +0.030 A 
ATOM     15  C   UNL     1      -1.517   5.067  25.213  0.00  0.00    +0.140 A 
ATOM     16  F   UNL     1      -1.756   5.856  25.187  0.00  0.00    -0.204 F 
ATOM     17  C   UNL     1      -2.008   4.499  25.556  0.00  0.00    +0.030 A 
ATOM     18  C   UNL     1      -1.769   3.709  25.582  0.00  0.00    +0.005 A 
ENDBRANCH  10  12
ENDBRANCH   6   7
ENDBRANCH   5   6
BRANCH  20  21
ATOM     21  C   UNL     1      -3.135  -0.397  24.690  0.00  0.00    +0.147 C 
BRANCH  21  22
ATOM     22  N   UNL     1      -3.509   0.320  24.851  0.00  0.00    -0.203 NA
ATOM     23  C   UNL     1      -4.304   0.422  24.660  0.00  0.00    +0.241 C 
ATOM     24  O   UNL     1      -4.727  -0.192  24.307  0.00  0.00    -0.273 OA
BRANCH  23  25
ATOM     25  C   UNL     1      -4.679   1.140  24.821  0.00  0.00    +0.078 C 
ATOM     26  C   UNL     1      -4.693   1.883  24.462  0.00  0.00    +0.009 C 
ATOM     27  C   UNL     1      -5.208   2.155  25.048  0.00  0.00    +0.001 C 
ATOM     28  C   UNL     1      -5.192   1.411  25.406  0.00  0.00    +0.009 C 
ENDBRANCH  23  25
ENDBRANCH  21  22
ENDBRANCH  20  21
TORSDOF 6
ENDMDL
MODEL 6
REMARK VINA RESULT:     -12.3      2.290      4.118
REMARK  Name = 
REMARK  6 active torsions:
REMARK  status: ('A' for Active; 'I' for Inactive)
REMARK    1  A    between atoms: C_5  and  C_6
REMARK    2  A    between atoms: C_6  and  C_7
REMARK    3  A    between atoms: C_10  and  C_12
REMARK    4  A    between atoms: C_20  and  C_21
REMARK    5  A    between atoms: C_21  and  N_22
REMARK    6  A    between atoms: C_23  and  C_25
REMARK                            x       y       z     vdW  Elec       q    Type
REMARK                         _______ _______ _______ _____ _____    ______ ____
ROOT
ATOM      1  O   UNL     1       0.164  -0.658  24.102  0.00  0.00    -0.220 OA
ATOM      2  C   UNL     1      -0.597  -0.711  24.417  0.00  0.00    +0.181 C 
ATOM      3  C   UNL     1      -1.042  -1.398  24.309  0.00  0.00    +0.038 C 
ATOM      4  C   UNL     1      -1.802  -1.451  24.624  0.00  0.00    +0.033 C 
ATOM      5  C   UNL     1      -2.118  -0.817  25.047  0.00  0.00    +0.121 C 
ATOM     19  O   UNL     1      -1.675  -0.131  25.155  0.00  0.00    -0.354 OA
ATOM     20  C   UNL     1      -0.914  -0.078  24.840  0.00  0.00    +0.167 C 
ENDROOT
BRANCH   5   6
ATOM      6  C   UNL     1      -2.879  -0.870  25.361  0.00  0.00    +0.079 C 
BRANCH   6   7
ATOM      7  C   UNL     1      -3.484  -0.394  25.064  0.00  0.00    +0.103 A 
ATOM      8  N   UNL     1      -3.950  -0.559  24.404  0.00  0.00    -0.081 NA
ATOM      9  O   UNL     1      -4.482   0.065  24.306  0.00  0.00    -0.354 OA
ATOM     10  C   UNL     1      -4.344   0.614  24.905  0.00  0.00    +0.177 A 
ATOM     11  C   UNL     1      -3.727   0.331  25.373  0.00  0.00    +0.058 A 
BRANCH  10  12
ATOM     12  C   UNL     1      -4.752   1.323  25.017  0.00  0.00    +0.037 A 
ATOM     13  C   UNL     1      -5.437   1.336  25.477  0.00  0.00    +0.005 A 
ATOM     14  C   UNL     1      -5.845   2.044  25.590  0.00  0.00    +0.030 A 
ATOM     15  C   UNL     1      -5.568   2.739  25.242  0.00  0.00    +0.140 A 
ATOM     16  F   UNL     1      -5.975   3.448  25.354  0.00  0.00    -0.204 F 
ATOM     17  C   UNL     1      -4.883   2.726  24.782  0.00  0.00    +0.030 A 
ATOM     18  C   UNL     1      -4.475   2.018  24.670  0.00  0.00    +0.005 A 
ENDBRANCH  10  12
ENDBRANCH   6   7
ENDBRANCH   5   6
BRANCH  20  21
ATOM     21  C   UNL     1      -0.469   0.609  24.948  0.00  0.00    +0.147 C 
BRANCH  21  22
ATOM     22  N   UNL     1      -0.848   1.338  25.025  0.00  0.00    -0.203 NA
ATOM     23  C   UNL     1      -0.408   2.016  25.188  0.00  0.00    +0.241 C 
ATOM     24  O   UNL     1       0.411   1.967  25.274  0.00  0.00    -0.273 OA
BRANCH  23  25
ATOM     25  C   UNL     1      -0.787   2.745  25.265  0.00  0.00    +0.078 C 
ATOM     26  C   UNL     1      -0.951   3.374  24.756  0.00  0.00    +0.009 C 
ATOM     27  C   UNL     1      -1.323   3.776  25.373  0.00  0.00    +0.001 C 
ATOM     28  C   UNL     1      -1.159   3.147  25.881  0.00  0.00    +0.009 C 
ENDBRANCH  23  25
ENDBRANCH  21  22
ENDBRANCH  20  21
TORSDOF 6
ENDMDL
