MODEL 1
REMARK VINA RESULT:     -11.9      0.000      0.000
REMARK  Name = 
REMARK  9 active torsions:
REMARK  status: ('A' for Active; 'I' for Inactive)
REMARK    1  A    between atoms: O_2  and  C_3
REMARK    2  A    between atoms: C_3  and  C_4
REMARK    3  A    between atoms: C_4  and  O_5
REMARK    4  A    between atoms: O_5  and  C_6
REMARK    5  A    between atoms: C_8  and  C_12
REMARK    6  A    between atoms: C_15  and  C_17
REMARK    7  A    between atoms: N_21  and  C_22
REMARK    8  A    between atoms: C_22  and  C_23
REMARK    9  A    between atoms: C_26  and  N_27
REMARK                            x       y       z     vdW  Elec       q    Type
REMARK                         _______ _______ _______ _____ _____    ______ ____
ROOT
ATOM     12  C   UNL     1      -2.932   3.699  25.584  0.00  0.00    +0.204 A 
ATOM     13  N   UNL     1      -3.370   3.920  26.248  0.00  0.00    -0.056 NA
ATOM     14  O   UNL     1      -4.095   3.527  26.218  0.00  0.00    -0.336 OA
ATOM     15  C   UNL     1      -4.105   3.063  25.536  0.00  0.00    +0.251 A 
ATOM     16  N   UNL     1      -3.386   3.170  25.144  0.00  0.00    -0.190 NA
ENDROOT
BRANCH  12   8
ATOM      6  C   UNL     1      -0.794   3.685  25.148  0.00  0.00    +0.225 A 
ATOM      7  C   UNL     1      -1.553   3.422  25.338  0.00  0.00    +0.061 A 
ATOM      8  C   UNL     1      -2.173   3.962  25.395  0.00  0.00    +0.045 A 
ATOM      9  C   UNL     1      -2.036   4.765  25.262  0.00  0.00    +0.024 A 
ATOM     10  C   UNL     1      -1.277   5.027  25.073  0.00  0.00    +0.102 A 
ATOM     11  N   UNL     1      -0.656   4.487  25.016  0.00  0.00    -0.210 NA
BRANCH   6   5
ATOM      5  O   UNL     1      -0.172   3.144  25.091  0.00  0.00    -0.457 OA
BRANCH   5   4
ATOM      4  C   UNL     1      -0.185   2.560  24.508  0.00  0.00    +0.239 C 
BRANCH   4   3
ATOM      3  C   UNL     1       0.323   1.914  24.562  0.00  0.00    +0.189 C 
BRANCH   3   2
ATOM      1  C   UNL     1       0.157   0.668  23.882  0.00  0.00    +0.174 C 
ATOM      2  O   UNL     1       0.454   1.437  23.901  0.00  0.00    -0.347 OA
ENDBRANCH   3   2
ENDBRANCH   4   3
ENDBRANCH   5   4
ENDBRANCH   6   5
ENDBRANCH  12   8
BRANCH  15  17
ATOM     17  C   UNL     1      -4.724   2.578  25.288  0.00  0.00    +0.138 C 
ATOM     18  C   UNL     1      -5.516   2.801  25.216  0.00  0.00    +0.027 C 
ATOM     19  C   UNL     1      -5.942   2.146  24.952  0.00  0.00    +0.019 C 
ATOM     20  C   UNL     1      -5.414   1.518  24.861  0.00  0.00    +0.073 C 
ATOM     21  N   UNL     1      -4.662   1.785  25.069  0.00  0.00    -0.263 NA
BRANCH  21  22
ATOM     22  C   UNL     1      -3.969   1.338  25.059  0.00  0.00    +0.099 C 
BRANCH  22  23
ATOM     23  C   UNL     1      -3.997   0.538  24.862  0.00  0.00    -0.006 A 
ATOM     24  C   UNL     1      -3.920   0.304  24.075  0.00  0.00    -0.002 A 
ATOM     25  C   UNL     1      -3.948  -0.497  23.877  0.00  0.00    +0.016 A 
ATOM     26  C   UNL     1      -4.053  -1.063  24.467  0.00  0.00    +0.073 A 
ATOM     31  C   UNL     1      -4.129  -0.830  25.255  0.00  0.00    +0.016 A 
ATOM     32  C   UNL     1      -4.101  -0.030  25.452  0.00  0.00    -0.002 A 
BRANCH  26  27
ATOM     27  N   UNL     1      -4.081  -1.864  24.270  0.00  0.00    -0.179 NA
ATOM     28  C   UNL     1      -3.418  -2.341  24.387  0.00  0.00    +0.246 C 
ATOM     29  C   UNL     1      -2.728  -2.018  24.702  0.00  0.00    +0.097 C 
ATOM     30  O   UNL     1      -3.446  -3.142  24.190  0.00  0.00    -0.273 OA
ENDBRANCH  26  27
ENDBRANCH  22  23
ENDBRANCH  21  22
ENDBRANCH  15  17
TORSDOF 9
ENDMDL
MODEL 2
REMARK VINA RESULT:     -11.7      1.487      3.717
REMARK  Name = 
REMARK  9 active torsions:
REMARK  status: ('A' for Active; 'I' for Inactive)
REMARK    1  A    between atoms: O_2  and  C_3
REMARK    2  A    between atoms: C_3  and  C_4
REMARK    3  A    between atoms: C_4  and  O_5
REMARK    4  A    between atoms: O_5  and  C_6
REMARK    5  A    between atoms: C_8  and  C_12
REMARK    6  A    between atoms: C_15  and  C_17
REMARK    7  A    between atoms: N_21  and  C_22
REMARK    8  A    between atoms: C_22  and  C_23
REMARK    9  A    between atoms: C_26  and  N_27
REMARK                            x       y       z     vdW  Elec       q    Type
REMARK                         _______ _______ _______ _____ _____    ______ ____
ROOT
ATOM     12  C   UNL     1      -0.651   2.946  25.238  0.00  0.00    +0.204 A 
ATOM     13  N   UNL     1      -0.083   2.704  25.785  0.00  0.00    -0.056 NA
ATOM     14  O   UNL     1       0.267   2.013  25.500  0.00  0.00    -0.336 OA
ATOM     15  C   UNL     1      -0.085   1.828  24.777  0.00  0.00    +0.251 A 
ATOM     16  N   UNL     1      -0.653   2.405  24.616  0.00  0.00    -0.190 NA
ENDROOT
BRANCH  12   8
ATOM      6  C   UNL     1      -2.375   4.208  25.682  0.00  0.00    +0.225 A 
ATOM      7  C   UNL     1      -1.893   3.542  25.617  0.00  0.00    +0.061 A 
ATOM      8  C   UNL     1      -1.134   3.612  25.303  0.00  0.00    +0.045 A 
ATOM      9  C   UNL     1      -0.855   4.348  25.055  0.00  0.00    +0.024 A 
ATOM     10  C   UNL     1      -1.337   5.015  25.120  0.00  0.00    +0.102 A 
ATOM     11  N   UNL     1      -2.098   4.945  25.434  0.00  0.00    -0.210 NA
BRANCH   6   5
ATOM      5  O   UNL     1      -3.136   4.139  25.995  0.00  0.00    -0.457 OA
BRANCH   5   4
ATOM      4  C   UNL     1      -3.750   3.848  25.528  0.00  0.00    +0.239 C 
BRANCH   4   3
ATOM      3  C   UNL     1      -4.473   3.652  25.872  0.00  0.00    +0.189 C 
BRANCH   3   2
ATOM      1  C   UNL     1      -5.603   2.823  25.593  0.00  0.00    +0.174 C 
ATOM      2  O   UNL     1      -5.118   3.460  25.395  0.00  0.00    -0.347 OA
ENDBRANCH   3   2
ENDBRANCH   4   3
ENDBRANCH   5   4
ENDBRANCH   6   5
ENDBRANCH  12   8
BRANCH  15  17
ATOM     17  C   UNL     1       0.098   1.181  24.299  0.00  0.00    +0.138 C 
ATOM     18  C   UNL     1       0.621   1.182  23.661  0.00  0.00    +0.027 C 
ATOM     19  C   UNL     1       0.637   0.422  23.343  0.00  0.00    +0.019 C 
ATOM     20  C   UNL     1       0.123  -0.050  23.784  0.00  0.00    +0.073 C 
ATOM     21  N   UNL     1      -0.210   0.420  24.375  0.00  0.00    -0.263 NA
BRANCH  21  22
ATOM     22  C   UNL     1      -0.755   0.172  24.942  0.00  0.00    +0.099 C 
BRANCH  22  23
ATOM     23  C   UNL     1      -1.217  -0.498  24.806  0.00  0.00    -0.006 A 
ATOM     24  C   UNL     1      -0.951  -1.239  25.050  0.00  0.00    -0.002 A 
ATOM     25  C   UNL     1      -1.413  -1.910  24.913  0.00  0.00    +0.016 A 
ATOM     26  C   UNL     1      -2.141  -1.837  24.532  0.00  0.00    +0.073 A 
ATOM     31  C   UNL     1      -2.407  -1.095  24.288  0.00  0.00    +0.016 A 
ATOM     32  C   UNL     1      -1.945  -0.426  24.424  0.00  0.00    -0.002 A 
BRANCH  26  27
ATOM     27  N   UNL     1      -2.603  -2.507  24.395  0.00  0.00    -0.179 NA
ATOM     28  C   UNL     1      -3.307  -2.615  24.813  0.00  0.00    +0.246 C 
ATOM     29  C   UNL     1      -3.548  -2.054  25.366  0.00  0.00    +0.097 C 
ATOM     30  O   UNL     1      -3.769  -3.285  24.676  0.00  0.00    -0.273 OA
ENDBRANCH  26  27
ENDBRANCH  22  23
ENDBRANCH  21  22
ENDBRANCH  15  17
TORSDOF 9
ENDMDL
MODEL 3
REMARK VINA RESULT:     -11.2      1.431      4.739
REMARK  Name = 
REMARK  9 active torsions:
REMARK  status: ('A' for Active; 'I' for Inactive)
REMARK    1  A    between atoms: O_2  and  C_3
REMARK    2  A    between atoms: C_3  and  C_4
REMARK    3  A    between atoms: C_4  and  O_5
REMARK    4  A    between atoms: O_5  and  C_6
REMARK    5  A    between atoms: C_8  and  C_12
REMARK    6  A    between atoms: C_15  and  C_17
REMARK    7  A    between atoms: N_21  and  C_22
REMARK    8  A    between atoms: C_22  and  C_23
REMARK    9  A    between atoms: C_26  and  N_27
REMARK                            x       y       z     vdW  Elec       q    Type
REMARK                         _______ _______ _______ _____ _____    ______ ____
ROOT
ATOM     12  C   UNL     1      -4.003  -0.547  24.672  0.00  0.00    +0.204 A 
ATOM     13  N   UNL     1      -4.562  -0.483  24.068  0.00  0.00    -0.056 NA
ATOM     14  O   UNL     1      -4.976   0.223  24.177  0.00  0.00    -0.336 OA
ATOM     15  C   UNL     1      -4.673   0.595  24.848  0.00  0.00    +0.251 A 
ATOM     16  N   UNL     1      -4.072   0.119  25.154  0.00  0.00    -0.190 NA
ENDROOT
BRANCH  12   8
ATOM      6  C   UNL     1      -2.127  -1.637  24.902  0.00  0.00    +0.225 A 
ATOM      7  C   UNL     1      -2.660  -1.016  24.798  0.00  0.00    +0.061 A 
ATOM      8  C   UNL     1      -3.470  -1.168  24.775  0.00  0.00    +0.045 A 
ATOM      9  C   UNL     1      -3.748  -1.941  24.856  0.00  0.00    +0.024 A 
ATOM     10  C   UNL     1      -3.215  -2.561  24.959  0.00  0.00    +0.102 A 
ATOM     11  N   UNL     1      -2.404  -2.410  24.982  0.00  0.00    -0.210 NA
BRANCH   6   5
ATOM      5  O   UNL     1      -1.316  -1.485  24.924  0.00  0.00    -0.457 OA
BRANCH   5   4
ATOM      4  C   UNL     1      -0.925  -1.225  24.246  0.00  0.00    +0.239 C 
BRANCH   4   3
ATOM      3  C   UNL     1      -0.209  -0.823  24.311  0.00  0.00    +0.189 C 
BRANCH   3   2
ATOM      1  C   UNL     1       0.611  -0.012  23.466  0.00  0.00    +0.174 C 
ATOM      2  O   UNL     1       0.283  -0.746  23.653  0.00  0.00    -0.347 OA
ENDBRANCH   3   2
ENDBRANCH   4   3
ENDBRANCH   5   4
ENDBRANCH   6   5
ENDBRANCH  12   8
BRANCH  15  17
ATOM     17  C   UNL     1      -4.926   1.316  25.159  0.00  0.00    +0.138 C 
ATOM     18  C   UNL     1      -5.598   1.434  25.623  0.00  0.00    +0.027 C 
ATOM     19  C   UNL     1      -5.639   2.236  25.812  0.00  0.00    +0.019 C 
ATOM     20  C   UNL     1      -4.993   2.614  25.464  0.00  0.00    +0.073 C 
ATOM     21  N   UNL     1      -4.552   2.044  25.061  0.00  0.00    -0.263 NA
BRANCH  21  22
ATOM     22  C   UNL     1      -3.859   2.180  24.634  0.00  0.00    +0.099 C 
BRANCH  22  23
ATOM     23  C   UNL     1      -3.405   2.851  24.788  0.00  0.00    -0.006 A 
ATOM     24  C   UNL     1      -2.852   2.844  25.400  0.00  0.00    -0.002 A 
ATOM     25  C   UNL     1      -2.397   3.515  25.554  0.00  0.00    +0.016 A 
ATOM     26  C   UNL     1      -2.497   4.194  25.095  0.00  0.00    +0.073 A 
ATOM     31  C   UNL     1      -3.049   4.201  24.483  0.00  0.00    +0.016 A 
ATOM     32  C   UNL     1      -3.504   3.530  24.329  0.00  0.00    -0.002 A 
BRANCH  26  27
ATOM     27  N   UNL     1      -2.042   4.865  25.249  0.00  0.00    -0.179 NA
ATOM     28  C   UNL     1      -1.252   4.891  25.013  0.00  0.00    +0.246 C 
ATOM     29  C   UNL     1      -0.916   4.246  24.624  0.00  0.00    +0.097 C 
ATOM     30  O   UNL     1      -0.797   5.562  25.167  0.00  0.00    -0.273 OA
ENDBRANCH  26  27
ENDBRANCH  22  23
ENDBRANCH  21  22
ENDBRANCH  15  17
TORSDOF 9
ENDMDL
MODEL 4
REMARK VINA RESULT:     -10.6      1.635      4.341
REMARK  Name = 
REMARK  9 active torsions:
REMARK  status: ('A' for Active; 'I' for Inactive)
REMARK    1  A    between atoms: O_2  and  C_3
REMARK    2  A    between atoms: C_3  and  C_4
REMARK    3  A    between atoms: C_4  and  O_5
REMARK    4  A    between atoms: O_5  and  C_6
REMARK    5  A    between atoms: C_8  and  C_12
REMARK    6  A    between atoms: C_15  and  C_17
REMARK    7  A    between atoms: N_21  and  C_22
REMARK    8  A    between atoms: C_22  and  C_23
REMARK    9  A    between atoms: C_26  and  N_27
REMARK                            x       y       z     vdW  Elec       q    Type
REMARK                         _______ _______ _______ _____ _____    ______ ____
ROOT
ATOM     12  C   UNL     1      -0.072   1.854  24.806  0.00  0.00    +0.204 A 
ATOM     13  N   UNL     1       0.342   2.115  25.471  0.00  0.00    -0.056 NA
ATOM     14  O   UNL     1       0.062   2.866  25.668  0.00  0.00    -0.336 OA
ATOM     15  C   UNL     1      -0.526   3.069  25.125  0.00  0.00    +0.251 A 
ATOM     16  N   UNL     1      -0.608   2.444  24.593  0.00  0.00    -0.190 NA
ENDROOT
BRANCH  12   8
ATOM      6  C   UNL     1      -0.210  -0.275  24.348  0.00  0.00    +0.225 A 
ATOM      7  C   UNL     1      -0.314   0.449  24.731  0.00  0.00    +0.061 A 
ATOM      8  C   UNL     1       0.032   1.131  24.423  0.00  0.00    +0.045 A 
ATOM      9  C   UNL     1       0.482   1.092  23.733  0.00  0.00    +0.024 A 
ATOM     10  C   UNL     1       0.586   0.368  23.350  0.00  0.00    +0.102 A 
ATOM     11  N   UNL     1       0.240  -0.315  23.657  0.00  0.00    -0.210 NA
BRANCH   6   5
ATOM      5  O   UNL     1      -0.556  -0.958  24.655  0.00  0.00    -0.457 OA
BRANCH   5   4
ATOM      4  C   UNL     1      -1.286  -1.215  24.371  0.00  0.00    +0.239 C 
BRANCH   4   3
ATOM      3  C   UNL     1      -1.669  -1.850  24.732  0.00  0.00    +0.189 C 
BRANCH   3   2
ATOM      1  C   UNL     1      -2.947  -2.488  24.691  0.00  0.00    +0.174 C 
ATOM      2  O   UNL     1      -2.243  -2.274  24.318  0.00  0.00    -0.347 OA
ENDBRANCH   3   2
ENDBRANCH   4   3
ENDBRANCH   5   4
ENDBRANCH   6   5
ENDBRANCH  12   8
BRANCH  15  17
ATOM     17  C   UNL     1      -0.955   3.773  25.116  0.00  0.00    +0.138 C 
ATOM     18  C   UNL     1      -0.697   4.495  24.810  0.00  0.00    +0.027 C 
ATOM     19  C   UNL     1      -1.300   5.047  24.915  0.00  0.00    +0.019 C 
ATOM     20  C   UNL     1      -1.931   4.667  25.288  0.00  0.00    +0.073 C 
ATOM     21  N   UNL     1      -1.718   3.880  25.411  0.00  0.00    -0.263 NA
BRANCH  21  22
ATOM     22  C   UNL     1      -2.185   3.301  25.768  0.00  0.00    +0.099 C 
BRANCH  22  23
ATOM     23  C   UNL     1      -2.993   3.266  25.606  0.00  0.00    -0.006 A 
ATOM     24  C   UNL     1      -3.532   3.636  26.108  0.00  0.00    -0.002 A 
ATOM     25  C   UNL     1      -4.340   3.601  25.946  0.00  0.00    +0.016 A 
ATOM     26  C   UNL     1      -4.609   3.194  25.281  0.00  0.00    +0.073 A 
ATOM     31  C   UNL     1      -4.071   2.824  24.778  0.00  0.00    +0.016 A 
ATOM     32  C   UNL     1      -3.263   2.859  24.940  0.00  0.00    -0.002 A 
BRANCH  26  27
ATOM     27  N   UNL     1      -5.418   3.159  25.119  0.00  0.00    -0.179 NA
ATOM     28  C   UNL     1      -5.831   2.455  25.240  0.00  0.00    +0.246 C 
ATOM     29  C   UNL     1      -5.438   1.788  25.522  0.00  0.00    +0.097 C 
ATOM     30  O   UNL     1      -6.640   2.419  25.077  0.00  0.00    -0.273 OA
ENDBRANCH  26  27
ENDBRANCH  22  23
ENDBRANCH  21  22
ENDBRANCH  15  17
TORSDOF 9
ENDMDL
MODEL 5
REMARK VINA RESULT:     -10.6      1.580      5.947
REMARK  Name = 
REMARK  9 active torsions:
REMARK  status: ('A' for Active; 'I' for Inactive)
REMARK    1  A    between atoms: O_2  and  C_3
REMARK    2  A    between atoms: C_3  and  C_4
REMARK    3  A    between atoms: C_4  and  O_5
REMARK    4  A    between atoms: O_5  and  C_6
REMARK    5  A    between atoms: C_8  and  C_12
REMARK    6  A    between atoms: C_15  and  C_17
REMARK    7  A    between atoms: N_21  and  C_22
REMARK    8  A    between atoms: C_22  and  C_23
REMARK    9  A    between atoms: C_26  and  N_27
REMARK                            x       y       z     vdW  Elec       q    Type
REMARK                         _______ _______ _______ _____ _____    ______ ____
ROOT
ATOM     12  C   UNL     1      -1.762  -1.306  24.611  0.00  0.00    +0.204 A 
ATOM     13  N   UNL     1      -1.168  -1.637  25.078  0.00  0.00    -0.056 NA
ATOM     14  O   UNL     1      -0.472  -1.213  24.944  0.00  0.00    -0.336 OA
ATOM     15  C   UNL     1      -0.638  -0.620  24.394  0.00  0.00    +0.251 A 
ATOM     16  N   UNL     1      -1.435  -0.678  24.188  0.00  0.00    -0.190 NA
ENDROOT
BRANCH  12   8
ATOM      6  C   UNL     1      -3.942  -1.259  24.524  0.00  0.00    +0.225 A 
ATOM      7  C   UNL     1      -3.158  -1.006  24.561  0.00  0.00    +0.061 A 
ATOM      8  C   UNL     1      -2.547  -1.559  24.574  0.00  0.00    +0.045 A 
ATOM      9  C   UNL     1      -2.719  -2.366  24.550  0.00  0.00    +0.024 A 
ATOM     10  C   UNL     1      -3.503  -2.619  24.513  0.00  0.00    +0.102 A 
ATOM     11  N   UNL     1      -4.115  -2.065  24.500  0.00  0.00    -0.210 NA
BRANCH   6   5
ATOM      5  O   UNL     1      -4.555  -0.706  24.511  0.00  0.00    -0.457 OA
BRANCH   5   4
ATOM      4  C   UNL     1      -4.468   0.015  24.903  0.00  0.00    +0.239 C 
BRANCH   4   3
ATOM      3  C   UNL     1      -5.045   0.599  24.825  0.00  0.00    +0.189 C 
BRANCH   3   2
ATOM      1  C   UNL     1      -5.512   1.914  25.132  0.00  0.00    +0.174 C 
ATOM      2  O   UNL     1      -5.006   1.281  25.286  0.00  0.00    -0.347 OA
ENDBRANCH   3   2
ENDBRANCH   4   3
ENDBRANCH   5   4
ENDBRANCH   6   5
ENDBRANCH  12   8
BRANCH  15  17
ATOM     17  C   UNL     1      -0.101  -0.067  24.101  0.00  0.00    +0.138 C 
ATOM     18  C   UNL     1       0.474  -0.207  23.524  0.00  0.00    +0.027 C 
ATOM     19  C   UNL     1       0.886   0.496  23.399  0.00  0.00    +0.019 C 
ATOM     20  C   UNL     1       0.567   1.071  23.898  0.00  0.00    +0.073 C 
ATOM     21  N   UNL     1      -0.043   0.723  24.331  0.00  0.00    -0.263 NA
BRANCH  21  22
ATOM     22  C   UNL     1      -0.512   1.099  24.896  0.00  0.00    +0.099 C 
BRANCH  22  23
ATOM     23  C   UNL     1      -0.573   1.921  24.901  0.00  0.00    -0.006 A 
ATOM     24  C   UNL     1      -0.177   2.361  25.475  0.00  0.00    -0.002 A 
ATOM     25  C   UNL     1      -0.238   3.184  25.480  0.00  0.00    +0.016 A 
ATOM     26  C   UNL     1      -0.695   3.566  24.910  0.00  0.00    +0.073 A 
ATOM     31  C   UNL     1      -1.090   3.127  24.335  0.00  0.00    +0.016 A 
ATOM     32  C   UNL     1      -1.030   2.304  24.330  0.00  0.00    -0.002 A 
BRANCH  26  27
ATOM     27  N   UNL     1      -0.756   4.390  24.914  0.00  0.00    -0.179 NA
ATOM     28  C   UNL     1      -1.430   4.751  25.223  0.00  0.00    +0.246 C 
ATOM     29  C   UNL     1      -2.043   4.291  25.526  0.00  0.00    +0.097 C 
ATOM     30  O   UNL     1      -1.491   5.574  25.228  0.00  0.00    -0.273 OA
ENDBRANCH  26  27
ENDBRANCH  22  23
ENDBRANCH  21  22
ENDBRANCH  15  17
TORSDOF 9
ENDMDL
MODEL 6
REMARK VINA RESULT:     -10.4      1.347      4.245
REMARK  Name = 
REMARK  9 active torsions:
REMARK  status: ('A' for Active; 'I' for Inactive)
REMARK    1  A    between atoms: O_2  and  C_3
REMARK    2  A    between atoms: C_3  and  C_4
REMARK    3  A    between atoms: C_4  and  O_5
REMARK    4  A    between atoms: O_5  and  C_6
REMARK    5  A    between atoms: C_8  and  C_12
REMARK    6  A    between atoms: C_15  and  C_17
REMARK    7  A    between atoms: N_21  and  C_22
REMARK    8  A    between atoms: C_22  and  C_23
REMARK    9  A    between atoms: C_26  and  N_27
REMARK                            x       y       z     vdW  Elec       q    Type
REMARK                         _______ _______ _______ _____ _____    ______ ____
ROOT
ATOM     12  C   UNL     1      -3.903   3.457  25.728  0.00  0.00    +0.204 A 
ATOM     13  N   UNL     1      -3.779   3.879  26.426  0.00  0.00    -0.056 NA
ATOM     14  O   UNL     1      -3.036   4.236  26.379  0.00  0.00    -0.336 OA
ATOM     15  C   UNL     1      -2.702   4.035  25.652  0.00  0.00    +0.251 A 
ATOM     16  N   UNL     1      -3.238   3.553  25.250  0.00  0.00    -0.190 NA
ENDROOT
BRANCH  12   8
ATOM      6  C   UNL     1      -5.170   1.850  24.970  0.00  0.00    +0.225 A 
ATOM      7  C   UNL     1      -4.498   2.291  25.157  0.00  0.00    +0.061 A 
ATOM      8  C   UNL     1      -4.575   3.016  25.541  0.00  0.00    +0.045 A 
ATOM      9  C   UNL     1      -5.323   3.301  25.740  0.00  0.00    +0.024 A 
ATOM     10  C   UNL     1      -5.995   2.860  25.553  0.00  0.00    +0.102 A 
ATOM     11  N   UNL     1      -5.919   2.134  25.168  0.00  0.00    -0.210 NA
BRANCH   6   5
ATOM      5  O   UNL     1      -5.093   1.123  24.585  0.00  0.00    -0.457 OA
BRANCH   5   4
ATOM      4  C   UNL     1      -4.637   0.524  24.922  0.00  0.00    +0.239 C 
BRANCH   4   3
ATOM      3  C   UNL     1      -4.479  -0.163  24.494  0.00  0.00    +0.189 C 
BRANCH   3   2
ATOM      1  C   UNL     1      -3.866  -1.452  24.430  0.00  0.00    +0.174 C 
ATOM      2  O   UNL     1      -4.153  -0.819  24.873  0.00  0.00    -0.347 OA
ENDBRANCH   3   2
ENDBRANCH   4   3
ENDBRANCH   5   4
ENDBRANCH   6   5
ENDBRANCH  12   8
BRANCH  15  17
ATOM     17  C   UNL     1      -1.962   4.273  25.376  0.00  0.00    +0.138 C 
ATOM     18  C   UNL     1      -1.759   5.034  25.130  0.00  0.00    +0.027 C 
ATOM     19  C   UNL     1      -0.967   5.024  24.899  0.00  0.00    +0.019 C 
ATOM     20  C   UNL     1      -0.681   4.257  25.002  0.00  0.00    +0.073 C 
ATOM     21  N   UNL     1      -1.296   3.793  25.297  0.00  0.00    -0.263 NA
BRANCH  21  22
ATOM     22  C   UNL     1      -1.253   2.990  25.481  0.00  0.00    +0.099 C 
BRANCH  22  23
ATOM     23  C   UNL     1      -0.784   2.487  25.025  0.00  0.00    -0.006 A 
ATOM     24  C   UNL     1      -0.040   2.257  25.296  0.00  0.00    -0.002 A 
ATOM     25  C   UNL     1       0.429   1.754  24.840  0.00  0.00    +0.016 A 
ATOM     26  C   UNL     1       0.153   1.481  24.112  0.00  0.00    +0.073 A 
ATOM     31  C   UNL     1      -0.591   1.711  23.841  0.00  0.00    +0.016 A 
ATOM     32  C   UNL     1      -1.060   2.214  24.296  0.00  0.00    -0.002 A 
BRANCH  26  27
ATOM     27  N   UNL     1       0.622   0.978  23.656  0.00  0.00    -0.179 NA
ATOM     28  C   UNL     1       0.435   0.176  23.603  0.00  0.00    +0.246 C 
ATOM     29  C   UNL     1      -0.220  -0.123  24.005  0.00  0.00    +0.097 C 
ATOM     30  O   UNL     1       0.904  -0.327  23.147  0.00  0.00    -0.273 OA
ENDBRANCH  26  27
ENDBRANCH  22  23
ENDBRANCH  21  22
ENDBRANCH  15  17
TORSDOF 9
ENDMDL
MODEL 7
REMARK VINA RESULT:     -10.1      2.288      4.256
REMARK  Name = 
REMARK  9 active torsions:
REMARK  status: ('A' for Active; 'I' for Inactive)
REMARK    1  A    between atoms: O_2  and  C_3
REMARK    2  A    between atoms: C_3  and  C_4
REMARK    3  A    between atoms: C_4  and  O_5
REMARK    4  A    between atoms: O_5  and  C_6
REMARK    5  A    between atoms: C_8  and  C_12
REMARK    6  A    between atoms: C_15  and  C_17
REMARK    7  A    between atoms: N_21  and  C_22
REMARK    8  A    between atoms: C_22  and  C_23
REMARK    9  A    between atoms: C_26  and  N_27
REMARK                            x       y       z     vdW  Elec       q    Type
REMARK                         _______ _______ _______ _____ _____    ______ ____
ROOT
ATOM     12  C   UNL     1       0.081   1.926  24.655  0.00  0.00    +0.204 A 
ATOM     13  N   UNL     1       0.386   2.107  25.401  0.00  0.00    -0.056 NA
ATOM     14  O   UNL     1       0.045   2.816  25.651  0.00  0.00    -0.336 OA
ATOM     15  C   UNL     1      -0.470   3.073  25.060  0.00  0.00    +0.251 A 
ATOM     16  N   UNL     1      -0.447   2.524  24.445  0.00  0.00    -0.190 NA
ENDROOT
BRANCH  12   8
ATOM      6  C   UNL     1       1.129   0.616  23.260  0.00  0.00    +0.225 A 
ATOM      7  C   UNL     1       0.938   1.277  23.714  0.00  0.00    +0.061 A 
ATOM      8  C   UNL     1       0.272   1.265  24.201  0.00  0.00    +0.045 A 
ATOM      9  C   UNL     1      -0.203   0.591  24.234  0.00  0.00    +0.024 A 
ATOM     10  C   UNL     1      -0.012  -0.070  23.779  0.00  0.00    +0.102 A 
ATOM     11  N   UNL     1       0.654  -0.058  23.292  0.00  0.00    -0.210 NA
BRANCH   6   5
ATOM      5  O   UNL     1       1.795   0.628  22.773  0.00  0.00    -0.457 OA
BRANCH   5   4
ATOM      4  C   UNL     1       2.505   0.302  23.036  0.00  0.00    +0.239 C 
BRANCH   4   3
ATOM      3  C   UNL     1       3.215   0.509  22.672  0.00  0.00    +0.189 C 
BRANCH   3   2
ATOM      1  C   UNL     1       4.615   0.560  22.955  0.00  0.00    +0.174 C 
ATOM      2  O   UNL     1       3.915   0.129  22.885  0.00  0.00    -0.347 OA
ENDBRANCH   3   2
ENDBRANCH   4   3
ENDBRANCH   5   4
ENDBRANCH   6   5
ENDBRANCH  12   8
BRANCH  15  17
ATOM     17  C   UNL     1      -0.927   3.760  25.080  0.00  0.00    +0.138 C 
ATOM     18  C   UNL     1      -0.690   4.507  24.822  0.00  0.00    +0.027 C 
ATOM     19  C   UNL     1      -1.317   5.029  24.943  0.00  0.00    +0.019 C 
ATOM     20  C   UNL     1      -1.942   4.604  25.276  0.00  0.00    +0.073 C 
ATOM     21  N   UNL     1      -1.700   3.820  25.360  0.00  0.00    -0.263 NA
BRANCH  21  22
ATOM     22  C   UNL     1      -2.153   3.204  25.670  0.00  0.00    +0.099 C 
BRANCH  22  23
ATOM     23  C   UNL     1      -2.960   3.163  25.508  0.00  0.00    -0.006 A 
ATOM     24  C   UNL     1      -3.226   2.773  24.832  0.00  0.00    -0.002 A 
ATOM     25  C   UNL     1      -4.034   2.732  24.669  0.00  0.00    +0.016 A 
ATOM     26  C   UNL     1      -4.576   3.082  25.185  0.00  0.00    +0.073 A 
ATOM     31  C   UNL     1      -4.310   3.471  25.861  0.00  0.00    +0.016 A 
ATOM     32  C   UNL     1      -3.503   3.512  26.023  0.00  0.00    -0.002 A 
BRANCH  26  27
ATOM     27  N   UNL     1      -5.384   3.041  25.022  0.00  0.00    -0.179 NA
ATOM     28  C   UNL     1      -5.797   2.340  25.161  0.00  0.00    +0.246 C 
ATOM     29  C   UNL     1      -5.404   1.682  25.462  0.00  0.00    +0.097 C 
ATOM     30  O   UNL     1      -6.606   2.299  24.999  0.00  0.00    -0.273 OA
ENDBRANCH  26  27
ENDBRANCH  22  23
ENDBRANCH  21  22
ENDBRANCH  15  17
TORSDOF 9
ENDMDL
MODEL 8
REMARK VINA RESULT:     -10.0      1.444      4.110
REMARK  Name = 
REMARK  9 active torsions:
REMARK  status: ('A' for Active; 'I' for Inactive)
REMARK    1  A    between atoms: O_2  and  C_3
REMARK    2  A    between atoms: C_3  and  C_4
REMARK    3  A    between atoms: C_4  and  O_5
REMARK    4  A    between atoms: O_5  and  C_6
REMARK    5  A    between atoms: C_8  and  C_12
REMARK    6  A    between atoms: C_15  and  C_17
REMARK    7  A    between atoms: N_21  and  C_22
REMARK    8  A    between atoms: C_22  and  C_23
REMARK    9  A    between atoms: C_26  and  N_27
REMARK                            x       y       z     vdW  Elec       q    Type
REMARK                         _______ _______ _______ _____ _____    ______ ____
ROOT
ATOM     12  C   UNL     1      -1.075  -0.612  24.342  0.00  0.00    +0.204 A 
ATOM     13  N   UNL     1      -1.054  -1.262  24.850  0.00  0.00    -0.056 NA
ATOM     14  O   UNL     1      -1.822  -1.556  24.920  0.00  0.00    -0.336 OA
ATOM     15  C   UNL     1      -2.317  -1.087  24.455  0.00  0.00    +0.251 A 
ATOM     16  N   UNL     1      -1.855  -0.504  24.099  0.00  0.00    -0.190 NA
ENDROOT
BRANCH  12   8
ATOM      6  C   UNL     1       0.309   1.070  24.202  0.00  0.00    +0.225 A 
ATOM      7  C   UNL     1      -0.338   0.609  24.426  0.00  0.00    +0.061 A 
ATOM      8  C   UNL     1      -0.429  -0.150  24.118  0.00  0.00    +0.045 A 
ATOM      9  C   UNL     1       0.126  -0.450  23.586  0.00  0.00    +0.024 A 
ATOM     10  C   UNL     1       0.773   0.011  23.362  0.00  0.00    +0.102 A 
ATOM     11  N   UNL     1       0.864   0.772  23.670  0.00  0.00    -0.210 NA
BRANCH   6   5
ATOM      5  O   UNL     1       0.400   1.830  24.510  0.00  0.00    -0.457 OA
BRANCH   5   4
ATOM      4  C   UNL     1      -0.135   2.425  24.307  0.00  0.00    +0.239 C 
BRANCH   4   3
ATOM      3  C   UNL     1      -0.154   3.127  24.739  0.00  0.00    +0.189 C 
BRANCH   3   2
ATOM      1  C   UNL     1      -0.954   4.277  25.019  0.00  0.00    +0.174 C 
ATOM      2  O   UNL     1      -0.611   3.761  24.475  0.00  0.00    -0.347 OA
ENDBRANCH   3   2
ENDBRANCH   4   3
ENDBRANCH   5   4
ENDBRANCH   6   5
ENDBRANCH  12   8
BRANCH  15  17
ATOM     17  C   UNL     1      -3.131  -1.184  24.363  0.00  0.00    +0.138 C 
ATOM     18  C   UNL     1      -3.503  -1.788  23.940  0.00  0.00    +0.027 C 
ATOM     19  C   UNL     1      -4.318  -1.673  23.993  0.00  0.00    +0.019 C 
ATOM     20  C   UNL     1      -4.450  -0.997  24.449  0.00  0.00    +0.073 C 
ATOM     21  N   UNL     1      -3.717  -0.696  24.678  0.00  0.00    -0.263 NA
BRANCH  21  22
ATOM     22  C   UNL     1      -3.592  -0.024  25.140  0.00  0.00    +0.099 C 
BRANCH  22  23
ATOM     23  C   UNL     1      -4.131   0.599  25.116  0.00  0.00    -0.006 A 
ATOM     24  C   UNL     1      -4.795   0.590  25.604  0.00  0.00    -0.002 A 
ATOM     25  C   UNL     1      -5.335   1.214  25.580  0.00  0.00    +0.016 A 
ATOM     26  C   UNL     1      -5.208   1.848  25.067  0.00  0.00    +0.073 A 
ATOM     31  C   UNL     1      -4.544   1.858  24.579  0.00  0.00    +0.016 A 
ATOM     32  C   UNL     1      -4.005   1.234  24.603  0.00  0.00    -0.002 A 
BRANCH  26  27
ATOM     27  N   UNL     1      -5.748   2.472  25.043  0.00  0.00    -0.179 NA
ATOM     28  C   UNL     1      -5.592   3.168  25.459  0.00  0.00    +0.246 C 
ATOM     29  C   UNL     1      -4.898   3.239  25.898  0.00  0.00    +0.097 C 
ATOM     30  O   UNL     1      -6.131   3.792  25.435  0.00  0.00    -0.273 OA
ENDBRANCH  26  27
ENDBRANCH  22  23
ENDBRANCH  21  22
ENDBRANCH  15  17
TORSDOF 9
ENDMDL
MODEL 9
REMARK VINA RESULT:      -9.9      1.609      3.723
REMARK  Name = 
REMARK  9 active torsions:
REMARK  status: ('A' for Active; 'I' for Inactive)
REMARK    1  A    between atoms: O_2  and  C_3
REMARK    2  A    between atoms: C_3  and  C_4
REMARK    3  A    between atoms: C_4  and  O_5
REMARK    4  A    between atoms: O_5  and  C_6
REMARK    5  A    between atoms: C_8  and  C_12
REMARK    6  A    between atoms: C_15  and  C_17
REMARK    7  A    between atoms: N_21  and  C_22
REMARK    8  A    between atoms: C_22  and  C_23
REMARK    9  A    between atoms: C_26  and  N_27
REMARK                            x       y       z     vdW  Elec       q    Type
REMARK                         _______ _______ _______ _____ _____    ______ ____
ROOT
ATOM     12  C   UNL     1      -4.709   1.299  25.263  0.00  0.00    +0.204 A 
ATOM     13  N   UNL     1      -4.999   0.799  25.851  0.00  0.00    -0.056 NA
ATOM     14  O   UNL     1      -4.786   0.025  25.657  0.00  0.00    -0.336 OA
ATOM     15  C   UNL     1      -4.365   0.048  24.948  0.00  0.00    +0.251 A 
ATOM     16  N   UNL     1      -4.317   0.835  24.705  0.00  0.00    -0.190 NA
ENDROOT
BRANCH  12   8
ATOM      6  C   UNL     1      -4.262   3.411  24.944  0.00  0.00    +0.225 A 
ATOM      7  C   UNL     1      -4.175   2.591  24.969  0.00  0.00    +0.061 A 
ATOM      8  C   UNL     1      -4.796   2.119  25.237  0.00  0.00    +0.045 A 
ATOM      9  C   UNL     1      -5.504   2.466  25.481  0.00  0.00    +0.024 A 
ATOM     10  C   UNL     1      -5.591   3.286  25.455  0.00  0.00    +0.102 A 
ATOM     11  N   UNL     1      -4.969   3.759  25.187  0.00  0.00    -0.210 NA
BRANCH   6   5
ATOM      5  O   UNL     1      -3.641   3.884  24.675  0.00  0.00    -0.457 OA
BRANCH   5   4
ATOM      4  C   UNL     1      -2.971   3.991  25.145  0.00  0.00    +0.239 C 
BRANCH   4   3
ATOM      3  C   UNL     1      -2.326   4.413  24.852  0.00  0.00    +0.189 C 
BRANCH   3   2
ATOM      1  C   UNL     1      -1.002   4.907  25.068  0.00  0.00    +0.174 C 
ATOM      2  O   UNL     1      -1.734   4.670  25.366  0.00  0.00    -0.347 OA
ENDBRANCH   3   2
ENDBRANCH   4   3
ENDBRANCH   5   4
ENDBRANCH   6   5
ENDBRANCH  12   8
BRANCH  15  17
ATOM     17  C   UNL     1      -4.047  -0.602  24.552  0.00  0.00    +0.138 C 
ATOM     18  C   UNL     1      -4.440  -1.073  24.000  0.00  0.00    +0.027 C 
ATOM     19  C   UNL     1      -3.916  -1.657  23.745  0.00  0.00    +0.019 C 
ATOM     20  C   UNL     1      -3.199  -1.547  24.138  0.00  0.00    +0.073 C 
ATOM     21  N   UNL     1      -3.280  -0.894  24.637  0.00  0.00    -0.263 NA
BRANCH  21  22
ATOM     22  C   UNL     1      -2.697  -0.588  25.133  0.00  0.00    +0.099 C 
BRANCH  22  23
ATOM     23  C   UNL     1      -1.911  -0.571  24.885  0.00  0.00    -0.006 A 
ATOM     24  C   UNL     1      -1.473  -1.269  24.852  0.00  0.00    -0.002 A 
ATOM     25  C   UNL     1      -0.686  -1.252  24.603  0.00  0.00    +0.016 A 
ATOM     26  C   UNL     1      -0.338  -0.536  24.387  0.00  0.00    +0.073 A 
ATOM     31  C   UNL     1      -0.776   0.162  24.420  0.00  0.00    +0.016 A 
ATOM     32  C   UNL     1      -1.562   0.145  24.668  0.00  0.00    -0.002 A 
BRANCH  26  27
ATOM     27  N   UNL     1       0.449  -0.519  24.138  0.00  0.00    -0.179 NA
ATOM     28  C   UNL     1       0.630  -0.325  23.357  0.00  0.00    +0.246 C 
ATOM     29  C   UNL     1       0.025  -0.149  22.825  0.00  0.00    +0.097 C 
ATOM     30  O   UNL     1       1.417  -0.308  23.108  0.00  0.00    -0.273 OA
ENDBRANCH  26  27
ENDBRANCH  22  23
ENDBRANCH  21  22
ENDBRANCH  15  17
TORSDOF 9
ENDMDL
