MODEL 1
REMARK VINA RESULT:     -20.6      0.000      0.000
REMARK  Name = 
REMARK  2 active torsions:
REMARK  status: ('A' for Active; 'I' for Inactive)
REMARK    1  A    between atoms: N_3  and  C_4
REMARK    2  A    between atoms: C_19  and  C_24
REMARK                            x       y       z     vdW  Elec       q    Type
REMARK                         _______ _______ _______ _____ _____    ______ ____
ROOT
ATOM      1  O   UNL     1      -1.617   2.365  24.985  0.00  0.00    -0.250 OA
ATOM      2  C   UNL     1      -2.487   2.135  24.993  0.00  0.00    +0.327 C 
ATOM      3  N   UNL     1      -3.139   1.500  24.996  0.00  0.00    -0.162 NA
ATOM     10  N   UNL     1      -3.134   2.703  25.004  0.00  0.00    -0.262 N 
ATOM     11  C   UNL     1      -3.242   3.531  25.011  0.00  0.00    +0.097 C 
ATOM     12  C   UNL     1      -4.229   3.568  25.022  0.00  0.00    +0.043 C 
ATOM     13  C   UNL     1      -5.019   3.768  25.032  0.00  0.00    +0.011 C 
ATOM     14  C   UNL     1      -4.632   3.183  25.024  0.00  0.00    +0.058 C 
ATOM     15  C   UNL     1      -3.677   3.163  25.013  0.00  0.00    +0.101 C 
ATOM     16  C   UNL     1      -4.710   2.267  25.019  0.00  0.00    +0.041 A 
ATOM     17  C   UNL     1      -5.281   1.673  25.021  0.00  0.00    +0.013 A 
ATOM     18  C   UNL     1      -5.053   0.880  25.013  0.00  0.00    +0.006 A 
ATOM     19  C   UNL     1      -4.252   0.682  25.003  0.00  0.00    +0.056 A 
ATOM     20  C   UNL     1      -3.680   1.276  25.001  0.00  0.00    +0.261 A 
ATOM     21  O   UNL     1      -2.739   1.166  24.990  0.00  0.00    -0.267 OA
ATOM     22  N   UNL     1      -3.909   2.069  25.009  0.00  0.00    -0.299 N 
ATOM     23  C   UNL     1      -4.301   2.611  25.016  0.00  0.00    +0.110 C 
ENDROOT
BRANCH  19  24
ATOM     24  C   UNL     1      -4.024  -0.111  24.996  0.00  0.00    +0.005 A 
ATOM     25  C   UNL     1      -3.532  -0.404  25.590  0.00  0.00    +0.000 A 
ATOM     26  C   UNL     1      -3.304  -1.196  25.584  0.00  0.00    +0.000 A 
ATOM     27  C   UNL     1      -3.567  -1.696  24.982  0.00  0.00    +0.000 A 
ATOM     28  C   UNL     1      -3.338  -2.489  24.975  0.00  0.00    +0.000 A 
ATOM     29  C   UNL     1      -3.601  -2.989  24.373  0.00  0.00    +0.000 A 
ATOM     30  C   UNL     1      -4.092  -2.696  23.779  0.00  0.00    +0.000 A 
ATOM     31  C   UNL     1      -4.321  -1.903  23.786  0.00  0.00    +0.000 A 
ATOM     32  C   UNL     1      -4.058  -1.404  24.387  0.00  0.00    +0.000 A 
ATOM     33  C   UNL     1      -4.286  -0.610  24.394  0.00  0.00    +0.000 A 
ENDBRANCH  19  24
BRANCH   3   4
ATOM      4  C   UNL     1      -2.773   0.550  24.986  0.00  0.00    +0.075 A 
ATOM      5  C   UNL     1      -2.288   0.405  24.335  0.00  0.00    +0.017 A 
ATOM      6  C   UNL     1      -1.941  -0.336  24.234  0.00  0.00    +0.001 A 
ATOM      7  C   UNL     1      -2.079  -0.934  24.786  0.00  0.00    +0.000 A 
ATOM      8  C   UNL     1      -2.564  -0.791  25.438  0.00  0.00    +0.001 A 
ATOM      9  C   UNL     1      -2.831   0.066  25.351  0.00  0.00    +0.017 A 
ENDBRANCH   3   4
TORSDOF 2
ENDMDL
MODEL 2
REMARK VINA RESULT:     -19.6      1.244      4.021
REMARK  Name = 
REMARK  2 active torsions:
REMARK  status: ('A' for Active; 'I' for Inactive)
REMARK    1  A    between atoms: N_3  and  C_4
REMARK    2  A    between atoms: C_19  and  C_24
REMARK                            x       y       z     vdW  Elec       q    Type
REMARK                         _______ _______ _______ _____ _____    ______ ____
ROOT
ATOM      1  O   UNL     1      -0.687  -0.722  24.664  0.00  0.00    -0.250 OA
ATOM      2  C   UNL     1      -1.580  -0.773  24.572  0.00  0.00    +0.327 C 
ATOM      3  N   UNL     1      -2.389  -0.372  24.458  0.00  0.00    -0.162 NA
ATOM     10  N   UNL     1      -2.022  -1.511  24.576  0.00  0.00    -0.262 N 
ATOM     11  C   UNL     1      -1.876  -2.330  24.649  0.00  0.00    +0.097 C 
ATOM     12  C   UNL     1      -2.800  -2.671  24.574  0.00  0.00    +0.043 C 
ATOM     13  C   UNL     1      -3.488  -3.105  24.530  0.00  0.00    +0.011 C 
ATOM     14  C   UNL     1      -3.298  -2.430  24.504  0.00  0.00    +0.058 C 
ATOM     15  C   UNL     1      -2.399  -2.116  24.578  0.00  0.00    +0.101 C 
ATOM     16  C   UNL     1      -3.647  -1.585  24.408  0.00  0.00    +0.041 A 
ATOM     17  C   UNL     1      -4.368  -1.199  24.304  0.00  0.00    +0.013 A 
ATOM     18  C   UNL     1      -4.390  -0.376  24.244  0.00  0.00    +0.006 A 
ATOM     19  C   UNL     1      -3.691   0.060  24.289  0.00  0.00    +0.056 A 
ATOM     20  C   UNL     1      -2.970  -0.327  24.393  0.00  0.00    +0.261 A 
ATOM     21  O   UNL     1      -2.111   0.068  24.457  0.00  0.00    -0.267 OA
ATOM     22  N   UNL     1      -2.948  -1.150  24.452  0.00  0.00    -0.299 N 
ATOM     23  C   UNL     1      -3.156  -1.785  24.474  0.00  0.00    +0.110 C 
ENDROOT
BRANCH  19  24
ATOM     24  C   UNL     1      -3.713   0.882  24.229  0.00  0.00    +0.005 A 
ATOM     25  C   UNL     1      -3.269   1.265  23.649  0.00  0.00    +0.000 A 
ATOM     26  C   UNL     1      -3.292   2.088  23.589  0.00  0.00    +0.000 A 
ATOM     27  C   UNL     1      -3.757   2.527  24.109  0.00  0.00    +0.000 A 
ATOM     28  C   UNL     1      -3.780   3.350  24.049  0.00  0.00    +0.000 A 
ATOM     29  C   UNL     1      -4.246   3.789  24.570  0.00  0.00    +0.000 A 
ATOM     30  C   UNL     1      -4.690   3.405  25.149  0.00  0.00    +0.000 A 
ATOM     31  C   UNL     1      -4.667   2.583  25.209  0.00  0.00    +0.000 A 
ATOM     32  C   UNL     1      -4.202   2.144  24.689  0.00  0.00    +0.000 A 
ATOM     33  C   UNL     1      -4.179   1.321  24.749  0.00  0.00    +0.000 A 
ENDBRANCH  19  24
BRANCH   3   4
ATOM      4  C   UNL     1      -2.329   0.642  24.394  0.00  0.00    +0.075 A 
ATOM      5  C   UNL     1      -1.994   0.982  25.067  0.00  0.00    +0.017 A 
ATOM      6  C   UNL     1      -1.900   1.799  25.115  0.00  0.00    +0.001 A 
ATOM      7  C   UNL     1      -2.142   2.279  24.488  0.00  0.00    +0.000 A 
ATOM      8  C   UNL     1      -2.476   1.941  23.814  0.00  0.00    +0.001 A 
ATOM      9  C   UNL     1      -2.483   1.054  23.973  0.00  0.00    +0.017 A 
ENDBRANCH   3   4
TORSDOF 2
ENDMDL
MODEL 3
REMARK VINA RESULT:     -19.1      1.157      2.390
REMARK  Name = 
REMARK  2 active torsions:
REMARK  status: ('A' for Active; 'I' for Inactive)
REMARK    1  A    between atoms: N_3  and  C_4
REMARK    2  A    between atoms: C_19  and  C_24
REMARK                            x       y       z     vdW  Elec       q    Type
REMARK                         _______ _______ _______ _____ _____    ______ ____
ROOT
ATOM      1  O   UNL     1      -4.507   3.773  25.062  0.00  0.00    -0.250 OA
ATOM      2  C   UNL     1      -3.715   3.348  25.021  0.00  0.00    +0.327 C 
ATOM      3  N   UNL     1      -3.230   2.587  24.908  0.00  0.00    -0.162 NA
ATOM     10  N   UNL     1      -2.955   3.738  25.120  0.00  0.00    -0.262 N 
ATOM     11  C   UNL     1      -2.657   4.505  25.265  0.00  0.00    +0.097 C 
ATOM     12  C   UNL     1      -1.688   4.308  25.270  0.00  0.00    +0.043 C 
ATOM     13  C   UNL     1      -0.874   4.312  25.304  0.00  0.00    +0.011 C 
ATOM     14  C   UNL     1      -1.387   3.844  25.202  0.00  0.00    +0.058 C 
ATOM     15  C   UNL     1      -2.319   4.050  25.200  0.00  0.00    +0.101 C 
ATOM     16  C   UNL     1      -1.525   2.950  25.041  0.00  0.00    +0.041 A 
ATOM     17  C   UNL     1      -1.107   2.246  24.935  0.00  0.00    +0.013 A 
ATOM     18  C   UNL     1      -1.514   1.542  24.796  0.00  0.00    +0.006 A 
ATOM     19  C   UNL     1      -2.338   1.542  24.763  0.00  0.00    +0.056 A 
ATOM     20  C   UNL     1      -2.756   2.245  24.868  0.00  0.00    +0.261 A 
ATOM     21  O   UNL     1      -3.696   2.362  24.850  0.00  0.00    -0.267 OA
ATOM     22  N   UNL     1      -2.349   2.949  25.007  0.00  0.00    -0.299 N 
ATOM     23  C   UNL     1      -1.842   3.375  25.102  0.00  0.00    +0.110 C 
ENDROOT
BRANCH  19  24
ATOM     24  C   UNL     1      -2.744   0.838  24.624  0.00  0.00    +0.005 A 
ATOM     25  C   UNL     1      -3.262   0.780  23.984  0.00  0.00    +0.000 A 
ATOM     26  C   UNL     1      -3.669   0.076  23.844  0.00  0.00    +0.000 A 
ATOM     27  C   UNL     1      -3.557  -0.571  24.344  0.00  0.00    +0.000 A 
ATOM     28  C   UNL     1      -3.964  -1.276  24.204  0.00  0.00    +0.000 A 
ATOM     29  C   UNL     1      -3.852  -1.922  24.705  0.00  0.00    +0.000 A 
ATOM     30  C   UNL     1      -3.334  -1.865  25.344  0.00  0.00    +0.000 A 
ATOM     31  C   UNL     1      -2.928  -1.161  25.483  0.00  0.00    +0.000 A 
ATOM     32  C   UNL     1      -3.039  -0.514  24.984  0.00  0.00    +0.000 A 
ATOM     33  C   UNL     1      -2.633   0.191  25.123  0.00  0.00    +0.000 A 
ENDBRANCH  19  24
BRANCH   3   4
ATOM      4  C   UNL     1      -3.806   1.764  24.742  0.00  0.00    +0.075 A 
ATOM      5  C   UNL     1      -4.364   1.644  25.337  0.00  0.00    +0.017 A 
ATOM      6  C   UNL     1      -4.881   1.003  25.296  0.00  0.00    +0.001 A 
ATOM      7  C   UNL     1      -4.841   0.481  24.657  0.00  0.00    +0.000 A 
ATOM      8  C   UNL     1      -4.283   0.601  24.061  0.00  0.00    +0.001 A 
ATOM      9  C   UNL     1      -3.833   1.343  24.303  0.00  0.00    +0.017 A 
ENDBRANCH   3   4
TORSDOF 2
ENDMDL
MODEL 4
REMARK VINA RESULT:     -18.4      1.072      1.982
REMARK  Name = 
REMARK  2 active torsions:
REMARK  status: ('A' for Active; 'I' for Inactive)
REMARK    1  A    between atoms: N_3  and  C_4
REMARK    2  A    between atoms: C_19  and  C_24
REMARK                            x       y       z     vdW  Elec       q    Type
REMARK                         _______ _______ _______ _____ _____    ______ ____
ROOT
ATOM      1  O   UNL     1      -5.713   1.218  25.861  0.00  0.00    -0.250 OA
ATOM      2  C   UNL     1      -5.017   1.356  25.307  0.00  0.00    +0.327 C 
ATOM      3  N   UNL     1      -4.300   1.042  24.844  0.00  0.00    -0.162 NA
ATOM     10  N   UNL     1      -4.812   2.122  24.974  0.00  0.00    -0.262 N 
ATOM     11  C   UNL     1      -5.088   2.910  24.996  0.00  0.00    +0.097 C 
ATOM     12  C   UNL     1      -4.424   3.335  24.400  0.00  0.00    +0.043 C 
ATOM     13  C   UNL     1      -3.965   3.826  23.940  0.00  0.00    +0.011 C 
ATOM     14  C   UNL     1      -3.984   3.146  24.114  0.00  0.00    +0.058 C 
ATOM     15  C   UNL     1      -4.633   2.751  24.692  0.00  0.00    +0.101 C 
ATOM     16  C   UNL     1      -3.543   2.353  23.970  0.00  0.00    +0.041 A 
ATOM     17  C   UNL     1      -2.897   2.045  23.559  0.00  0.00    +0.013 A 
ATOM     18  C   UNL     1      -2.720   1.241  23.615  0.00  0.00    +0.006 A 
ATOM     19  C   UNL     1      -3.187   0.746  24.081  0.00  0.00    +0.056 A 
ATOM     20  C   UNL     1      -3.832   1.054  24.491  0.00  0.00    +0.261 A 
ATOM     21  O   UNL     1      -4.434   0.583  25.052  0.00  0.00    -0.267 OA
ATOM     22  N   UNL     1      -4.010   1.858  24.436  0.00  0.00    -0.299 N 
ATOM     23  C   UNL     1      -3.970   2.501  24.255  0.00  0.00    +0.110 C 
ENDROOT
BRANCH  19  24
ATOM     24  C   UNL     1      -3.009  -0.057  24.136  0.00  0.00    +0.005 A 
ATOM     25  C   UNL     1      -3.582  -0.620  23.948  0.00  0.00    +0.000 A 
ATOM     26  C   UNL     1      -3.404  -1.424  24.003  0.00  0.00    +0.000 A 
ATOM     27  C   UNL     1      -2.653  -1.665  24.245  0.00  0.00    +0.000 A 
ATOM     28  C   UNL     1      -2.475  -2.469  24.300  0.00  0.00    +0.000 A 
ATOM     29  C   UNL     1      -1.723  -2.709  24.542  0.00  0.00    +0.000 A 
ATOM     30  C   UNL     1      -1.151  -2.147  24.728  0.00  0.00    +0.000 A 
ATOM     31  C   UNL     1      -1.328  -1.343  24.674  0.00  0.00    +0.000 A 
ATOM     32  C   UNL     1      -2.079  -1.102  24.432  0.00  0.00    +0.000 A 
ATOM     33  C   UNL     1      -2.258  -0.298  24.377  0.00  0.00    +0.000 A 
ENDBRANCH  19  24
BRANCH   3   4
ATOM      4  C   UNL     1      -4.150   0.042  24.966  0.00  0.00    +0.075 A 
ATOM      5  C   UNL     1      -3.973  -0.158  25.746  0.00  0.00    +0.017 A 
ATOM      6  C   UNL     1      -3.834  -0.944  25.951  0.00  0.00    +0.001 A 
ATOM      7  C   UNL     1      -3.872  -1.533  25.373  0.00  0.00    +0.000 A 
ATOM      8  C   UNL     1      -4.048  -1.334  24.592  0.00  0.00    +0.001 A 
ATOM      9  C   UNL     1      -4.160  -0.440  24.594  0.00  0.00    +0.017 A 
ENDBRANCH   3   4
TORSDOF 2
ENDMDL
MODEL 5
REMARK VINA RESULT:     -18.0      1.349      4.412
REMARK  Name = 
REMARK  2 active torsions:
REMARK  status: ('A' for Active; 'I' for Inactive)
REMARK    1  A    between atoms: N_3  and  C_4
REMARK    2  A    between atoms: C_19  and  C_24
REMARK                            x       y       z     vdW  Elec       q    Type
REMARK                         _______ _______ _______ _____ _____    ______ ____
ROOT
ATOM      1  O   UNL     1      -5.478   1.601  24.564  0.00  0.00    -0.250 OA
ATOM      2  C   UNL     1      -4.623   1.352  24.692  0.00  0.00    +0.327 C 
ATOM      3  N   UNL     1      -3.751   1.562  24.850  0.00  0.00    -0.162 NA
ATOM     10  N   UNL     1      -4.354   0.534  24.687  0.00  0.00    -0.262 N 
ATOM     11  C   UNL     1      -4.674  -0.231  24.588  0.00  0.00    +0.097 C 
ATOM     12  C   UNL     1      -3.852  -0.769  24.692  0.00  0.00    +0.043 C 
ATOM     13  C   UNL     1      -3.278  -1.344  24.753  0.00  0.00    +0.011 C 
ATOM     14  C   UNL     1      -3.317  -0.645  24.789  0.00  0.00    +0.058 C 
ATOM     15  C   UNL     1      -4.120  -0.139  24.685  0.00  0.00    +0.101 C 
ATOM     16  C   UNL     1      -2.795   0.100  24.921  0.00  0.00    +0.041 A 
ATOM     17  C   UNL     1      -2.012   0.316  25.064  0.00  0.00    +0.013 A 
ATOM     18  C   UNL     1      -1.813   1.113  25.146  0.00  0.00    +0.006 A 
ATOM     19  C   UNL     1      -2.396   1.693  25.083  0.00  0.00    +0.056 A 
ATOM     20  C   UNL     1      -3.179   1.477  24.940  0.00  0.00    +0.261 A 
ATOM     21  O   UNL     1      -3.926   2.053  24.850  0.00  0.00    -0.267 OA
ATOM     22  N   UNL     1      -3.379   0.680  24.859  0.00  0.00    -0.299 N 
ATOM     23  C   UNL     1      -3.315   0.015  24.829  0.00  0.00    +0.110 C 
ENDROOT
BRANCH  19  24
ATOM     24  C   UNL     1      -2.196   2.489  25.165  0.00  0.00    +0.005 A 
ATOM     25  C   UNL     1      -2.604   2.963  25.703  0.00  0.00    +0.000 A 
ATOM     26  C   UNL     1      -2.404   3.759  25.785  0.00  0.00    +0.000 A 
ATOM     27  C   UNL     1      -1.797   4.081  25.329  0.00  0.00    +0.000 A 
ATOM     28  C   UNL     1      -1.597   4.878  25.411  0.00  0.00    +0.000 A 
ATOM     29  C   UNL     1      -0.989   5.199  24.955  0.00  0.00    +0.000 A 
ATOM     30  C   UNL     1      -0.582   4.725  24.417  0.00  0.00    +0.000 A 
ATOM     31  C   UNL     1      -0.781   3.929  24.335  0.00  0.00    +0.000 A 
ATOM     32  C   UNL     1      -1.389   3.607  24.791  0.00  0.00    +0.000 A 
ATOM     33  C   UNL     1      -1.589   2.810  24.709  0.00  0.00    +0.000 A 
ENDBRANCH  19  24
BRANCH   3   4
ATOM      4  C   UNL     1      -3.590   2.564  24.937  0.00  0.00    +0.075 A 
ATOM      5  C   UNL     1      -3.793   2.977  24.253  0.00  0.00    +0.017 A 
ATOM      6  C   UNL     1      -3.700   3.795  24.221  0.00  0.00    +0.001 A 
ATOM      7  C   UNL     1      -3.403   4.202  24.876  0.00  0.00    +0.000 A 
ATOM      8  C   UNL     1      -3.200   3.790  25.561  0.00  0.00    +0.001 A 
ATOM      9  C   UNL     1      -3.379   2.925  25.379  0.00  0.00    +0.017 A 
ENDBRANCH   3   4
TORSDOF 2
ENDMDL
