REMARK  Name = 
REMARK  5 active torsions:
REMARK  status: ('A' for Active; 'I' for Inactive)
REMARK    1  A    between atoms: N_9  and  C_10
REMARK    2  A    between atoms: C_10  and  C_11
REMARK    3  A    between atoms: C_24  and  C_25
REMARK    4  A    between atoms: C_26  and  C_27
REMARK    5  A    between atoms: C_27  and  N_28
REMARK                            x       y       z     vdW  Elec       q    Type
REMARK                         _______ _______ _______ _____ _____    ______ ____
ROOT
ATOM      1  O   UNL     1       0.679  -3.514   0.000  0.00  0.00    -0.267 OA
ATOM      2  C   UNL     1       1.157  -2.841   0.000  0.00  0.00    +0.261 A 
ATOM      3  N   UNL     1       0.813  -2.091   0.000  0.00  0.00    -0.299 N 
ATOM      4  C   UNL     1       1.629  -1.912   0.000  0.00  0.00    +0.110 C 
ATOM      5  C   UNL     1       1.582  -0.925   0.000  0.00  0.00    +0.039 C 
ATOM      6  C   UNL     1       1.713  -0.121   0.000  0.00  0.00    +0.011 C 
ATOM      7  C   UNL     1       1.163  -0.557   0.000  0.00  0.00    +0.054 C 
ATOM      8  C   UNL     1       0.244  -0.558   0.000  0.00  0.00    +0.078 C 
ATOM      9  N   UNL     1       0.117  -1.360   0.000  0.00  0.00    -0.266 NA
ATOM     20  C   UNL     1       0.622  -0.936   0.000  0.00  0.00    +0.074 C 
ATOM     21  C   UNL     1       1.290  -1.419   0.000  0.00  0.00    +0.041 A 
ATOM     22  C   UNL     1       2.111  -1.496   0.000  0.00  0.00    +0.013 A 
ATOM     23  C   UNL     1       2.455  -2.245   0.000  0.00  0.00    +0.006 A 
ATOM     24  C   UNL     1       1.978  -2.918   0.000  0.00  0.00    +0.056 A 
ENDROOT
BRANCH  24  25
ATOM     25  C   UNL     1       2.322  -3.668   0.000  0.00  0.00    +0.002 A 
ATOM     26  C   UNL     1       3.144  -3.745   0.000  0.00  0.00    -0.006 A 
ATOM     34  C   UNL     1       3.488  -4.495   0.000  0.00  0.00    -0.003 A 
ATOM     35  C   UNL     1       3.010  -5.168   0.000  0.00  0.00    -0.000 A 
ATOM     36  C   UNL     1       2.189  -5.091   0.000  0.00  0.00    -0.000 A 
ATOM     37  C   UNL     1       1.845  -4.341   0.000  0.00  0.00    -0.000 A 
BRANCH  26  27
ATOM     27  C   UNL     1       3.621  -3.072   0.000  0.00  0.00    +0.099 C 
BRANCH  27  28
ATOM     28  N   UNL     1       4.442  -3.149   0.000  0.00  0.00    -0.265 NA
ATOM     29  C   UNL     1       4.920  -2.476   0.000  0.00  0.00    +0.105 C 
ATOM     30  C   UNL     1       5.741  -2.553   0.000  0.00  0.00    +0.159 C 
ATOM     31  O   UNL     1       6.085  -3.303   0.000  0.00  0.00    -0.351 OA
ATOM     32  C   UNL     1       5.608  -3.976   0.000  0.00  0.00    +0.159 C 
ATOM     33  C   UNL     1       4.786  -3.899   0.000  0.00  0.00    +0.105 C 
ENDBRANCH  27  28
ENDBRANCH  26  27
ENDBRANCH  24  25
BRANCH   9  10
ATOM     10  C   UNL     1      -0.288  -2.078   0.000  0.00  0.00    +0.138 C 
BRANCH  10  11
ATOM     11  C   UNL     1      -1.113  -2.086   0.000  0.00  0.00    +0.139 A 
ATOM     12  C   UNL     1      -1.604  -1.423   0.000  0.00  0.00    +0.037 A 
ATOM     13  C   UNL     1      -2.387  -1.685   0.000  0.00  0.00    +0.037 A 
ATOM     14  C   UNL     1      -2.379  -2.510   0.000  0.00  0.00    +0.145 A 
ATOM     15  O   UNL     1      -1.592  -2.758   0.000  0.00  0.00    -0.456 OA
ATOM     16  C   UNL     1      -3.090  -2.930   0.000  0.00  0.00    +0.037 A 
ATOM     17  C   UNL     1      -3.808  -2.524   0.000  0.00  0.00    +0.003 A 
ATOM     18  C   UNL     1      -3.816  -1.699   0.000  0.00  0.00    +0.000 A 
ATOM     19  C   UNL     1      -3.105  -1.280   0.000  0.00  0.00    +0.003 A 
ENDBRANCH  10  11
ENDBRANCH   9  10
TORSDOF 5
