REMARK  Name = 
REMARK  7 active torsions:
REMARK  status: ('A' for Active; 'I' for Inactive)
REMARK    1  A    between atoms: C_2  and  C_4
REMARK    2  A    between atoms: C_4  and  C_5
REMARK    3  A    between atoms: C_4  and  N_12
REMARK    4  A    between atoms: C_5  and  C_6
REMARK    5  A    between atoms: C_13  and  C_15
REMARK    6  A    between atoms: N_23  and  C_24
REMARK    7  A    between atoms: N_32  and  C_33
REMARK                            x       y       z     vdW  Elec       q    Type
REMARK                         _______ _______ _______ _____ _____    ______ ____
ROOT
ATOM     15  C   UNL     1      -3.572  -2.888   0.000  0.00  0.00    +0.175 C 
ATOM     16  C   UNL     1      -4.287  -2.475   0.000  0.00  0.00    +0.124 C 
ATOM     17  N   UNL     1      -4.287  -1.650   0.000  0.00  0.00    -0.259 N 
ATOM     18  C   UNL     1      -3.572  -1.238   0.000  0.00  0.00    +0.117 C 
ATOM     19  C   UNL     1      -2.858  -1.650   0.000  0.00  0.00    +0.117 C 
ATOM     20  N   UNL     1      -2.858  -2.475   0.000  0.00  0.00    -0.253 N 
ATOM     21  C   UNL     1      -2.143  -2.888   0.000  0.00  0.00    +0.324 C 
ATOM     22  O   UNL     1      -2.143  -3.712   0.000  0.00  0.00    -0.251 OA
ATOM     23  N   UNL     1      -1.429  -2.475   0.000  0.00  0.00    -0.190 NA
ATOM     30  C   UNL     1      -5.001  -1.238   0.000  0.00  0.00    +0.328 C 
ATOM     31  O   UNL     1      -5.001  -0.412   0.000  0.00  0.00    -0.250 OA
ATOM     32  N   UNL     1      -5.716  -1.650   0.000  0.00  0.00    -0.162 NA
ENDROOT
BRANCH  23  24
ATOM     24  C   UNL     1      -0.715  -2.888   0.000  0.00  0.00    +0.097 C 
ATOM     25  C   UNL     1       0.000  -2.475   0.000  0.00  0.00    +0.022 C 
ATOM     26  C   UNL     1       0.715  -2.888   0.000  0.00  0.00    +0.002 C 
ATOM     27  C   UNL     1       0.715  -3.712   0.000  0.00  0.00    +0.000 C 
ATOM     28  C   UNL     1       0.000  -4.125   0.000  0.00  0.00    +0.002 C 
ATOM     29  C   UNL     1      -0.715  -3.712   0.000  0.00  0.00    +0.022 C 
ENDBRANCH  23  24
BRANCH  32  33
ATOM     33  C   UNL     1      -6.430  -1.238   0.000  0.00  0.00    +0.075 A 
ATOM     34  C   UNL     1      -7.145  -1.650   0.000  0.00  0.00    +0.017 A 
ATOM     35  C   UNL     1      -7.859  -1.238   0.000  0.00  0.00    +0.001 A 
ATOM     36  C   UNL     1      -7.859  -0.412   0.000  0.00  0.00    +0.000 A 
ATOM     37  C   UNL     1      -7.145   0.000   0.000  0.00  0.00    +0.001 A 
ATOM     38  C   UNL     1      -6.430  -0.412   0.000  0.00  0.00    +0.017 A 
ENDBRANCH  32  33
BRANCH  15  13
ATOM     12  N   UNL     1      -2.858  -4.125   0.000  0.00  0.00    -0.196 NA
ATOM     13  C   UNL     1      -3.572  -3.712   0.000  0.00  0.00    +0.262 C 
ATOM     14  O   UNL     1      -4.287  -4.125   0.000  0.00  0.00    -0.271 OA
BRANCH  12   4
ATOM      4  C   UNL     1      -2.858  -4.950   0.000  0.00  0.00    +0.179 C 
BRANCH   4   2
ATOM      1  N   UNL     1      -4.287  -4.950   0.000  0.00  0.00    -0.086 NA
ATOM      2  C   UNL     1      -3.572  -5.362   0.000  0.00  0.00    +0.281 C 
ATOM      3  O   UNL     1      -3.572  -6.188   0.000  0.00  0.00    -0.270 OA
ENDBRANCH   4   2
BRANCH   4   5
ATOM      5  C   UNL     1      -2.143  -5.362   0.000  0.00  0.00    +0.059 C 
BRANCH   5   6
ATOM      6  C   UNL     1      -2.143  -6.188   0.000  0.00  0.00    -0.001 A 
ATOM      7  C   UNL     1      -1.429  -6.600   0.000  0.00  0.00    -0.001 A 
ATOM      8  C   UNL     1      -1.429  -7.425   0.000  0.00  0.00    +0.020 A 
ATOM      9  C   UNL     1      -2.143  -7.838   0.000  0.00  0.00    +0.099 A 
ATOM     10  N   UNL     1      -2.858  -7.425   0.000  0.00  0.00    -0.243 NA
ATOM     11  C   UNL     1      -2.858  -6.600   0.000  0.00  0.00    +0.095 A 
ENDBRANCH   5   6
ENDBRANCH   4   5
ENDBRANCH  12   4
ENDBRANCH  15  13
TORSDOF 7
