MODEL 1
REMARK VINA RESULT:     -14.2      0.000      0.000
REMARK  Name = 
REMARK  4 active torsions:
REMARK  status: ('A' for Active; 'I' for Inactive)
REMARK    1  A    between atoms: C_7  and  C_8
REMARK    2  A    between atoms: C_8  and  N_9
REMARK    3  A    between atoms: C_12  and  C_14
REMARK    4  A    between atoms: C_20  and  C_23
REMARK                            x       y       z     vdW  Elec       q    Type
REMARK                         _______ _______ _______ _____ _____    ______ ____
ROOT
ATOM      9  N   UNL     1      -4.014   0.306  24.266  0.00  0.00    -0.268 NA
ATOM     10  C   UNL     1      -4.659   0.569  24.709  0.00  0.00    +0.073 C 
ATOM     11  C   UNL     1      -4.475   1.316  25.008  0.00  0.00    +0.026 C 
ATOM     12  C   UNL     1      -3.716   1.514  24.750  0.00  0.00    +0.076 C 
ATOM     13  C   UNL     1      -3.432   0.890  24.292  0.00  0.00    +0.080 C 
ENDROOT
BRANCH  12  14
ATOM     14  C   UNL     1      -3.313   2.213  24.921  0.00  0.00    +0.140 A 
ATOM     15  N   UNL     1      -3.536   2.777  25.480  0.00  0.00    -0.229 NA
ATOM     16  C   UNL     1      -2.977   3.383  25.467  0.00  0.00    +0.100 A 
ATOM     17  C   UNL     1      -2.409   3.195  24.899  0.00  0.00    +0.100 A 
ATOM     18  N   UNL     1      -2.616   2.472  24.561  0.00  0.00    -0.229 NA
ATOM     19  C   UNL     1      -1.776   3.707  24.764  0.00  0.00    +0.025 A 
ATOM     20  C   UNL     1      -1.711   4.406  25.195  0.00  0.00    +0.073 A 
ATOM     21  C   UNL     1      -2.280   4.595  25.763  0.00  0.00    +0.005 A 
ATOM     22  C   UNL     1      -2.913   4.084  25.899  0.00  0.00    +0.021 A 
BRANCH  20  23
ATOM     23  C   UNL     1      -1.079   4.917  25.059  0.00  0.00    +0.419 C 
ATOM     24  F   UNL     1      -0.446   5.430  24.923  0.00  0.00    -0.166 F 
ATOM     25  F   UNL     1      -0.552   4.331  25.303  0.00  0.00    -0.166 F 
ATOM     26  F   UNL     1      -1.605   5.504  24.815  0.00  0.00    -0.166 F 
ENDBRANCH  20  23
ENDBRANCH  12  14
BRANCH   9   8
ATOM      8  C   UNL     1      -3.961  -0.414  23.868  0.00  0.00    +0.101 C 
BRANCH   8   7
ATOM      1  F   UNL     1      -4.435  -1.881  23.278  0.00  0.00    -0.204 F 
ATOM      2  C   UNL     1      -4.019  -1.837  23.989  0.00  0.00    +0.137 A 
ATOM      3  C   UNL     1      -3.840  -2.526  24.406  0.00  0.00    +0.029 A 
ATOM      4  C   UNL     1      -3.425  -2.482  25.117  0.00  0.00    +0.002 A 
ATOM      5  C   UNL     1      -3.188  -1.750  25.411  0.00  0.00    -0.000 A 
ATOM      6  C   UNL     1      -3.366  -1.060  24.995  0.00  0.00    -0.001 A 
ATOM      7  C   UNL     1      -3.782  -1.104  24.284  0.00  0.00    +0.021 A 
ENDBRANCH   8   7
ENDBRANCH   9   8
TORSDOF 4
ENDMDL
MODEL 2
REMARK VINA RESULT:     -14.2      0.906      1.288
REMARK  Name = 
REMARK  4 active torsions:
REMARK  status: ('A' for Active; 'I' for Inactive)
REMARK    1  A    between atoms: C_7  and  C_8
REMARK    2  A    between atoms: C_8  and  N_9
REMARK    3  A    between atoms: C_12  and  C_14
REMARK    4  A    between atoms: C_20  and  C_23
REMARK                            x       y       z     vdW  Elec       q    Type
REMARK                         _______ _______ _______ _____ _____    ______ ____
ROOT
ATOM      9  N   UNL     1      -4.020   0.300  25.006  0.00  0.00    -0.268 NA
ATOM     10  C   UNL     1      -4.357   0.679  24.356  0.00  0.00    +0.073 C 
ATOM     11  C   UNL     1      -3.950   1.387  24.234  0.00  0.00    +0.026 C 
ATOM     12  C   UNL     1      -3.360   1.444  24.809  0.00  0.00    +0.076 C 
ATOM     13  C   UNL     1      -3.404   0.773  25.286  0.00  0.00    +0.080 C 
ENDROOT
BRANCH  12  14
ATOM     14  C   UNL     1      -2.823   2.065  24.892  0.00  0.00    +0.140 A 
ATOM     15  N   UNL     1      -2.018   1.990  25.058  0.00  0.00    -0.229 NA
ATOM     16  C   UNL     1      -1.694   2.748  25.092  0.00  0.00    +0.100 A 
ATOM     17  C   UNL     1      -2.298   3.290  24.947  0.00  0.00    +0.100 A 
ATOM     18  N   UNL     1      -2.996   2.869  24.823  0.00  0.00    -0.229 NA
ATOM     19  C   UNL     1      -2.134   4.099  24.946  0.00  0.00    +0.025 A 
ATOM     20  C   UNL     1      -1.367   4.365  25.090  0.00  0.00    +0.073 A 
ATOM     21  C   UNL     1      -0.763   3.822  25.235  0.00  0.00    +0.005 A 
ATOM     22  C   UNL     1      -0.926   3.013  25.236  0.00  0.00    +0.021 A 
BRANCH  20  23
ATOM     23  C   UNL     1      -1.203   5.173  25.090  0.00  0.00    +0.419 C 
ATOM     24  F   UNL     1      -1.039   5.982  25.089  0.00  0.00    -0.166 F 
ATOM     25  F   UNL     1      -1.800   5.295  25.646  0.00  0.00    -0.166 F 
ATOM     26  F   UNL     1      -0.606   5.052  24.533  0.00  0.00    -0.166 F 
ENDBRANCH  20  23
ENDBRANCH  12  14
BRANCH   9   8
ATOM      8  C   UNL     1      -4.256  -0.424  25.321  0.00  0.00    +0.101 C 
BRANCH   8   7
ATOM      1  F   UNL     1      -3.414  -1.538  26.201  0.00  0.00    -0.204 F 
ATOM      2  C   UNL     1      -3.589  -1.685  25.408  0.00  0.00    +0.137 A 
ATOM      3  C   UNL     1      -3.342  -2.389  25.055  0.00  0.00    +0.029 A 
ATOM      4  C   UNL     1      -3.517  -2.535  24.262  0.00  0.00    +0.002 A 
ATOM      5  C   UNL     1      -3.938  -1.979  23.823  0.00  0.00    -0.000 A 
ATOM      6  C   UNL     1      -4.185  -1.275  24.175  0.00  0.00    -0.001 A 
ATOM      7  C   UNL     1      -4.009  -1.128  24.969  0.00  0.00    +0.021 A 
ENDBRANCH   8   7
ENDBRANCH   9   8
TORSDOF 4
ENDMDL
MODEL 3
REMARK VINA RESULT:     -13.8      1.155      5.530
REMARK  Name = 
REMARK  4 active torsions:
REMARK  status: ('A' for Active; 'I' for Inactive)
REMARK    1  A    between atoms: C_7  and  C_8
REMARK    2  A    between atoms: C_8  and  N_9
REMARK    3  A    between atoms: C_12  and  C_14
REMARK    4  A    between atoms: C_20  and  C_23
REMARK                            x       y       z     vdW  Elec       q    Type
REMARK                         _______ _______ _______ _____ _____    ______ ____
ROOT
ATOM      9  N   UNL     1      -4.368   2.572  24.669  0.00  0.00    -0.268 NA
ATOM     10  C   UNL     1      -5.129   2.384  24.926  0.00  0.00    +0.073 C 
ATOM     11  C   UNL     1      -5.171   1.566  25.022  0.00  0.00    +0.026 C 
ATOM     12  C   UNL     1      -4.435   1.248  24.825  0.00  0.00    +0.076 C 
ATOM     13  C   UNL     1      -3.939   1.870  24.606  0.00  0.00    +0.080 C 
ENDROOT
BRANCH  12  14
ATOM     14  C   UNL     1      -4.231   0.449  24.842  0.00  0.00    +0.140 A 
ATOM     15  N   UNL     1      -3.928   0.040  25.491  0.00  0.00    -0.229 NA
ATOM     16  C   UNL     1      -3.805  -0.743  25.264  0.00  0.00    +0.100 A 
ATOM     17  C   UNL     1      -4.033  -0.819  24.475  0.00  0.00    +0.100 A 
ATOM     18  N   UNL     1      -4.296  -0.083  24.214  0.00  0.00    -0.229 NA
ATOM     19  C   UNL     1      -3.970  -1.549  24.096  0.00  0.00    +0.025 A 
ATOM     20  C   UNL     1      -3.680  -2.203  24.506  0.00  0.00    +0.073 A 
ATOM     21  C   UNL     1      -3.453  -2.128  25.295  0.00  0.00    +0.005 A 
ATOM     22  C   UNL     1      -3.515  -1.398  25.675  0.00  0.00    +0.021 A 
BRANCH  20  23
ATOM     23  C   UNL     1      -3.618  -2.933  24.127  0.00  0.00    +0.419 C 
ATOM     24  F   UNL     1      -3.556  -3.664  23.748  0.00  0.00    -0.166 F 
ATOM     25  F   UNL     1      -2.797  -2.900  24.197  0.00  0.00    -0.166 F 
ATOM     26  F   UNL     1      -4.439  -2.967  24.056  0.00  0.00    -0.166 F 
ENDBRANCH  20  23
ENDBRANCH  12  14
BRANCH   9   8
ATOM      8  C   UNL     1      -4.085   3.329  24.503  0.00  0.00    +0.101 C 
BRANCH   8   7
ATOM      1  F   UNL     1      -2.629   3.800  23.884  0.00  0.00    -0.204 F 
ATOM      2  C   UNL     1      -2.792   3.910  24.685  0.00  0.00    +0.137 A 
ATOM      3  C   UNL     1      -2.227   4.256  25.177  0.00  0.00    +0.029 A 
ATOM      4  C   UNL     1      -2.390   4.366  25.978  0.00  0.00    +0.002 A 
ATOM      5  C   UNL     1      -3.117   4.131  26.288  0.00  0.00    -0.000 A 
ATOM      6  C   UNL     1      -3.682   3.785  25.796  0.00  0.00    -0.001 A 
ATOM      7  C   UNL     1      -3.519   3.675  24.995  0.00  0.00    +0.021 A 
ENDBRANCH   8   7
ENDBRANCH   9   8
TORSDOF 4
ENDMDL
MODEL 4
REMARK VINA RESULT:     -13.6      1.295      5.788
REMARK  Name = 
REMARK  4 active torsions:
REMARK  status: ('A' for Active; 'I' for Inactive)
REMARK    1  A    between atoms: C_7  and  C_8
REMARK    2  A    between atoms: C_8  and  N_9
REMARK    3  A    between atoms: C_12  and  C_14
REMARK    4  A    between atoms: C_20  and  C_23
REMARK                            x       y       z     vdW  Elec       q    Type
REMARK                         _______ _______ _______ _____ _____    ______ ____
ROOT
ATOM      9  N   UNL     1      -1.237   2.347  24.718  0.00  0.00    -0.268 NA
ATOM     10  C   UNL     1      -1.192   2.275  23.898  0.00  0.00    +0.073 C 
ATOM     11  C   UNL     1      -1.604   1.595  23.678  0.00  0.00    +0.026 C 
ATOM     12  C   UNL     1      -1.905   1.246  24.364  0.00  0.00    +0.076 C 
ATOM     13  C   UNL     1      -1.678   1.711  25.006  0.00  0.00    +0.080 C 
ENDROOT
BRANCH  12  14
ATOM     14  C   UNL     1      -2.353   0.555  24.400  0.00  0.00    +0.140 A 
ATOM     15  N   UNL     1      -3.137   0.472  24.159  0.00  0.00    -0.229 NA
ATOM     16  C   UNL     1      -3.364  -0.309  24.294  0.00  0.00    +0.100 A 
ATOM     17  C   UNL     1      -2.720  -0.710  24.618  0.00  0.00    +0.100 A 
ATOM     18  N   UNL     1      -2.095  -0.176  24.684  0.00  0.00    -0.229 NA
ATOM     19  C   UNL     1      -2.786  -1.509  24.811  0.00  0.00    +0.025 A 
ATOM     20  C   UNL     1      -3.496  -1.908  24.680  0.00  0.00    +0.073 A 
ATOM     21  C   UNL     1      -4.140  -1.507  24.356  0.00  0.00    +0.005 A 
ATOM     22  C   UNL     1      -4.075  -0.708  24.162  0.00  0.00    +0.021 A 
BRANCH  20  23
ATOM     23  C   UNL     1      -3.562  -2.707  24.873  0.00  0.00    +0.419 C 
ATOM     24  F   UNL     1      -3.628  -3.507  25.067  0.00  0.00    -0.166 F 
ATOM     25  F   UNL     1      -3.474  -2.907  24.078  0.00  0.00    -0.166 F 
ATOM     26  F   UNL     1      -3.651  -2.507  25.669  0.00  0.00    -0.166 F 
ENDBRANCH  20  23
ENDBRANCH  12  14
BRANCH   9   8
ATOM      8  C   UNL     1      -0.902   2.949  25.172  0.00  0.00    +0.101 C 
BRANCH   8   7
ATOM      1  F   UNL     1      -0.146   4.340  24.705  0.00  0.00    -0.204 F 
ATOM      2  C   UNL     1      -0.911   4.369  25.013  0.00  0.00    +0.137 A 
ATOM      3  C   UNL     1      -1.298   5.094  25.088  0.00  0.00    +0.029 A 
ATOM      4  C   UNL     1      -2.062   5.123  25.396  0.00  0.00    +0.002 A 
ATOM      5  C   UNL     1      -2.440   4.428  25.630  0.00  0.00    -0.000 A 
ATOM      6  C   UNL     1      -2.054   3.703  25.555  0.00  0.00    -0.001 A 
ATOM      7  C   UNL     1      -1.288   3.674  25.246  0.00  0.00    +0.021 A 
ENDBRANCH   8   7
ENDBRANCH   9   8
TORSDOF 4
ENDMDL
