MODEL 1
REMARK VINA RESULT:     -10.1      0.000      0.000
REMARK  Name = 
REMARK  8 active torsions:
REMARK  status: ('A' for Active; 'I' for Inactive)
REMARK    1  A    between atoms: C_6  and  C_7
REMARK    2  A    between atoms: C_12  and  N_13
REMARK    3  A    between atoms: N_16  and  C_17
REMARK    4  A    between atoms: C_25  and  C_26
REMARK    5  A    between atoms: N_28  and  C_29
REMARK    6  A    between atoms: C_29  and  C_30
REMARK    7  A    between atoms: C_29  and  C_36
REMARK    8  A    between atoms: C_30  and  C_31
REMARK                            x       y       z     vdW  Elec       q    Type
REMARK                         _______ _______ _______ _____ _____    ______ ____
ROOT
ATOM      7  C   UNL     1      -2.315   1.977  25.039  0.00  0.00    +0.265 C 
ATOM      8  O   UNL     1      -2.606   1.419  25.573  0.00  0.00    -0.268 OA
ATOM      9  N   UNL     1      -1.717   1.770  24.510  0.00  0.00    -0.267 N 
ATOM     10  C   UNL     1      -1.373   2.267  23.947  0.00  0.00    +0.096 C 
ATOM     11  C   UNL     1      -0.803   1.834  23.540  0.00  0.00    +0.045 C 
ATOM     12  C   UNL     1      -0.793   1.069  23.850  0.00  0.00    +0.126 C 
ATOM     25  C   UNL     1      -1.358   1.030  24.449  0.00  0.00    +0.174 C 
ENDROOT
BRANCH   7   6
ATOM      1  C   UNL     1      -4.024   2.426  24.727  0.00  0.00    +0.131 C 
ATOM      2  N   UNL     1      -3.408   2.949  24.892  0.00  0.00    -0.320 N 
ATOM      3  C   UNL     1      -3.469   3.771  24.942  0.00  0.00    +0.076 A 
ATOM      4  C   UNL     1      -2.721   4.072  25.117  0.00  0.00    +0.020 A 
ATOM      5  C   UNL     1      -2.198   3.437  25.174  0.00  0.00    +0.023 A 
ATOM      6  C   UNL     1      -2.622   2.743  25.035  0.00  0.00    +0.114 A 
ENDBRANCH   7   6
BRANCH  12  13
ATOM     13  N   UNL     1      -0.303   0.452  23.604  0.00  0.00    -0.186 NA
ATOM     14  C   UNL     1       0.465   0.612  23.350  0.00  0.00    +0.344 C 
ATOM     15  O   UNL     1       0.744   1.388  23.343  0.00  0.00    -0.249 OA
ATOM     16  N   UNL     1       0.955  -0.006  23.104  0.00  0.00    -0.159 NA
BRANCH  16  17
ATOM     17  C   UNL     1       1.724   0.154  22.851  0.00  0.00    +0.102 A 
ATOM     18  C   UNL     1       1.964  -0.072  22.095  0.00  0.00    +0.158 A 
ATOM     19  F   UNL     1       1.437  -0.457  21.592  0.00  0.00    -0.203 F 
ATOM     20  C   UNL     1       2.733   0.089  21.842  0.00  0.00    +0.061 A 
ATOM     21  C   UNL     1       3.261   0.475  22.345  0.00  0.00    +0.142 A 
ATOM     22  F   UNL     1       4.030   0.635  22.092  0.00  0.00    -0.204 F 
ATOM     23  C   UNL     1       3.020   0.700  23.101  0.00  0.00    +0.031 A 
ATOM     24  C   UNL     1       2.251   0.540  23.354  0.00  0.00    +0.021 A 
ENDBRANCH  16  17
ENDBRANCH  12  13
BRANCH  25  26
ATOM     26  C   UNL     1      -1.534   0.367  24.908  0.00  0.00    +0.262 C 
ATOM     27  O   UNL     1      -1.349   0.361  25.712  0.00  0.00    -0.271 OA
ATOM     28  N   UNL     1      -1.894  -0.290  24.562  0.00  0.00    -0.196 NA
BRANCH  28  29
ATOM     29  C   UNL     1      -2.070  -0.952  25.020  0.00  0.00    +0.179 C 
BRANCH  29  36
ATOM     36  C   UNL     1      -1.469  -1.471  25.244  0.00  0.00    +0.281 C 
ATOM     37  N   UNL     1      -1.249  -1.530  26.037  0.00  0.00    -0.086 NA
ATOM     38  O   UNL     1      -1.088  -1.930  24.675  0.00  0.00    -0.270 OA
ENDBRANCH  29  36
BRANCH  29  30
ATOM     30  C   UNL     1      -2.848  -1.096  25.256  0.00  0.00    +0.064 C 
BRANCH  30  31
ATOM     31  C   UNL     1      -3.364  -1.494  24.750  0.00  0.00    +0.010 A 
ATOM     32  C   UNL     1      -3.903  -1.143  24.233  0.00  0.00    +0.003 A 
ATOM     33  C   UNL     1      -4.305  -1.744  23.835  0.00  0.00    +0.007 A 
ATOM     34  C   UNL     1      -4.014  -2.467  24.107  0.00  0.00    +0.035 A 
ATOM     35  S   UNL     1      -3.433  -2.312  24.673  0.00  0.00    -0.091 S 
ENDBRANCH  30  31
ENDBRANCH  29  30
ENDBRANCH  28  29
ENDBRANCH  25  26
TORSDOF 8
ENDMDL
MODEL 2
REMARK VINA RESULT:      -9.8      2.734      5.824
REMARK  Name = 
REMARK  8 active torsions:
REMARK  status: ('A' for Active; 'I' for Inactive)
REMARK    1  A    between atoms: C_6  and  C_7
REMARK    2  A    between atoms: C_12  and  N_13
REMARK    3  A    between atoms: N_16  and  C_17
REMARK    4  A    between atoms: C_25  and  C_26
REMARK    5  A    between atoms: N_28  and  C_29
REMARK    6  A    between atoms: C_29  and  C_30
REMARK    7  A    between atoms: C_29  and  C_36
REMARK    8  A    between atoms: C_30  and  C_31
REMARK                            x       y       z     vdW  Elec       q    Type
REMARK                         _______ _______ _______ _____ _____    ______ ____
ROOT
ATOM      7  C   UNL     1      -3.031  -1.442  24.488  0.00  0.00    +0.265 C 
ATOM      8  O   UNL     1      -2.217  -1.532  24.594  0.00  0.00    -0.268 OA
ATOM      9  N   UNL     1      -3.383  -0.706  24.604  0.00  0.00    -0.267 N 
ATOM     10  C   UNL     1      -4.186  -0.533  24.519  0.00  0.00    +0.096 C 
ATOM     11  C   UNL     1      -4.294   0.266  24.688  0.00  0.00    +0.045 C 
ATOM     12  C   UNL     1      -3.559   0.589  24.877  0.00  0.00    +0.126 C 
ATOM     25  C   UNL     1      -2.996  -0.012  24.825  0.00  0.00    +0.174 C 
ENDROOT
BRANCH   7   6
ATOM      1  C   UNL     1      -3.092  -3.029  25.326  0.00  0.00    +0.131 C 
ATOM      2  N   UNL     1      -3.519  -2.819  24.652  0.00  0.00    -0.320 N 
ATOM      3  C   UNL     1      -4.050  -3.303  24.244  0.00  0.00    +0.076 A 
ATOM      4  C   UNL     1      -4.350  -2.872  23.607  0.00  0.00    +0.020 A 
ATOM      5  C   UNL     1      -4.005  -2.122  23.621  0.00  0.00    +0.023 A 
ATOM      6  C   UNL     1      -3.491  -2.090  24.267  0.00  0.00    +0.114 A 
ENDBRANCH   7   6
BRANCH  12  13
ATOM     13  N   UNL     1      -3.411   1.375  25.082  0.00  0.00    -0.186 NA
ATOM     14  C   UNL     1      -4.037   1.910  25.136  0.00  0.00    +0.344 C 
ATOM     15  O   UNL     1      -4.808   1.660  24.987  0.00  0.00    -0.249 OA
ATOM     16  N   UNL     1      -3.889   2.696  25.341  0.00  0.00    -0.159 NA
BRANCH  16  17
ATOM     17  C   UNL     1      -4.515   3.231  25.396  0.00  0.00    +0.102 A 
ATOM     18  C   UNL     1      -4.452   3.976  25.047  0.00  0.00    +0.158 A 
ATOM     19  F   UNL     1      -3.765   4.186  24.643  0.00  0.00    -0.203 F 
ATOM     20  C   UNL     1      -5.079   4.511  25.102  0.00  0.00    +0.061 A 
ATOM     21  C   UNL     1      -5.766   4.301  25.506  0.00  0.00    +0.142 A 
ATOM     22  F   UNL     1      -6.392   4.836  25.562  0.00  0.00    -0.204 F 
ATOM     23  C   UNL     1      -5.828   3.556  25.855  0.00  0.00    +0.031 A 
ATOM     24  C   UNL     1      -5.203   3.021  25.800  0.00  0.00    +0.021 A 
ENDBRANCH  16  17
ENDBRANCH  12  13
BRANCH  25  26
ATOM     26  C   UNL     1      -2.187   0.067  24.969  0.00  0.00    +0.262 C 
ATOM     27  O   UNL     1      -1.842  -0.319  25.612  0.00  0.00    -0.271 OA
ATOM     28  N   UNL     1      -1.723   0.532  24.469  0.00  0.00    -0.196 NA
BRANCH  28  29
ATOM     29  C   UNL     1      -0.915   0.610  24.613  0.00  0.00    +0.179 C 
BRANCH  29  36
ATOM     36  C   UNL     1      -0.369   0.280  24.091  0.00  0.00    +0.281 C 
ATOM     37  N   UNL     1       0.220  -0.224  24.375  0.00  0.00    -0.086 NA
ATOM     38  O   UNL     1      -0.411   0.452  23.286  0.00  0.00    -0.270 OA
ENDBRANCH  29  36
BRANCH  29  30
ATOM     30  C   UNL     1      -0.653   1.020  25.280  0.00  0.00    +0.064 C 
BRANCH  30  31
ATOM     31  C   UNL     1      -0.472   1.823  25.225  0.00  0.00    +0.010 A 
ATOM     32  C   UNL     1      -0.447   2.268  24.531  0.00  0.00    +0.003 A 
ATOM     33  C   UNL     1      -0.244   3.042  24.730  0.00  0.00    +0.007 A 
ATOM     34  C   UNL     1      -0.144   3.077  25.549  0.00  0.00    +0.035 A 
ATOM     35  S   UNL     1      -0.285   2.323  25.854  0.00  0.00    -0.091 S 
ENDBRANCH  30  31
ENDBRANCH  29  30
ENDBRANCH  28  29
ENDBRANCH  25  26
TORSDOF 8
ENDMDL
MODEL 3
REMARK VINA RESULT:      -9.3      2.921      4.847
REMARK  Name = 
REMARK  8 active torsions:
REMARK  status: ('A' for Active; 'I' for Inactive)
REMARK    1  A    between atoms: C_6  and  C_7
REMARK    2  A    between atoms: C_12  and  N_13
REMARK    3  A    between atoms: N_16  and  C_17
REMARK    4  A    between atoms: C_25  and  C_26
REMARK    5  A    between atoms: N_28  and  C_29
REMARK    6  A    between atoms: C_29  and  C_30
REMARK    7  A    between atoms: C_29  and  C_36
REMARK    8  A    between atoms: C_30  and  C_31
REMARK                            x       y       z     vdW  Elec       q    Type
REMARK                         _______ _______ _______ _____ _____    ______ ____
ROOT
ATOM      7  C   UNL     1      -1.624   2.963  24.471  0.00  0.00    +0.265 C 
ATOM      8  O   UNL     1      -2.198   3.542  24.346  0.00  0.00    -0.268 OA
ATOM      9  N   UNL     1      -1.850   2.188  24.641  0.00  0.00    -0.267 N 
ATOM     10  C   UNL     1      -1.340   1.553  24.779  0.00  0.00    +0.096 C 
ATOM     11  C   UNL     1      -1.799   0.885  24.926  0.00  0.00    +0.045 C 
ATOM     12  C   UNL     1      -2.593   1.105  24.880  0.00  0.00    +0.126 C 
ATOM     25  C   UNL     1      -2.624   1.910  24.704  0.00  0.00    +0.174 C 
ENDROOT
BRANCH   7   6
ATOM      1  C   UNL     1      -0.869   4.462  25.105  0.00  0.00    +0.131 C 
ATOM      2  N   UNL     1      -0.477   3.848  24.717  0.00  0.00    -0.320 N 
ATOM      3  C   UNL     1       0.331   3.816  24.553  0.00  0.00    +0.076 A 
ATOM      4  C   UNL     1       0.484   3.107  24.160  0.00  0.00    +0.020 A 
ATOM      5  C   UNL     1      -0.230   2.701  24.081  0.00  0.00    +0.023 A 
ATOM      6  C   UNL     1      -0.824   3.159  24.426  0.00  0.00    +0.114 A 
ENDBRANCH   7   6
BRANCH  12  13
ATOM     13  N   UNL     1      -3.242   0.608  24.990  0.00  0.00    -0.186 NA
ATOM     14  C   UNL     1      -3.185  -0.192  24.798  0.00  0.00    +0.344 C 
ATOM     15  O   UNL     1      -2.480  -0.495  24.496  0.00  0.00    -0.249 OA
ATOM     16  N   UNL     1      -3.835  -0.690  24.909  0.00  0.00    -0.159 NA
BRANCH  16  17
ATOM     17  C   UNL     1      -3.778  -1.490  24.717  0.00  0.00    +0.102 A 
ATOM     18  C   UNL     1      -4.216  -1.796  24.088  0.00  0.00    +0.158 A 
ATOM     19  F   UNL     1      -4.711  -1.302  23.651  0.00  0.00    -0.203 F 
ATOM     20  C   UNL     1      -4.158  -2.597  23.897  0.00  0.00    +0.061 A 
ATOM     21  C   UNL     1      -3.663  -3.091  24.334  0.00  0.00    +0.142 A 
ATOM     22  F   UNL     1      -3.605  -3.892  24.142  0.00  0.00    -0.204 F 
ATOM     23  C   UNL     1      -3.225  -2.785  24.962  0.00  0.00    +0.031 A 
ATOM     24  C   UNL     1      -3.282  -1.984  25.154  0.00  0.00    +0.021 A 
ENDBRANCH  16  17
ENDBRANCH  12  13
BRANCH  25  26
ATOM     26  C   UNL     1      -3.309   2.360  24.607  0.00  0.00    +0.262 C 
ATOM     27  O   UNL     1      -3.526   2.627  23.857  0.00  0.00    -0.271 OA
ATOM     28  N   UNL     1      -3.776   2.544  25.262  0.00  0.00    -0.196 NA
BRANCH  28  29
ATOM     29  C   UNL     1      -4.461   2.994  25.166  0.00  0.00    +0.179 C 
BRANCH  29  36
ATOM     36  C   UNL     1      -4.486   3.772  25.439  0.00  0.00    +0.281 C 
ATOM     37  N   UNL     1      -4.779   4.371  24.952  0.00  0.00    -0.086 NA
ATOM     38  O   UNL     1      -4.218   3.951  26.198  0.00  0.00    -0.270 OA
ENDBRANCH  29  36
BRANCH  29  30
ATOM     30  C   UNL     1      -5.122   2.665  24.795  0.00  0.00    +0.064 C 
BRANCH  30  31
ATOM     31  C   UNL     1      -5.700   2.287  25.245  0.00  0.00    +0.010 A 
ATOM     32  C   UNL     1      -5.759   2.299  26.068  0.00  0.00    +0.003 A 
ATOM     33  C   UNL     1      -6.416   1.849  26.284  0.00  0.00    +0.007 A 
ATOM     34  C   UNL     1      -6.764   1.559  25.595  0.00  0.00    +0.035 A 
ATOM     35  S   UNL     1      -6.321   1.830  24.953  0.00  0.00    -0.091 S 
ENDBRANCH  30  31
ENDBRANCH  29  30
ENDBRANCH  28  29
ENDBRANCH  25  26
TORSDOF 8
ENDMDL
MODEL 4
REMARK VINA RESULT:      -9.0      2.425      4.862
REMARK  Name = 
REMARK  8 active torsions:
REMARK  status: ('A' for Active; 'I' for Inactive)
REMARK    1  A    between atoms: C_6  and  C_7
REMARK    2  A    between atoms: C_12  and  N_13
REMARK    3  A    between atoms: N_16  and  C_17
REMARK    4  A    between atoms: C_25  and  C_26
REMARK    5  A    between atoms: N_28  and  C_29
REMARK    6  A    between atoms: C_29  and  C_30
REMARK    7  A    between atoms: C_29  and  C_36
REMARK    8  A    between atoms: C_30  and  C_31
REMARK                            x       y       z     vdW  Elec       q    Type
REMARK                         _______ _______ _______ _____ _____    ______ ____
ROOT
ATOM      7  C   UNL     1      -0.182   0.464  24.190  0.00  0.00    +0.265 C 
ATOM      8  O   UNL     1      -0.144  -0.291  24.520  0.00  0.00    -0.268 OA
ATOM      9  N   UNL     1      -0.908   0.852  24.132  0.00  0.00    -0.267 N 
ATOM     10  C   UNL     1      -1.031   1.605  23.816  0.00  0.00    +0.096 C 
ATOM     11  C   UNL     1      -1.836   1.774  23.868  0.00  0.00    +0.045 C 
ATOM     12  C   UNL     1      -2.211   1.126  24.215  0.00  0.00    +0.126 C 
ATOM     25  C   UNL     1      -1.638   0.557  24.378  0.00  0.00    +0.174 C 
ENDROOT
BRANCH   7   6
ATOM      1  C   UNL     1       0.969  -0.210  22.990  0.00  0.00    +0.131 C 
ATOM      2  N   UNL     1       1.034   0.521  23.367  0.00  0.00    -0.320 N 
ATOM      3  C   UNL     1       1.641   1.070  23.259  0.00  0.00    +0.076 A 
ATOM      4  C   UNL     1       1.486   1.720  23.744  0.00  0.00    +0.020 A 
ATOM      5  C   UNL     1       0.784   1.572  24.152  0.00  0.00    +0.023 A 
ATOM      6  C   UNL     1       0.505   0.831  23.919  0.00  0.00    +0.114 A 
ENDBRANCH   7   6
BRANCH  12  13
ATOM     13  N   UNL     1      -3.019   1.060  24.372  0.00  0.00    -0.186 NA
ATOM     14  C   UNL     1      -3.447   1.722  24.614  0.00  0.00    +0.344 C 
ATOM     15  O   UNL     1      -3.069   2.450  24.700  0.00  0.00    -0.249 OA
ATOM     16  N   UNL     1      -4.255   1.655  24.771  0.00  0.00    -0.159 NA
BRANCH  16  17
ATOM     17  C   UNL     1      -4.683   2.318  25.014  0.00  0.00    +0.102 A 
ATOM     18  C   UNL     1      -5.299   2.235  25.555  0.00  0.00    +0.158 A 
ATOM     19  F   UNL     1      -5.488   1.490  25.856  0.00  0.00    -0.203 F 
ATOM     20  C   UNL     1      -5.728   2.898  25.797  0.00  0.00    +0.061 A 
ATOM     21  C   UNL     1      -5.539   3.642  25.497  0.00  0.00    +0.142 A 
ATOM     22  F   UNL     1      -5.967   4.305  25.739  0.00  0.00    -0.204 F 
ATOM     23  C   UNL     1      -4.923   3.725  24.955  0.00  0.00    +0.031 A 
ATOM     24  C   UNL     1      -4.494   3.063  24.713  0.00  0.00    +0.021 A 
ENDBRANCH  16  17
ENDBRANCH  12  13
BRANCH  25  26
ATOM     26  C   UNL     1      -1.769  -0.179  24.727  0.00  0.00    +0.262 C 
ATOM     27  O   UNL     1      -1.588  -0.298  25.523  0.00  0.00    -0.271 OA
ATOM     28  N   UNL     1      -2.082  -0.797  24.278  0.00  0.00    -0.196 NA
BRANCH  28  29
ATOM     29  C   UNL     1      -2.214  -1.533  24.626  0.00  0.00    +0.179 C 
BRANCH  29  36
ATOM     36  C   UNL     1      -1.617  -2.102  24.628  0.00  0.00    +0.281 C 
ATOM     37  N   UNL     1      -1.326  -2.392  25.343  0.00  0.00    -0.086 NA
ATOM     38  O   UNL     1      -1.310  -2.380  23.914  0.00  0.00    -0.270 OA
ENDBRANCH  29  36
BRANCH  29  30
ATOM     30  C   UNL     1      -2.944  -1.700  24.973  0.00  0.00    +0.064 C 
BRANCH  30  31
ATOM     31  C   UNL     1      -3.547  -2.039  24.523  0.00  0.00    +0.010 A 
ATOM     32  C   UNL     1      -4.161  -1.633  24.150  0.00  0.00    +0.003 A 
ATOM     33  C   UNL     1      -4.635  -2.185  23.762  0.00  0.00    +0.007 A 
ATOM     34  C   UNL     1      -4.314  -2.934  23.895  0.00  0.00    +0.035 A 
ATOM     35  S   UNL     1      -3.641  -2.843  24.365  0.00  0.00    -0.091 S 
ENDBRANCH  30  31
ENDBRANCH  29  30
ENDBRANCH  28  29
ENDBRANCH  25  26
TORSDOF 8
ENDMDL
MODEL 5
REMARK VINA RESULT:      -8.9      2.955      4.802
REMARK  Name = 
REMARK  8 active torsions:
REMARK  status: ('A' for Active; 'I' for Inactive)
REMARK    1  A    between atoms: C_6  and  C_7
REMARK    2  A    between atoms: C_12  and  N_13
REMARK    3  A    between atoms: N_16  and  C_17
REMARK    4  A    between atoms: C_25  and  C_26
REMARK    5  A    between atoms: N_28  and  C_29
REMARK    6  A    between atoms: C_29  and  C_30
REMARK    7  A    between atoms: C_29  and  C_36
REMARK    8  A    between atoms: C_30  and  C_31
REMARK                            x       y       z     vdW  Elec       q    Type
REMARK                         _______ _______ _______ _____ _____    ______ ____
ROOT
ATOM      7  C   UNL     1      -4.096   3.130  24.869  0.00  0.00    +0.265 C 
ATOM      8  O   UNL     1      -3.404   3.513  24.636  0.00  0.00    -0.268 OA
ATOM      9  N   UNL     1      -4.201   2.329  24.701  0.00  0.00    -0.267 N 
ATOM     10  C   UNL     1      -4.861   1.874  24.899  0.00  0.00    +0.096 C 
ATOM     11  C   UNL     1      -4.732   1.107  24.627  0.00  0.00    +0.045 C 
ATOM     12  C   UNL     1      -3.993   1.087  24.260  0.00  0.00    +0.126 C 
ATOM     25  C   UNL     1      -3.665   1.841  24.306  0.00  0.00    +0.174 C 
ENDROOT
BRANCH   7   6
ATOM      1  C   UNL     1      -3.854   4.158  26.320  0.00  0.00    +0.131 C 
ATOM      2  N   UNL     1      -4.572   4.020  25.937  0.00  0.00    -0.320 N 
ATOM      3  C   UNL     1      -5.305   4.331  26.155  0.00  0.00    +0.076 A 
ATOM      4  C   UNL     1      -5.869   4.050  25.622  0.00  0.00    +0.020 A 
ATOM      5  C   UNL     1      -5.485   3.566  25.075  0.00  0.00    +0.023 A 
ATOM      6  C   UNL     1      -4.683   3.548  25.271  0.00  0.00    +0.114 A 
ENDBRANCH   7   6
BRANCH  12  13
ATOM     13  N   UNL     1      -3.644   0.427  23.909  0.00  0.00    -0.186 NA
ATOM     14  C   UNL     1      -3.728  -0.317  24.255  0.00  0.00    +0.344 C 
ATOM     15  O   UNL     1      -4.161  -0.402  24.952  0.00  0.00    -0.249 OA
ATOM     16  N   UNL     1      -3.378  -0.977  23.904  0.00  0.00    -0.159 NA
BRANCH  16  17
ATOM     17  C   UNL     1      -3.462  -1.721  24.250  0.00  0.00    +0.102 A 
ATOM     18  C   UNL     1      -3.903  -2.306  23.870  0.00  0.00    +0.158 A 
ATOM     19  F   UNL     1      -4.260  -2.148  23.144  0.00  0.00    -0.203 F 
ATOM     20  C   UNL     1      -3.986  -3.050  24.218  0.00  0.00    +0.061 A 
ATOM     21  C   UNL     1      -3.629  -3.209  24.944  0.00  0.00    +0.142 A 
ATOM     22  F   UNL     1      -3.713  -3.953  25.291  0.00  0.00    -0.204 F 
ATOM     23  C   UNL     1      -3.188  -2.624  25.324  0.00  0.00    +0.031 A 
ATOM     24  C   UNL     1      -3.104  -1.880  24.977  0.00  0.00    +0.021 A 
ENDBRANCH  16  17
ENDBRANCH  12  13
BRANCH  25  26
ATOM     26  C   UNL     1      -2.930   2.070  24.010  0.00  0.00    +0.262 C 
ATOM     27  O   UNL     1      -2.886   2.547  23.337  0.00  0.00    -0.271 OA
ATOM     28  N   UNL     1      -2.239   1.823  24.386  0.00  0.00    -0.196 NA
BRANCH  28  29
ATOM     29  C   UNL     1      -1.504   2.052  24.090  0.00  0.00    +0.179 C 
BRANCH  29  36
ATOM     36  C   UNL     1      -1.183   1.664  23.436  0.00  0.00    +0.281 C 
ATOM     37  N   UNL     1      -1.132   2.053  22.710  0.00  0.00    -0.086 NA
ATOM     38  O   UNL     1      -0.914   0.888  23.508  0.00  0.00    -0.270 OA
ENDBRANCH  29  36
BRANCH  29  30
ATOM     30  C   UNL     1      -1.089   2.670  24.448  0.00  0.00    +0.064 C 
BRANCH  30  31
ATOM     31  C   UNL     1      -0.675   2.536  25.149  0.00  0.00    +0.010 A 
ATOM     32  C   UNL     1      -0.673   1.836  25.584  0.00  0.00    +0.003 A 
ATOM     33  C   UNL     1      -0.188   1.945  26.242  0.00  0.00    +0.007 A 
ATOM     34  C   UNL     1       0.111   2.714  26.213  0.00  0.00    +0.035 A 
ATOM     35  S   UNL     1      -0.191   3.079  25.537  0.00  0.00    -0.091 S 
ENDBRANCH  30  31
ENDBRANCH  29  30
ENDBRANCH  28  29
ENDBRANCH  25  26
TORSDOF 8
ENDMDL
MODEL 6
REMARK VINA RESULT:      -8.9      1.430      3.393
REMARK  Name = 
REMARK  8 active torsions:
REMARK  status: ('A' for Active; 'I' for Inactive)
REMARK    1  A    between atoms: C_6  and  C_7
REMARK    2  A    between atoms: C_12  and  N_13
REMARK    3  A    between atoms: N_16  and  C_17
REMARK    4  A    between atoms: C_25  and  C_26
REMARK    5  A    between atoms: N_28  and  C_29
REMARK    6  A    between atoms: C_29  and  C_30
REMARK    7  A    between atoms: C_29  and  C_36
REMARK    8  A    between atoms: C_30  and  C_31
REMARK                            x       y       z     vdW  Elec       q    Type
REMARK                         _______ _______ _______ _____ _____    ______ ____
ROOT
ATOM      7  C   UNL     1      -2.460  -0.740  24.901  0.00  0.00    +0.265 C 
ATOM      8  O   UNL     1      -2.802  -0.142  25.355  0.00  0.00    -0.268 OA
ATOM      9  N   UNL     1      -1.740  -0.609  24.521  0.00  0.00    -0.267 N 
ATOM     10  C   UNL     1      -1.333  -1.153  24.052  0.00  0.00    +0.096 C 
ATOM     11  C   UNL     1      -0.642  -0.792  23.785  0.00  0.00    +0.045 C 
ATOM     12  C   UNL     1      -0.620  -0.026  24.089  0.00  0.00    +0.126 C 
ATOM     25  C   UNL     1      -1.298   0.087  24.544  0.00  0.00    +0.174 C 
ENDROOT
BRANCH   7   6
ATOM      1  C   UNL     1      -4.117  -1.008  24.266  0.00  0.00    +0.131 C 
ATOM      2  N   UNL     1      -3.601  -1.592  24.536  0.00  0.00    -0.320 N 
ATOM      3  C   UNL     1      -3.756  -2.403  24.562  0.00  0.00    +0.076 A 
ATOM      4  C   UNL     1      -3.089  -2.780  24.869  0.00  0.00    +0.020 A 
ATOM      5  C   UNL     1      -2.523  -2.203  25.034  0.00  0.00    +0.023 A 
ATOM      6  C   UNL     1      -2.839  -1.469  24.828  0.00  0.00    +0.114 A 
ENDBRANCH   7   6
BRANCH  12  13
ATOM     13  N   UNL     1      -0.025   0.531  23.960  0.00  0.00    -0.186 NA
ATOM     14  C   UNL     1       0.656   0.317  23.545  0.00  0.00    +0.344 C 
ATOM     15  O   UNL     1       0.741  -0.452  23.260  0.00  0.00    -0.249 OA
ATOM     16  N   UNL     1       1.252   0.874  23.417  0.00  0.00    -0.159 NA
BRANCH  16  17
ATOM     17  C   UNL     1       1.932   0.660  23.002  0.00  0.00    +0.102 A 
ATOM     18  C   UNL     1       2.630   1.086  23.107  0.00  0.00    +0.158 A 
ATOM     19  F   UNL     1       2.649   1.726  23.627  0.00  0.00    -0.203 F 
ATOM     20  C   UNL     1       3.311   0.872  22.692  0.00  0.00    +0.061 A 
ATOM     21  C   UNL     1       3.292   0.232  22.172  0.00  0.00    +0.142 A 
ATOM     22  F   UNL     1       3.973   0.017  21.757  0.00  0.00    -0.204 F 
ATOM     23  C   UNL     1       2.594  -0.194  22.067  0.00  0.00    +0.031 A 
ATOM     24  C   UNL     1       1.913   0.019  22.482  0.00  0.00    +0.021 A 
ENDBRANCH  16  17
ENDBRANCH  12  13
BRANCH  25  26
ATOM     26  C   UNL     1      -1.501   0.776  24.951  0.00  0.00    +0.262 C 
ATOM     27  O   UNL     1      -1.461   0.796  25.775  0.00  0.00    -0.271 OA
ATOM     28  N   UNL     1      -1.744   1.445  24.533  0.00  0.00    -0.196 NA
BRANCH  28  29
ATOM     29  C   UNL     1      -1.947   2.133  24.940  0.00  0.00    +0.179 C 
BRANCH  29  36
ATOM     36  C   UNL     1      -1.364   2.683  25.136  0.00  0.00    +0.281 C 
ATOM     37  N   UNL     1      -1.218   2.862  25.929  0.00  0.00    -0.086 NA
ATOM     38  O   UNL     1      -0.929   3.053  24.542  0.00  0.00    -0.270 OA
ENDBRANCH  29  36
BRANCH  29  30
ATOM     30  C   UNL     1      -2.733   2.271  25.149  0.00  0.00    +0.064 C 
BRANCH  30  31
ATOM     31  C   UNL     1      -3.228   2.689  24.638  0.00  0.00    +0.010 A 
ATOM     32  C   UNL     1      -3.277   2.589  23.821  0.00  0.00    +0.003 A 
ATOM     33  C   UNL     1      -3.840   3.118  23.531  0.00  0.00    +0.007 A 
ATOM     34  C   UNL     1      -4.140   3.545  24.170  0.00  0.00    +0.035 A 
ATOM     35  S   UNL     1      -3.762   3.280  24.854  0.00  0.00    -0.091 S 
ENDBRANCH  30  31
ENDBRANCH  29  30
ENDBRANCH  28  29
ENDBRANCH  25  26
TORSDOF 8
ENDMDL
MODEL 7
REMARK VINA RESULT:      -8.5      2.687      4.425
REMARK  Name = 
REMARK  8 active torsions:
REMARK  status: ('A' for Active; 'I' for Inactive)
REMARK    1  A    between atoms: C_6  and  C_7
REMARK    2  A    between atoms: C_12  and  N_13
REMARK    3  A    between atoms: N_16  and  C_17
REMARK    4  A    between atoms: C_25  and  C_26
REMARK    5  A    between atoms: N_28  and  C_29
REMARK    6  A    between atoms: C_29  and  C_30
REMARK    7  A    between atoms: C_29  and  C_36
REMARK    8  A    between atoms: C_30  and  C_31
REMARK                            x       y       z     vdW  Elec       q    Type
REMARK                         _______ _______ _______ _____ _____    ______ ____
ROOT
ATOM      7  C   UNL     1      -4.775   2.333  24.898  0.00  0.00    +0.265 C 
ATOM      8  O   UNL     1      -4.438   3.085  24.868  0.00  0.00    -0.268 OA
ATOM      9  N   UNL     1      -4.307   1.666  24.770  0.00  0.00    -0.267 N 
ATOM     10  C   UNL     1      -4.566   0.882  24.782  0.00  0.00    +0.096 C 
ATOM     11  C   UNL     1      -3.917   0.397  24.626  0.00  0.00    +0.045 C 
ATOM     12  C   UNL     1      -3.258   0.881  24.518  0.00  0.00    +0.126 C 
ATOM     25  C   UNL     1      -3.498   1.664  24.607  0.00  0.00    +0.174 C 
ENDROOT
BRANCH   7   6
ATOM      1  C   UNL     1      -5.653   3.023  26.303  0.00  0.00    +0.131 C 
ATOM      2  N   UNL     1      -5.984   2.565  25.701  0.00  0.00    -0.320 N 
ATOM      3  C   UNL     1      -6.777   2.344  25.641  0.00  0.00    +0.076 A 
ATOM      4  C   UNL     1      -6.863   1.890  24.957  0.00  0.00    +0.020 A 
ATOM      5  C   UNL     1      -6.124   1.831  24.595  0.00  0.00    +0.023 A 
ATOM      6  C   UNL     1      -5.581   2.248  25.056  0.00  0.00    +0.114 A 
ENDBRANCH   7   6
BRANCH  12  13
ATOM     13  N   UNL     1      -2.491   0.625  24.351  0.00  0.00    -0.186 NA
ATOM     14  C   UNL     1      -2.252  -0.133  24.573  0.00  0.00    +0.344 C 
ATOM     15  O   UNL     1      -2.778  -0.634  24.962  0.00  0.00    -0.249 OA
ATOM     16  N   UNL     1      -1.485  -0.388  24.405  0.00  0.00    -0.159 NA
BRANCH  16  17
ATOM     17  C   UNL     1      -1.246  -1.146  24.627  0.00  0.00    +0.102 A 
ATOM     18  C   UNL     1      -0.602  -1.244  25.134  0.00  0.00    +0.158 A 
ATOM     19  F   UNL     1      -0.197  -0.584  25.418  0.00  0.00    -0.203 F 
ATOM     20  C   UNL     1      -0.363  -2.002  25.355  0.00  0.00    +0.061 A 
ATOM     21  C   UNL     1      -0.768  -2.661  25.071  0.00  0.00    +0.142 A 
ATOM     22  F   UNL     1      -0.530  -3.420  25.293  0.00  0.00    -0.204 F 
ATOM     23  C   UNL     1      -1.412  -2.564  24.565  0.00  0.00    +0.031 A 
ATOM     24  C   UNL     1      -1.651  -1.806  24.343  0.00  0.00    +0.021 A 
ENDBRANCH  16  17
ENDBRANCH  12  13
BRANCH  25  26
ATOM     26  C   UNL     1      -3.016   2.330  24.543  0.00  0.00    +0.262 C 
ATOM     27  O   UNL     1      -3.017   2.777  23.849  0.00  0.00    -0.271 OA
ATOM     28  N   UNL     1      -2.532   2.550  25.175  0.00  0.00    -0.196 NA
BRANCH  28  29
ATOM     29  C   UNL     1      -2.050   3.216  25.112  0.00  0.00    +0.179 C 
BRANCH  29  36
ATOM     36  C   UNL     1      -2.289   3.932  25.446  0.00  0.00    +0.281 C 
ATOM     37  N   UNL     1      -2.290   4.620  24.989  0.00  0.00    -0.086 NA
ATOM     38  O   UNL     1      -2.526   3.960  26.235  0.00  0.00    -0.270 OA
ENDBRANCH  29  36
BRANCH  29  30
ATOM     30  C   UNL     1      -1.328   3.166  24.715  0.00  0.00    +0.064 C 
BRANCH  30  31
ATOM     31  C   UNL     1      -0.652   2.921  25.119  0.00  0.00    +0.010 A 
ATOM     32  C   UNL     1      -0.582   2.828  25.936  0.00  0.00    +0.003 A 
ATOM     33  C   UNL     1       0.185   2.575  26.100  0.00  0.00    +0.007 A 
ATOM     34  C   UNL     1       0.591   2.511  25.384  0.00  0.00    +0.035 A 
ATOM     35  S   UNL     1       0.073   2.725  24.778  0.00  0.00    -0.091 S 
ENDBRANCH  30  31
ENDBRANCH  29  30
ENDBRANCH  28  29
ENDBRANCH  25  26
TORSDOF 8
ENDMDL
