MODEL 1
REMARK VINA RESULT:     -12.7      0.000      0.000
REMARK  Name = 
REMARK  6 active torsions:
REMARK  status: ('A' for Active; 'I' for Inactive)
REMARK    1  A    between atoms: C_2  and  C_3
REMARK    2  A    between atoms: C_6  and  C_7
REMARK    3  A    between atoms: C_7  and  N_8
REMARK    4  A    between atoms: C_11  and  C_13
REMARK    5  A    between atoms: C_16  and  C_17
REMARK    6  A    between atoms: C_17  and  C_18
REMARK                            x       y       z     vdW  Elec       q    Type
REMARK                         _______ _______ _______ _____ _____    ______ ____
ROOT
ATOM     13  C   UNL     1      -4.467   1.930  24.596  0.00  0.00    +0.227 A 
ATOM     14  N   UNL     1      -5.176   1.781  24.992  0.00  0.00    -0.112 NA
ATOM     15  N   UNL     1      -5.339   0.976  24.930  0.00  0.00    -0.111 NA
ATOM     16  C   UNL     1      -4.732   0.625  24.495  0.00  0.00    +0.231 A 
ATOM     27  O   UNL     1      -4.193   1.216  24.289  0.00  0.00    -0.423 OA
ENDROOT
BRANCH  13  11
ATOM      8  N   UNL     1      -3.279   3.700  24.720  0.00  0.00    -0.268 NA
ATOM      9  C   UNL     1      -3.782   3.888  24.094  0.00  0.00    +0.073 C 
ATOM     10  C   UNL     1      -4.288   3.248  23.971  0.00  0.00    +0.028 C 
ATOM     11  C   UNL     1      -4.098   2.664  24.521  0.00  0.00    +0.096 C 
ATOM     12  C   UNL     1      -3.475   2.942  24.984  0.00  0.00    +0.082 C 
BRANCH   8   7
ATOM      7  C   UNL     1      -2.685   4.182  25.027  0.00  0.00    +0.099 C 
BRANCH   7   6
ATOM      3  C   UNL     1      -0.559   3.183  25.805  0.00  0.00    +0.068 A 
ATOM      4  C   UNL     1      -1.203   3.230  26.317  0.00  0.00    +0.010 A 
ATOM      5  C   UNL     1      -1.912   3.563  26.057  0.00  0.00    -0.002 A 
ATOM      6  C   UNL     1      -1.976   3.849  25.286  0.00  0.00    -0.006 A 
ATOM     28  C   UNL     1      -1.330   3.801  24.774  0.00  0.00    -0.002 A 
ATOM     29  C   UNL     1      -0.621   3.468  25.034  0.00  0.00    +0.010 A 
BRANCH   3   2
ATOM      1  N   UNL     1       0.859   2.516  26.324  0.00  0.00    -0.191 NA
ATOM      2  C   UNL     1       0.150   2.849  26.065  0.00  0.00    +0.100 C 
ENDBRANCH   3   2
ENDBRANCH   7   6
ENDBRANCH   8   7
ENDBRANCH  13  11
BRANCH  16  17
ATOM     17  C   UNL     1      -4.673  -0.175  24.301  0.00  0.00    +0.115 C 
BRANCH  17  18
ATOM     18  C   UNL     1      -4.217  -0.680  24.767  0.00  0.00    +0.008 A 
ATOM     19  C   UNL     1      -3.891  -0.499  25.503  0.00  0.00    +0.095 A 
ATOM     20  N   UNL     1      -3.480  -1.163  25.769  0.00  0.00    -0.244 NA
ATOM     21  C   UNL     1      -3.553  -1.754  25.199  0.00  0.00    +0.081 A 
ATOM     22  C   UNL     1      -4.008  -1.455  24.579  0.00  0.00    +0.016 A 
ATOM     23  C   UNL     1      -4.173  -1.929  23.924  0.00  0.00    +0.001 A 
ATOM     24  C   UNL     1      -3.883  -2.700  23.888  0.00  0.00    +0.000 A 
ATOM     25  C   UNL     1      -3.428  -2.998  24.508  0.00  0.00    +0.002 A 
ATOM     26  C   UNL     1      -3.262  -2.526  25.163  0.00  0.00    +0.019 A 
ENDBRANCH  17  18
ENDBRANCH  16  17
TORSDOF 6
ENDMDL
MODEL 2
REMARK VINA RESULT:     -12.2      1.783      3.326
REMARK  Name = 
REMARK  6 active torsions:
REMARK  status: ('A' for Active; 'I' for Inactive)
REMARK    1  A    between atoms: C_2  and  C_3
REMARK    2  A    between atoms: C_6  and  C_7
REMARK    3  A    between atoms: C_7  and  N_8
REMARK    4  A    between atoms: C_11  and  C_13
REMARK    5  A    between atoms: C_16  and  C_17
REMARK    6  A    between atoms: C_17  and  C_18
REMARK                            x       y       z     vdW  Elec       q    Type
REMARK                         _______ _______ _______ _____ _____    ______ ____
ROOT
ATOM     13  C   UNL     1      -0.782   1.096  25.245  0.00  0.00    +0.227 A 
ATOM     14  N   UNL     1      -0.215   0.722  24.777  0.00  0.00    -0.112 NA
ATOM     15  N   UNL     1      -0.309  -0.093  24.865  0.00  0.00    -0.111 NA
ATOM     16  C   UNL     1      -0.934  -0.223  25.387  0.00  0.00    +0.231 A 
ATOM     27  O   UNL     1      -1.226   0.513  25.622  0.00  0.00    -0.423 OA
ENDROOT
BRANCH  13  11
ATOM      8  N   UNL     1      -1.380   3.146  25.197  0.00  0.00    -0.268 NA
ATOM      9  C   UNL     1      -0.714   3.184  25.682  0.00  0.00    +0.073 C 
ATOM     10  C   UNL     1      -0.409   2.422  25.759  0.00  0.00    +0.028 C 
ATOM     11  C   UNL     1      -0.886   1.911  25.322  0.00  0.00    +0.096 C 
ATOM     12  C   UNL     1      -1.486   2.358  24.974  0.00  0.00    +0.082 C 
BRANCH   8   7
ATOM      7  C   UNL     1      -1.855   3.781  24.973  0.00  0.00    +0.099 C 
BRANCH   7   6
ATOM      3  C   UNL     1      -4.287   3.727  25.430  0.00  0.00    +0.068 A 
ATOM      4  C   UNL     1      -4.003   3.526  24.682  0.00  0.00    +0.010 A 
ATOM      5  C   UNL     1      -3.193   3.544  24.530  0.00  0.00    -0.002 A 
ATOM      6  C   UNL     1      -2.666   3.763  25.125  0.00  0.00    -0.006 A 
ATOM     28  C   UNL     1      -2.950   3.964  25.874  0.00  0.00    -0.002 A 
ATOM     29  C   UNL     1      -3.761   3.946  26.026  0.00  0.00    +0.010 A 
BRANCH   3   2
ATOM      1  N   UNL     1      -5.908   3.690  25.734  0.00  0.00    -0.191 NA
ATOM      2  C   UNL     1      -5.098   3.709  25.582  0.00  0.00    +0.100 C 
ENDBRANCH   3   2
ENDBRANCH   7   6
ENDBRANCH   8   7
ENDBRANCH  13  11
BRANCH  16  17
ATOM     17  C   UNL     1      -1.218  -0.958  25.631  0.00  0.00    +0.115 C 
BRANCH  17  18
ATOM     18  C   UNL     1      -1.525  -1.487  25.079  0.00  0.00    +0.008 A 
ATOM     19  C   UNL     1      -1.111  -1.830  24.453  0.00  0.00    +0.095 A 
ATOM     20  N   UNL     1      -1.631  -2.321  24.042  0.00  0.00    -0.244 NA
ATOM     21  C   UNL     1      -2.366  -2.281  24.412  0.00  0.00    +0.081 A 
ATOM     22  C   UNL     1      -2.301  -1.765  25.053  0.00  0.00    +0.016 A 
ATOM     23  C   UNL     1      -2.957  -1.617  25.531  0.00  0.00    +0.001 A 
ATOM     24  C   UNL     1      -3.678  -1.983  25.368  0.00  0.00    +0.000 A 
ATOM     25  C   UNL     1      -3.743  -2.498  24.727  0.00  0.00    +0.002 A 
ATOM     26  C   UNL     1      -3.087  -2.648  24.249  0.00  0.00    +0.019 A 
ENDBRANCH  17  18
ENDBRANCH  16  17
TORSDOF 6
ENDMDL
MODEL 3
REMARK VINA RESULT:     -12.0      1.855      5.446
REMARK  Name = 
REMARK  6 active torsions:
REMARK  status: ('A' for Active; 'I' for Inactive)
REMARK    1  A    between atoms: C_2  and  C_3
REMARK    2  A    between atoms: C_6  and  C_7
REMARK    3  A    between atoms: C_7  and  N_8
REMARK    4  A    between atoms: C_11  and  C_13
REMARK    5  A    between atoms: C_16  and  C_17
REMARK    6  A    between atoms: C_17  and  C_18
REMARK                            x       y       z     vdW  Elec       q    Type
REMARK                         _______ _______ _______ _____ _____    ______ ____
ROOT
ATOM     13  C   UNL     1      -0.644   1.695  24.861  0.00  0.00    +0.227 A 
ATOM     14  N   UNL     1      -0.070   2.223  25.130  0.00  0.00    -0.112 NA
ATOM     15  N   UNL     1      -0.389   2.983  25.102  0.00  0.00    -0.111 NA
ATOM     16  C   UNL     1      -1.160   2.926  24.815  0.00  0.00    +0.231 A 
ATOM     27  O   UNL     1      -1.317   2.130  24.666  0.00  0.00    -0.423 OA
ENDROOT
BRANCH  13  11
ATOM      8  N   UNL     1      -0.684  -0.433  25.021  0.00  0.00    -0.268 NA
ATOM      9  C   UNL     1      -0.174  -0.331  24.381  0.00  0.00    +0.073 C 
ATOM     10  C   UNL     1      -0.096   0.479  24.243  0.00  0.00    +0.028 C 
ATOM     11  C   UNL     1      -0.559   0.877  24.797  0.00  0.00    +0.096 C 
ATOM     12  C   UNL     1      -0.922   0.314  25.278  0.00  0.00    +0.082 C 
BRANCH   8   7
ATOM      7  C   UNL     1      -0.915  -1.155  25.346  0.00  0.00    +0.099 C 
BRANCH   7   6
ATOM      3  C   UNL     1      -2.973  -2.271  24.543  0.00  0.00    +0.068 A 
ATOM      4  C   UNL     1      -2.239  -2.495  24.242  0.00  0.00    +0.010 A 
ATOM      5  C   UNL     1      -1.553  -2.123  24.510  0.00  0.00    -0.002 A 
ATOM      6  C   UNL     1      -1.601  -1.527  25.078  0.00  0.00    -0.006 A 
ATOM     28  C   UNL     1      -2.337  -1.303  25.379  0.00  0.00    -0.002 A 
ATOM     29  C   UNL     1      -3.023  -1.674  25.111  0.00  0.00    +0.010 A 
BRANCH   3   2
ATOM      1  N   UNL     1      -4.345  -3.014  24.007  0.00  0.00    -0.191 NA
ATOM      2  C   UNL     1      -3.659  -2.642  24.275  0.00  0.00    +0.100 C 
ENDBRANCH   3   2
ENDBRANCH   7   6
ENDBRANCH   8   7
ENDBRANCH  13  11
BRANCH  16  17
ATOM     17  C   UNL     1      -1.682   3.554  24.698  0.00  0.00    +0.115 C 
BRANCH  17  18
ATOM     18  C   UNL     1      -2.287   3.695  25.241  0.00  0.00    +0.008 A 
ATOM     19  C   UNL     1      -2.189   3.897  26.035  0.00  0.00    +0.095 A 
ATOM     20  N   UNL     1      -2.937   3.985  26.370  0.00  0.00    -0.244 NA
ATOM     21  C   UNL     1      -3.498   3.838  25.783  0.00  0.00    +0.081 A 
ATOM     22  C   UNL     1      -3.096   3.659  25.086  0.00  0.00    +0.016 A 
ATOM     23  C   UNL     1      -3.520   3.486  24.399  0.00  0.00    +0.001 A 
ATOM     24  C   UNL     1      -4.344   3.492  24.410  0.00  0.00    +0.000 A 
ATOM     25  C   UNL     1      -4.746   3.671  25.107  0.00  0.00    +0.002 A 
ATOM     26  C   UNL     1      -4.323   3.844  25.794  0.00  0.00    +0.019 A 
ENDBRANCH  17  18
ENDBRANCH  16  17
TORSDOF 6
ENDMDL
MODEL 4
REMARK VINA RESULT:     -11.6      1.505      2.265
REMARK  Name = 
REMARK  6 active torsions:
REMARK  status: ('A' for Active; 'I' for Inactive)
REMARK    1  A    between atoms: C_2  and  C_3
REMARK    2  A    between atoms: C_6  and  C_7
REMARK    3  A    between atoms: C_7  and  N_8
REMARK    4  A    between atoms: C_11  and  C_13
REMARK    5  A    between atoms: C_16  and  C_17
REMARK    6  A    between atoms: C_17  and  C_18
REMARK                            x       y       z     vdW  Elec       q    Type
REMARK                         _______ _______ _______ _____ _____    ______ ____
ROOT
ATOM     13  C   UNL     1      -4.557   0.608  24.990  0.00  0.00    +0.227 A 
ATOM     14  N   UNL     1      -4.845   0.052  24.453  0.00  0.00    -0.112 NA
ATOM     15  N   UNL     1      -4.482  -0.670  24.614  0.00  0.00    -0.111 NA
ATOM     16  C   UNL     1      -3.968  -0.562  25.250  0.00  0.00    +0.231 A 
ATOM     27  O   UNL     1      -4.015   0.229  25.483  0.00  0.00    -0.423 OA
ENDROOT
BRANCH  13  11
ATOM      8  N   UNL     1      -4.775   2.706  25.321  0.00  0.00    -0.268 NA
ATOM      9  C   UNL     1      -5.434   2.549  24.850  0.00  0.00    +0.073 C 
ATOM     10  C   UNL     1      -5.433   1.744  24.669  0.00  0.00    +0.028 C 
ATOM     11  C   UNL     1      -4.773   1.404  25.027  0.00  0.00    +0.096 C 
ATOM     12  C   UNL     1      -4.366   1.997  25.430  0.00  0.00    +0.082 C 
BRANCH   8   7
ATOM      7  C   UNL     1      -4.562   3.441  25.627  0.00  0.00    +0.099 C 
BRANCH   7   6
ATOM      3  C   UNL     1      -2.285   4.330  25.239  0.00  0.00    +0.068 A 
ATOM      4  C   UNL     1      -2.822   4.289  24.616  0.00  0.00    +0.010 A 
ATOM      5  C   UNL     1      -3.581   3.992  24.745  0.00  0.00    -0.002 A 
ATOM      6  C   UNL     1      -3.803   3.738  25.498  0.00  0.00    -0.006 A 
ATOM     28  C   UNL     1      -3.264   3.780  26.122  0.00  0.00    -0.002 A 
ATOM     29  C   UNL     1      -2.505   4.076  25.993  0.00  0.00    +0.010 A 
BRANCH   3   2
ATOM      1  N   UNL     1      -0.767   4.923  24.981  0.00  0.00    -0.191 NA
ATOM      2  C   UNL     1      -1.526   4.627  25.110  0.00  0.00    +0.100 C 
ENDBRANCH   3   2
ENDBRANCH   7   6
ENDBRANCH   8   7
ENDBRANCH  13  11
BRANCH  16  17
ATOM     17  C   UNL     1      -3.492  -1.141  25.594  0.00  0.00    +0.115 C 
BRANCH  17  18
ATOM     18  C   UNL     1      -2.920  -1.527  25.143  0.00  0.00    +0.008 A 
ATOM     19  C   UNL     1      -3.064  -2.056  24.527  0.00  0.00    +0.095 A 
ATOM     20  N   UNL     1      -2.336  -2.308  24.231  0.00  0.00    -0.244 NA
ATOM     21  C   UNL     1      -1.742  -1.934  24.664  0.00  0.00    +0.081 A 
ATOM     22  C   UNL     1      -2.103  -1.451  25.228  0.00  0.00    +0.016 A 
ATOM     23  C   UNL     1      -1.640  -1.005  25.745  0.00  0.00    +0.001 A 
ATOM     24  C   UNL     1      -0.818  -1.042  25.699  0.00  0.00    +0.000 A 
ATOM     25  C   UNL     1      -0.457  -1.524  25.136  0.00  0.00    +0.002 A 
ATOM     26  C   UNL     1      -0.919  -1.971  24.618  0.00  0.00    +0.019 A 
ENDBRANCH  17  18
ENDBRANCH  16  17
TORSDOF 6
ENDMDL
MODEL 5
REMARK VINA RESULT:     -11.5      1.372      4.800
REMARK  Name = 
REMARK  6 active torsions:
REMARK  status: ('A' for Active; 'I' for Inactive)
REMARK    1  A    between atoms: C_2  and  C_3
REMARK    2  A    between atoms: C_6  and  C_7
REMARK    3  A    between atoms: C_7  and  N_8
REMARK    4  A    between atoms: C_11  and  C_13
REMARK    5  A    between atoms: C_16  and  C_17
REMARK    6  A    between atoms: C_17  and  C_18
REMARK                            x       y       z     vdW  Elec       q    Type
REMARK                         _______ _______ _______ _____ _____    ______ ____
ROOT
ATOM     13  C   UNL     1      -4.607   1.168  24.680  0.00  0.00    +0.227 A 
ATOM     14  N   UNL     1      -5.336   1.519  24.841  0.00  0.00    -0.112 NA
ATOM     15  N   UNL     1      -5.243   2.336  24.787  0.00  0.00    -0.111 NA
ATOM     16  C   UNL     1      -4.457   2.492  24.593  0.00  0.00    +0.231 A 
ATOM     27  O   UNL     1      -4.064   1.769  24.527  0.00  0.00    -0.423 OA
ENDROOT
BRANCH  13  11
ATOM      8  N   UNL     1      -3.982  -0.847  25.011  0.00  0.00    -0.268 NA
ATOM      9  C   UNL     1      -4.429  -0.929  24.322  0.00  0.00    +0.073 C 
ATOM     10  C   UNL     1      -4.718  -0.184  24.115  0.00  0.00    +0.028 C 
ATOM     11  C   UNL     1      -4.449   0.358  24.674  0.00  0.00    +0.096 C 
ATOM     12  C   UNL     1      -3.994  -0.050  25.228  0.00  0.00    +0.082 C 
BRANCH   8   7
ATOM      7  C   UNL     1      -3.591  -1.453  25.411  0.00  0.00    +0.099 C 
BRANCH   7   6
ATOM      3  C   UNL     1      -1.145  -1.726  25.157  0.00  0.00    +0.068 A 
ATOM      4  C   UNL     1      -1.444  -1.186  25.703  0.00  0.00    +0.010 A 
ATOM      5  C   UNL     1      -2.260  -1.095  25.788  0.00  0.00    -0.002 A 
ATOM      6  C   UNL     1      -2.776  -1.544  25.326  0.00  0.00    -0.006 A 
ATOM     28  C   UNL     1      -2.475  -2.084  24.779  0.00  0.00    -0.002 A 
ATOM     29  C   UNL     1      -1.659  -2.175  24.694  0.00  0.00    +0.010 A 
BRANCH   3   2
ATOM      1  N   UNL     1       0.487  -1.908  24.988  0.00  0.00    -0.191 NA
ATOM      2  C   UNL     1      -0.329  -1.817  25.072  0.00  0.00    +0.100 C 
ENDBRANCH   3   2
ENDBRANCH   7   6
ENDBRANCH   8   7
ENDBRANCH  13  11
BRANCH  16  17
ATOM     17  C   UNL     1      -4.122   3.238  24.483  0.00  0.00    +0.115 C 
BRANCH  17  18
ATOM     18  C   UNL     1      -3.696   3.593  25.093  0.00  0.00    +0.008 A 
ATOM     19  C   UNL     1      -3.965   3.719  25.864  0.00  0.00    +0.095 A 
ATOM     20  N   UNL     1      -3.361   4.088  26.287  0.00  0.00    -0.244 NA
ATOM     21  C   UNL     1      -2.720   4.190  25.780  0.00  0.00    +0.081 A 
ATOM     22  C   UNL     1      -2.927   3.884  25.042  0.00  0.00    +0.016 A 
ATOM     23  C   UNL     1      -2.386   3.911  24.419  0.00  0.00    +0.001 A 
ATOM     24  C   UNL     1      -1.641   4.243  24.533  0.00  0.00    +0.000 A 
ATOM     25  C   UNL     1      -1.434   4.549  25.270  0.00  0.00    +0.002 A 
ATOM     26  C   UNL     1      -1.973   4.523  25.894  0.00  0.00    +0.019 A 
ENDBRANCH  17  18
ENDBRANCH  16  17
TORSDOF 6
ENDMDL
MODEL 6
REMARK VINA RESULT:     -11.3      1.278      4.701
REMARK  Name = 
REMARK  6 active torsions:
REMARK  status: ('A' for Active; 'I' for Inactive)
REMARK    1  A    between atoms: C_2  and  C_3
REMARK    2  A    between atoms: C_6  and  C_7
REMARK    3  A    between atoms: C_7  and  N_8
REMARK    4  A    between atoms: C_11  and  C_13
REMARK    5  A    between atoms: C_16  and  C_17
REMARK    6  A    between atoms: C_17  and  C_18
REMARK                            x       y       z     vdW  Elec       q    Type
REMARK                         _______ _______ _______ _____ _____    ______ ____
ROOT
ATOM     13  C   UNL     1      -4.246   2.971  25.366  0.00  0.00    +0.227 A 
ATOM     14  N   UNL     1      -4.484   3.751  25.239  0.00  0.00    -0.112 NA
ATOM     15  N   UNL     1      -3.867   4.246  25.471  0.00  0.00    -0.111 NA
ATOM     16  C   UNL     1      -3.247   3.774  25.740  0.00  0.00    +0.231 A 
ATOM     27  O   UNL     1      -3.482   2.985  25.675  0.00  0.00    -0.423 OA
ENDROOT
BRANCH  13  11
ATOM      8  N   UNL     1      -5.043   1.061  24.841  0.00  0.00    -0.268 NA
ATOM      9  C   UNL     1      -5.722   1.452  25.099  0.00  0.00    +0.073 C 
ATOM     10  C   UNL     1      -5.506   2.215  25.327  0.00  0.00    +0.028 C 
ATOM     11  C   UNL     1      -4.694   2.296  25.210  0.00  0.00    +0.096 C 
ATOM     12  C   UNL     1      -4.408   1.583  24.910  0.00  0.00    +0.082 C 
BRANCH   8   7
ATOM      7  C   UNL     1      -5.006   0.286  24.563  0.00  0.00    +0.099 C 
BRANCH   7   6
ATOM      3  C   UNL     1      -2.929  -1.030  24.844  0.00  0.00    +0.068 A 
ATOM      4  C   UNL     1      -3.464  -0.967  25.468  0.00  0.00    +0.010 A 
ATOM      5  C   UNL     1      -4.156  -0.528  25.374  0.00  0.00    -0.002 A 
ATOM      6  C   UNL     1      -4.314  -0.153  24.657  0.00  0.00    -0.006 A 
ATOM     28  C   UNL     1      -3.777  -0.217  24.032  0.00  0.00    -0.002 A 
ATOM     29  C   UNL     1      -3.085  -0.655  24.125  0.00  0.00    +0.010 A 
BRANCH   3   2
ATOM      1  N   UNL     1      -1.544  -1.907  25.031  0.00  0.00    -0.191 NA
ATOM      2  C   UNL     1      -2.236  -1.469  24.938  0.00  0.00    +0.100 C 
ENDBRANCH   3   2
ENDBRANCH   7   6
ENDBRANCH   8   7
ENDBRANCH  13  11
BRANCH  16  17
ATOM     17  C   UNL     1      -2.521   4.042  26.025  0.00  0.00    +0.115 C 
BRANCH  17  18
ATOM     18  C   UNL     1      -1.846   3.984  25.554  0.00  0.00    +0.008 A 
ATOM     19  C   UNL     1      -1.687   4.431  24.878  0.00  0.00    +0.095 A 
ATOM     20  N   UNL     1      -0.955   4.193  24.583  0.00  0.00    -0.244 NA
ATOM     21  C   UNL     1      -0.662   3.600  25.075  0.00  0.00    +0.081 A 
ATOM     22  C   UNL     1      -1.212   3.471  25.675  0.00  0.00    +0.016 A 
ATOM     23  C   UNL     1      -1.065   2.903  26.255  0.00  0.00    +0.001 A 
ATOM     24  C   UNL     1      -0.367   2.464  26.235  0.00  0.00    +0.000 A 
ATOM     25  C   UNL     1       0.183   2.593  25.634  0.00  0.00    +0.002 A 
ATOM     26  C   UNL     1       0.037   3.160  25.054  0.00  0.00    +0.019 A 
ENDBRANCH  17  18
ENDBRANCH  16  17
TORSDOF 6
ENDMDL
