MODEL 1
REMARK VINA RESULT:     -10.3      0.000      0.000
REMARK  Name = 
REMARK  4 active torsions:
REMARK  status: ('A' for Active; 'I' for Inactive)
REMARK    1  A    between atoms: O_2  and  C_3
REMARK    2  A    between atoms: C_8  and  C_10
REMARK    3  A    between atoms: N_13  and  C_14
REMARK    4  A    between atoms: C_14  and  C_15
REMARK                            x       y       z     vdW  Elec       q    Type
REMARK                         _______ _______ _______ _____ _____    ______ ____
ROOT
ATOM      3  C   UNL     1      -3.408  -2.134  24.753  0.00  0.00    +0.140 A 
ATOM      4  C   UNL     1      -3.324  -1.432  25.177  0.00  0.00    +0.058 A 
ATOM      5  C   UNL     1      -3.751  -0.761  24.955  0.00  0.00    +0.103 A 
ATOM      6  C   UNL     1      -4.261  -0.793  24.308  0.00  0.00    +0.100 A 
ATOM      7  N   UNL     1      -4.607  -0.050  24.218  0.00  0.00    -0.229 NA
ATOM      8  C   UNL     1      -4.311   0.442  24.811  0.00  0.00    +0.140 A 
ATOM      9  N   UNL     1      -3.782   0.002  25.266  0.00  0.00    -0.229 NA
ATOM     21  C   UNL     1      -4.344  -1.496  23.882  0.00  0.00    +0.024 A 
ATOM     22  C   UNL     1      -3.918  -2.166  24.105  0.00  0.00    +0.039 A 
ENDROOT
BRANCH   8  10
ATOM     10  C   UNL     1      -4.509   1.234  24.928  0.00  0.00    +0.076 C 
ATOM     11  C   UNL     1      -5.175   1.514  25.324  0.00  0.00    +0.026 C 
ATOM     12  C   UNL     1      -5.154   2.338  25.310  0.00  0.00    +0.073 C 
ATOM     13  N   UNL     1      -4.474   2.568  24.905  0.00  0.00    -0.269 NA
ATOM     20  C   UNL     1      -4.075   1.885  24.668  0.00  0.00    +0.080 C 
BRANCH  13  14
ATOM     14  C   UNL     1      -4.234   3.344  24.761  0.00  0.00    +0.100 C 
BRANCH  14  15
ATOM     15  C   UNL     1      -3.571   3.650  25.147  0.00  0.00    +0.001 A 
ATOM     16  C   UNL     1      -2.821   3.750  24.818  0.00  0.00    +0.033 A 
ATOM     17  S   UNL     1      -2.329   4.071  25.397  0.00  0.00    -0.086 S 
ATOM     18  C   UNL     1      -2.776   4.170  26.084  0.00  0.00    +0.035 A 
ATOM     19  C   UNL     1      -3.543   3.909  25.929  0.00  0.00    +0.005 A 
ENDBRANCH  14  15
ENDBRANCH  13  14
ENDBRANCH   8  10
BRANCH   3   2
ATOM      1  C   UNL     1      -2.264  -2.978  24.607  0.00  0.00    +0.252 C 
ATOM      2  O   UNL     1      -2.981  -2.803  24.975  0.00  0.00    -0.471 OA
ENDBRANCH   3   2
TORSDOF 4
ENDMDL
MODEL 2
REMARK VINA RESULT:      -9.7      2.420      5.071
REMARK  Name = 
REMARK  4 active torsions:
REMARK  status: ('A' for Active; 'I' for Inactive)
REMARK    1  A    between atoms: O_2  and  C_3
REMARK    2  A    between atoms: C_8  and  C_10
REMARK    3  A    between atoms: N_13  and  C_14
REMARK    4  A    between atoms: C_14  and  C_15
REMARK                            x       y       z     vdW  Elec       q    Type
REMARK                         _______ _______ _______ _____ _____    ______ ____
ROOT
ATOM      3  C   UNL     1      -1.710   4.152  25.325  0.00  0.00    +0.140 A 
ATOM      4  C   UNL     1      -1.607   3.427  24.946  0.00  0.00    +0.058 A 
ATOM      5  C   UNL     1      -2.238   2.899  24.883  0.00  0.00    +0.103 A 
ATOM      6  C   UNL     1      -2.974   3.097  25.201  0.00  0.00    +0.100 A 
ATOM      7  N   UNL     1      -3.490   2.471  25.056  0.00  0.00    -0.229 NA
ATOM      8  C   UNL     1      -3.075   1.886  24.650  0.00  0.00    +0.140 A 
ATOM      9  N   UNL     1      -2.301   2.151  24.543  0.00  0.00    -0.229 NA
ATOM     21  C   UNL     1      -3.078   3.823  25.580  0.00  0.00    +0.024 A 
ATOM     22  C   UNL     1      -2.446   4.349  25.642  0.00  0.00    +0.039 A 
ENDROOT
BRANCH   8  10
ATOM     10  C   UNL     1      -3.379   1.163  24.395  0.00  0.00    +0.076 C 
ATOM     11  C   UNL     1      -3.352   0.870  23.625  0.00  0.00    +0.026 C 
ATOM     12  C   UNL     1      -3.720   0.131  23.618  0.00  0.00    +0.073 C 
ATOM     13  N   UNL     1      -3.976  -0.031  24.385  0.00  0.00    -0.269 NA
ATOM     20  C   UNL     1      -3.765   0.606  24.865  0.00  0.00    +0.080 C 
BRANCH  13  14
ATOM     14  C   UNL     1      -4.372  -0.712  24.630  0.00  0.00    +0.100 C 
BRANCH  14  15
ATOM     15  C   UNL     1      -3.979  -1.438  24.642  0.00  0.00    +0.001 A 
ATOM     16  C   UNL     1      -3.491  -1.715  25.246  0.00  0.00    +0.033 A 
ATOM     17  S   UNL     1      -3.215  -2.462  25.030  0.00  0.00    -0.086 S 
ATOM     18  C   UNL     1      -3.535  -2.646  24.291  0.00  0.00    +0.035 A 
ATOM     19  C   UNL     1      -4.006  -2.013  24.052  0.00  0.00    +0.005 A 
ENDBRANCH  14  15
ENDBRANCH  13  14
ENDBRANCH   8  10
BRANCH   3   2
ATOM      1  C   UNL     1      -1.076   5.374  24.943  0.00  0.00    +0.252 C 
ATOM      2  O   UNL     1      -1.080   4.678  25.388  0.00  0.00    -0.471 OA
ENDBRANCH   3   2
TORSDOF 4
ENDMDL
MODEL 3
REMARK VINA RESULT:      -9.4      1.897      2.385
REMARK  Name = 
REMARK  4 active torsions:
REMARK  status: ('A' for Active; 'I' for Inactive)
REMARK    1  A    between atoms: O_2  and  C_3
REMARK    2  A    between atoms: C_8  and  C_10
REMARK    3  A    between atoms: N_13  and  C_14
REMARK    4  A    between atoms: C_14  and  C_15
REMARK                            x       y       z     vdW  Elec       q    Type
REMARK                         _______ _______ _______ _____ _____    ______ ____
ROOT
ATOM      3  C   UNL     1      -3.470  -1.727  24.817  0.00  0.00    +0.140 A 
ATOM      4  C   UNL     1      -2.747  -1.420  25.069  0.00  0.00    +0.058 A 
ATOM      5  C   UNL     1      -2.556  -0.633  24.914  0.00  0.00    +0.103 A 
ATOM      6  C   UNL     1      -3.089  -0.152  24.507  0.00  0.00    +0.100 A 
ATOM      7  N   UNL     1      -2.752   0.597  24.435  0.00  0.00    -0.229 NA
ATOM      8  C   UNL     1      -2.011   0.580  24.796  0.00  0.00    +0.140 A 
ATOM      9  N   UNL     1      -1.890  -0.180  25.092  0.00  0.00    -0.229 NA
ATOM     21  C   UNL     1      -3.813  -0.459  24.255  0.00  0.00    +0.024 A 
ATOM     22  C   UNL     1      -4.003  -1.246  24.411  0.00  0.00    +0.039 A 
ENDROOT
BRANCH   8  10
ATOM     10  C   UNL     1      -1.483   1.211  24.852  0.00  0.00    +0.076 C 
ATOM     11  C   UNL     1      -0.828   1.340  24.369  0.00  0.00    +0.026 C 
ATOM     12  C   UNL     1      -0.457   2.034  24.618  0.00  0.00    +0.073 C 
ATOM     13  N   UNL     1      -0.884   2.334  25.257  0.00  0.00    -0.269 NA
ATOM     20  C   UNL     1      -1.519   1.826  25.401  0.00  0.00    +0.080 C 
BRANCH  13  14
ATOM     14  C   UNL     1      -0.709   3.021  25.678  0.00  0.00    +0.100 C 
BRANCH  14  15
ATOM     15  C   UNL     1      -1.048   3.740  25.455  0.00  0.00    +0.001 A 
ATOM     16  C   UNL     1      -0.702   4.310  24.970  0.00  0.00    +0.033 A 
ATOM     17  S   UNL     1      -1.233   4.937  24.893  0.00  0.00    -0.086 S 
ATOM     18  C   UNL     1      -1.908   4.754  25.332  0.00  0.00    +0.035 A 
ATOM     19  C   UNL     1      -1.793   4.014  25.679  0.00  0.00    +0.005 A 
ENDBRANCH  14  15
ENDBRANCH  13  14
ENDBRANCH   8  10
BRANCH   3   2
ATOM      1  C   UNL     1      -3.659  -3.068  24.360  0.00  0.00    +0.252 C 
ATOM      2  O   UNL     1      -3.661  -2.514  24.972  0.00  0.00    -0.471 OA
ENDBRANCH   3   2
TORSDOF 4
ENDMDL
MODEL 4
REMARK VINA RESULT:      -9.3      3.046      5.378
REMARK  Name = 
REMARK  4 active torsions:
REMARK  status: ('A' for Active; 'I' for Inactive)
REMARK    1  A    between atoms: O_2  and  C_3
REMARK    2  A    between atoms: C_8  and  C_10
REMARK    3  A    between atoms: N_13  and  C_14
REMARK    4  A    between atoms: C_14  and  C_15
REMARK                            x       y       z     vdW  Elec       q    Type
REMARK                         _______ _______ _______ _____ _____    ______ ____
ROOT
ATOM      3  C   UNL     1      -0.668   3.409  25.036  0.00  0.00    +0.140 A 
ATOM      4  C   UNL     1      -1.119   2.812  24.692  0.00  0.00    +0.058 A 
ATOM      5  C   UNL     1      -1.120   2.054  25.018  0.00  0.00    +0.103 A 
ATOM      6  C   UNL     1      -0.667   1.895  25.690  0.00  0.00    +0.100 A 
ATOM      7  N   UNL     1      -0.775   1.102  25.888  0.00  0.00    -0.229 NA
ATOM      8  C   UNL     1      -1.294   0.770  25.339  0.00  0.00    +0.140 A 
ATOM      9  N   UNL     1      -1.507   1.359  24.802  0.00  0.00    -0.229 NA
ATOM     21  C   UNL     1      -0.215   2.493  26.034  0.00  0.00    +0.024 A 
ATOM     22  C   UNL     1      -0.215   3.250  25.707  0.00  0.00    +0.039 A 
ENDROOT
BRANCH   8  10
ATOM     10  C   UNL     1      -1.555  -0.012  25.329  0.00  0.00    +0.076 C 
ATOM     11  C   UNL     1      -1.096  -0.674  25.154  0.00  0.00    +0.026 C 
ATOM     12  C   UNL     1      -1.578  -1.342  25.209  0.00  0.00    +0.073 C 
ATOM     13  N   UNL     1      -2.335  -1.092  25.418  0.00  0.00    -0.269 NA
ATOM     20  C   UNL     1      -2.321  -0.270  25.492  0.00  0.00    +0.080 C 
BRANCH  13  14
ATOM     14  C   UNL     1      -2.992  -1.578  25.533  0.00  0.00    +0.100 C 
BRANCH  14  15
ATOM     15  C   UNL     1      -3.443  -1.823  24.887  0.00  0.00    +0.001 A 
ATOM     16  C   UNL     1      -3.422  -2.568  24.534  0.00  0.00    +0.033 A 
ATOM     17  S   UNL     1      -3.960  -2.571  23.909  0.00  0.00    -0.086 S 
ATOM     18  C   UNL     1      -4.315  -1.826  23.876  0.00  0.00    +0.035 A 
ATOM     19  C   UNL     1      -3.995  -1.364  24.480  0.00  0.00    +0.005 A 
ENDBRANCH  14  15
ENDBRANCH  13  14
ENDBRANCH   8  10
BRANCH   3   2
ATOM      1  C   UNL     1      -1.134   4.760  25.042  0.00  0.00    +0.252 C 
ATOM      2  O   UNL     1      -0.668   4.166  24.709  0.00  0.00    -0.471 OA
ENDBRANCH   3   2
TORSDOF 4
ENDMDL
MODEL 5
REMARK VINA RESULT:      -9.3      2.143      4.774
REMARK  Name = 
REMARK  4 active torsions:
REMARK  status: ('A' for Active; 'I' for Inactive)
REMARK    1  A    between atoms: O_2  and  C_3
REMARK    2  A    between atoms: C_8  and  C_10
REMARK    3  A    between atoms: N_13  and  C_14
REMARK    4  A    between atoms: C_14  and  C_15
REMARK                            x       y       z     vdW  Elec       q    Type
REMARK                         _______ _______ _______ _____ _____    ______ ____
ROOT
ATOM      3  C   UNL     1      -4.764   3.193  25.153  0.00  0.00    +0.140 A 
ATOM      4  C   UNL     1      -4.216   2.641  24.882  0.00  0.00    +0.058 A 
ATOM      5  C   UNL     1      -4.396   1.836  24.901  0.00  0.00    +0.103 A 
ATOM      6  C   UNL     1      -5.126   1.584  25.193  0.00  0.00    +0.100 A 
ATOM      7  N   UNL     1      -5.149   0.761  25.145  0.00  0.00    -0.229 NA
ATOM      8  C   UNL     1      -4.434   0.504  24.824  0.00  0.00    +0.140 A 
ATOM      9  N   UNL     1      -3.969   1.168  24.674  0.00  0.00    -0.229 NA
ATOM     21  C   UNL     1      -5.675   2.137  25.464  0.00  0.00    +0.024 A 
ATOM     22  C   UNL     1      -5.494   2.942  25.444  0.00  0.00    +0.039 A 
ENDROOT
BRANCH   8  10
ATOM     10  C   UNL     1      -4.222  -0.280  24.679  0.00  0.00    +0.076 C 
ATOM     11  C   UNL     1      -4.498  -0.751  24.061  0.00  0.00    +0.026 C 
ATOM     12  C   UNL     1      -4.143  -1.493  24.126  0.00  0.00    +0.073 C 
ATOM     13  N   UNL     1      -3.648  -1.480  24.785  0.00  0.00    -0.269 NA
ATOM     20  C   UNL     1      -3.697  -0.731  25.127  0.00  0.00    +0.080 C 
BRANCH  13  14
ATOM     14  C   UNL     1      -3.185  -2.107  25.056  0.00  0.00    +0.100 C 
BRANCH  14  15
ATOM     15  C   UNL     1      -2.378  -2.129  24.884  0.00  0.00    +0.001 A 
ATOM     16  C   UNL     1      -1.781  -1.747  25.306  0.00  0.00    +0.033 A 
ATOM     17  S   UNL     1      -1.060  -1.918  24.942  0.00  0.00    -0.086 S 
ATOM     18  C   UNL     1      -1.213  -2.408  24.295  0.00  0.00    +0.035 A 
ATOM     19  C   UNL     1      -2.027  -2.537  24.259  0.00  0.00    +0.005 A 
ENDBRANCH  14  15
ENDBRANCH  13  14
ENDBRANCH   8  10
BRANCH   3   2
ATOM      1  C   UNL     1      -4.024   4.309  25.654  0.00  0.00    +0.252 C 
ATOM      2  O   UNL     1      -4.583   3.998  25.133  0.00  0.00    -0.471 OA
ENDBRANCH   3   2
TORSDOF 4
ENDMDL
MODEL 6
REMARK VINA RESULT:      -8.6      2.714      3.254
REMARK  Name = 
REMARK  4 active torsions:
REMARK  status: ('A' for Active; 'I' for Inactive)
REMARK    1  A    between atoms: O_2  and  C_3
REMARK    2  A    between atoms: C_8  and  C_10
REMARK    3  A    between atoms: N_13  and  C_14
REMARK    4  A    between atoms: C_14  and  C_15
REMARK                            x       y       z     vdW  Elec       q    Type
REMARK                         _______ _______ _______ _____ _____    ______ ____
ROOT
ATOM      3  C   UNL     1       0.233  -0.140  23.755  0.00  0.00    +0.140 A 
ATOM      4  C   UNL     1       0.004   0.650  23.701  0.00  0.00    +0.058 A 
ATOM      5  C   UNL     1      -0.701   0.900  24.049  0.00  0.00    +0.103 A 
ATOM      6  C   UNL     1      -1.178   0.359  24.450  0.00  0.00    +0.100 A 
ATOM      7  N   UNL     1      -1.838   0.763  24.735  0.00  0.00    -0.229 NA
ATOM      8  C   UNL     1      -1.770   1.553  24.511  0.00  0.00    +0.140 A 
ATOM      9  N   UNL     1      -1.067   1.638  24.087  0.00  0.00    -0.229 NA
ATOM     21  C   UNL     1      -0.949  -0.432  24.503  0.00  0.00    +0.024 A 
ATOM     22  C   UNL     1      -0.244  -0.681  24.155  0.00  0.00    +0.039 A 
ENDROOT
BRANCH   8  10
ATOM     10  C   UNL     1      -2.309   2.154  24.681  0.00  0.00    +0.076 C 
ATOM     11  C   UNL     1      -2.178   2.796  25.181  0.00  0.00    +0.026 C 
ATOM     12  C   UNL     1      -2.862   3.258  25.190  0.00  0.00    +0.073 C 
ATOM     13  N   UNL     1      -3.416   2.900  24.695  0.00  0.00    -0.269 NA
ATOM     20  C   UNL     1      -3.074   2.218  24.380  0.00  0.00    +0.080 C 
BRANCH  13  14
ATOM     14  C   UNL     1      -4.178   3.176  24.540  0.00  0.00    +0.100 C 
BRANCH  14  15
ATOM     15  C   UNL     1      -4.824   2.848  24.937  0.00  0.00    +0.001 A 
ATOM     16  C   UNL     1      -5.134   3.107  25.656  0.00  0.00    +0.033 A 
ATOM     17  S   UNL     1      -5.775   2.623  25.847  0.00  0.00    -0.086 S 
ATOM     18  C   UNL     1      -5.860   2.065  25.245  0.00  0.00    +0.035 A 
ATOM     19  C   UNL     1      -5.272   2.205  24.683  0.00  0.00    +0.005 A 
ENDBRANCH  14  15
ENDBRANCH  13  14
ENDBRANCH   8  10
BRANCH   3   2
ATOM      1  C   UNL     1       1.116  -0.172  22.632  0.00  0.00    +0.252 C 
ATOM      2  O   UNL     1       0.938  -0.390  23.407  0.00  0.00    -0.471 OA
ENDBRANCH   3   2
TORSDOF 4
ENDMDL
MODEL 7
REMARK VINA RESULT:      -7.4     17.915     19.467
REMARK  Name = 
REMARK  4 active torsions:
REMARK  status: ('A' for Active; 'I' for Inactive)
REMARK    1  A    between atoms: O_2  and  C_3
REMARK    2  A    between atoms: C_8  and  C_10
REMARK    3  A    between atoms: N_13  and  C_14
REMARK    4  A    between atoms: C_14  and  C_15
REMARK                            x       y       z     vdW  Elec       q    Type
REMARK                         _______ _______ _______ _____ _____    ______ ____
ROOT
ATOM      3  C   UNL     1      11.082   7.793  22.215  0.00  0.00    +0.140 A 
ATOM      4  C   UNL     1      11.839   8.038  21.999  0.00  0.00    +0.058 A 
ATOM      5  C   UNL     1      12.281   7.592  21.464  0.00  0.00    +0.103 A 
ATOM      6  C   UNL     1      11.965   6.901  21.144  0.00  0.00    +0.100 A 
ATOM      7  N   UNL     1      12.525   6.576  20.634  0.00  0.00    -0.229 NA
ATOM      8  C   UNL     1      13.188   7.067  20.638  0.00  0.00    +0.140 A 
ATOM      9  N   UNL     1      13.036   7.695  21.151  0.00  0.00    -0.229 NA
ATOM     21  C   UNL     1      11.206   6.655  21.359  0.00  0.00    +0.024 A 
ATOM     22  C   UNL     1      10.765   7.102  21.895  0.00  0.00    +0.039 A 
ENDROOT
BRANCH   8  10
ATOM     10  C   UNL     1      13.880   6.951  20.204  0.00  0.00    +0.076 C 
ATOM     11  C   UNL     1      14.003   7.170  19.419  0.00  0.00    +0.026 C 
ATOM     12  C   UNL     1      14.770   6.950  19.209  0.00  0.00    +0.073 C 
ATOM     13  N   UNL     1      15.122   6.595  19.865  0.00  0.00    -0.269 NA
ATOM     20  C   UNL     1      14.571   6.596  20.480  0.00  0.00    +0.080 C 
BRANCH  13  14
ATOM     14  C   UNL     1      15.888   6.292  19.901  0.00  0.00    +0.100 C 
BRANCH  14  15
ATOM     15  C   UNL     1      16.478   6.709  20.300  0.00  0.00    +0.001 A 
ATOM     16  C   UNL     1      16.805   6.507  21.030  0.00  0.00    +0.033 A 
ATOM     17  S   UNL     1      17.375   7.073  21.221  0.00  0.00    -0.086 S 
ATOM     18  C   UNL     1      17.399   7.625  20.607  0.00  0.00    +0.035 A 
ATOM     19  C   UNL     1      16.845   7.400  20.039  0.00  0.00    +0.005 A 
ENDBRANCH  14  15
ENDBRANCH  13  14
ENDBRANCH   8  10
BRANCH   3   2
ATOM      1  C   UNL     1      10.435   9.017  22.568  0.00  0.00    +0.252 C 
ATOM      2  O   UNL     1      10.640   8.239  22.749  0.00  0.00    -0.471 OA
ENDBRANCH   3   2
TORSDOF 4
ENDMDL
MODEL 8
REMARK VINA RESULT:      -7.0     17.990     19.443
REMARK  Name = 
REMARK  4 active torsions:
REMARK  status: ('A' for Active; 'I' for Inactive)
REMARK    1  A    between atoms: O_2  and  C_3
REMARK    2  A    between atoms: C_8  and  C_10
REMARK    3  A    between atoms: N_13  and  C_14
REMARK    4  A    between atoms: C_14  and  C_15
REMARK                            x       y       z     vdW  Elec       q    Type
REMARK                         _______ _______ _______ _____ _____    ______ ____
ROOT
ATOM      3  C   UNL     1      16.573   6.830  20.134  0.00  0.00    +0.140 A 
ATOM      4  C   UNL     1      15.941   7.217  20.496  0.00  0.00    +0.058 A 
ATOM      5  C   UNL     1      15.197   7.218  20.139  0.00  0.00    +0.103 A 
ATOM      6  C   UNL     1      15.086   6.830  19.419  0.00  0.00    +0.100 A 
ATOM      7  N   UNL     1      14.296   6.923  19.199  0.00  0.00    -0.229 NA
ATOM      8  C   UNL     1      13.920   7.368  19.782  0.00  0.00    +0.140 A 
ATOM      9  N   UNL     1      14.477   7.550  20.363  0.00  0.00    -0.229 NA
ATOM     21  C   UNL     1      15.718   6.442  19.056  0.00  0.00    +0.024 A 
ATOM     22  C   UNL     1      16.461   6.443  19.414  0.00  0.00    +0.039 A 
ENDROOT
BRANCH   8  10
ATOM     10  C   UNL     1      13.126   7.591  19.785  0.00  0.00    +0.076 C 
ATOM     11  C   UNL     1      12.768   8.116  19.259  0.00  0.00    +0.026 C 
ATOM     12  C   UNL     1      11.971   8.179  19.462  0.00  0.00    +0.073 C 
ATOM     13  N   UNL     1      11.836   7.693  20.115  0.00  0.00    -0.269 NA
ATOM     20  C   UNL     1      12.550   7.330  20.314  0.00  0.00    +0.080 C 
BRANCH  13  14
ATOM     14  C   UNL     1      11.115   7.588  20.501  0.00  0.00    +0.100 C 
BRANCH  14  15
ATOM     15  C   UNL     1      10.948   8.013  21.188  0.00  0.00    +0.001 A 
ATOM     16  C   UNL     1      10.946   7.713  21.956  0.00  0.00    +0.033 A 
ATOM     17  S   UNL     1      10.750   8.328  22.470  0.00  0.00    -0.086 S 
ATOM     18  C   UNL     1      10.631   9.008  22.019  0.00  0.00    +0.035 A 
ATOM     19  C   UNL     1      10.753   8.813  21.226  0.00  0.00    +0.005 A 
ENDBRANCH  14  15
ENDBRANCH  13  14
ENDBRANCH   8  10
BRANCH   3   2
ATOM      1  C   UNL     1      17.404   6.546  21.261  0.00  0.00    +0.252 C 
ATOM      2  O   UNL     1      17.315   6.830  20.491  0.00  0.00    -0.471 OA
ENDBRANCH   3   2
TORSDOF 4
ENDMDL
MODEL 9
REMARK VINA RESULT:      -6.8     18.679     20.098
REMARK  Name = 
REMARK  4 active torsions:
REMARK  status: ('A' for Active; 'I' for Inactive)
REMARK    1  A    between atoms: O_2  and  C_3
REMARK    2  A    between atoms: C_8  and  C_10
REMARK    3  A    between atoms: N_13  and  C_14
REMARK    4  A    between atoms: C_14  and  C_15
REMARK                            x       y       z     vdW  Elec       q    Type
REMARK                         _______ _______ _______ _____ _____    ______ ____
ROOT
ATOM      3  C   UNL     1      11.712   8.515  17.222  0.00  0.00    +0.140 A 
ATOM      4  C   UNL     1      12.427   8.131  17.366  0.00  0.00    +0.058 A 
ATOM      5  C   UNL     1      12.650   7.949  18.140  0.00  0.00    +0.103 A 
ATOM      6  C   UNL     1      12.156   8.151  18.769  0.00  0.00    +0.100 A 
ATOM      7  N   UNL     1      12.517   7.903  19.467  0.00  0.00    -0.229 NA
ATOM      8  C   UNL     1      13.235   7.547  19.270  0.00  0.00    +0.140 A 
ATOM      9  N   UNL     1      13.316   7.576  18.450  0.00  0.00    -0.229 NA
ATOM     21  C   UNL     1      11.440   8.536  18.624  0.00  0.00    +0.024 A 
ATOM     22  C   UNL     1      11.218   8.717  17.851  0.00  0.00    +0.039 A 
ENDROOT
BRANCH   8  10
ATOM     10  C   UNL     1      13.776   7.220  19.800  0.00  0.00    +0.076 C 
ATOM     11  C   UNL     1      13.708   7.216  20.622  0.00  0.00    +0.026 C 
ATOM     12  C   UNL     1      14.370   6.833  20.932  0.00  0.00    +0.073 C 
ATOM     13  N   UNL     1      14.848   6.601  20.300  0.00  0.00    -0.269 NA
ATOM     20  C   UNL     1      14.481   6.840  19.601  0.00  0.00    +0.080 C 
BRANCH  13  14
ATOM     14  C   UNL     1      15.566   6.200  20.358  0.00  0.00    +0.100 C 
BRANCH  14  15
ATOM     15  C   UNL     1      16.265   6.621  20.486  0.00  0.00    +0.001 A 
ATOM     16  C   UNL     1      16.569   6.844  21.219  0.00  0.00    +0.033 A 
ATOM     17  S   UNL     1      17.274   7.253  21.089  0.00  0.00    -0.086 S 
ATOM     18  C   UNL     1      17.405   7.281  20.274  0.00  0.00    +0.035 A 
ATOM     19  C   UNL     1      16.781   6.890  19.902  0.00  0.00    +0.005 A 
ENDBRANCH  14  15
ENDBRANCH  13  14
ENDBRANCH   8  10
BRANCH   3   2
ATOM      1  C   UNL     1      10.692   8.759  16.252  0.00  0.00    +0.252 C 
ATOM      2  O   UNL     1      11.491   8.697  16.449  0.00  0.00    -0.471 OA
ENDBRANCH   3   2
TORSDOF 4
ENDMDL
MODEL 10
REMARK VINA RESULT:      -6.4     18.786     20.221
REMARK  Name = 
REMARK  4 active torsions:
REMARK  status: ('A' for Active; 'I' for Inactive)
REMARK    1  A    between atoms: O_2  and  C_3
REMARK    2  A    between atoms: C_8  and  C_10
REMARK    3  A    between atoms: N_13  and  C_14
REMARK    4  A    between atoms: C_14  and  C_15
REMARK                            x       y       z     vdW  Elec       q    Type
REMARK                         _______ _______ _______ _____ _____    ______ ____
ROOT
ATOM      3  C   UNL     1      16.747   6.922  20.464  0.00  0.00    +0.140 A 
ATOM      4  C   UNL     1      16.004   7.239  20.627  0.00  0.00    +0.058 A 
ATOM      5  C   UNL     1      15.399   7.184  20.069  0.00  0.00    +0.103 A 
ATOM      6  C   UNL     1      15.538   6.812  19.346  0.00  0.00    +0.100 A 
ATOM      7  N   UNL     1      14.842   6.841  18.905  0.00  0.00    -0.229 NA
ATOM      8  C   UNL     1      14.272   7.231  19.356  0.00  0.00    +0.140 A 
ATOM      9  N   UNL     1      14.617   7.443  20.074  0.00  0.00    -0.229 NA
ATOM     21  C   UNL     1      16.283   6.494  19.181  0.00  0.00    +0.024 A 
ATOM     22  C   UNL     1      16.886   6.549  19.741  0.00  0.00    +0.039 A 
ENDROOT
BRANCH   8  10
ATOM     10  C   UNL     1      13.494   7.383  19.128  0.00  0.00    +0.076 C 
ATOM     11  C   UNL     1      12.883   6.830  19.091  0.00  0.00    +0.026 C 
ATOM     12  C   UNL     1      12.201   7.219  18.837  0.00  0.00    +0.073 C 
ATOM     13  N   UNL     1      12.390   8.012  18.717  0.00  0.00    -0.269 NA
ATOM     20  C   UNL     1      13.190   8.114  18.896  0.00  0.00    +0.080 C 
BRANCH  13  14
ATOM     14  C   UNL     1      11.873   8.602  18.462  0.00  0.00    +0.100 C 
BRANCH  14  15
ATOM     15  C   UNL     1      11.691   8.673  17.659  0.00  0.00    +0.001 A 
ATOM     16  C   UNL     1      11.036   8.348  17.279  0.00  0.00    +0.033 A 
ATOM     17  S   UNL     1      11.073   8.556  16.482  0.00  0.00    -0.086 S 
ATOM     18  C   UNL     1      11.752   9.012  16.370  0.00  0.00    +0.035 A 
ATOM     19  C   UNL     1      12.134   9.083  17.098  0.00  0.00    +0.005 A 
ENDBRANCH  14  15
ENDBRANCH  13  14
ENDBRANCH   8  10
BRANCH   3   2
ATOM      1  C   UNL     1      17.405   6.419  21.628  0.00  0.00    +0.252 C 
ATOM      2  O   UNL     1      17.351   6.976  21.022  0.00  0.00    -0.471 OA
ENDBRANCH   3   2
TORSDOF 4
ENDMDL
