MODEL 1
REMARK VINA RESULT:     -11.3      0.000      0.000
REMARK  Name = 
REMARK  7 active torsions:
REMARK  status: ('A' for Active; 'I' for Inactive)
REMARK    1  A    between atoms: C_2  and  C_4
REMARK    2  A    between atoms: C_4  and  C_5
REMARK    3  A    between atoms: C_4  and  N_13
REMARK    4  A    between atoms: C_5  and  C_6
REMARK    5  A    between atoms: C_14  and  C_16
REMARK    6  A    between atoms: C_23  and  N_25
REMARK    7  A    between atoms: N_28  and  C_29
REMARK                            x       y       z     vdW  Elec       q    Type
REMARK                         _______ _______ _______ _____ _____    ______ ____
ROOT
ATOM     16  C   UNL     1      -1.010   0.609  24.970  0.00  0.00    +0.200 C 
ATOM     17  O   UNL     1      -1.548   1.119  25.335  0.00  0.00    -0.216 OA
ATOM     18  C   UNL     1      -0.312   0.337  24.626  0.00  0.00    +0.075 C 
ATOM     19  C   UNL     1      -0.263  -0.439  24.352  0.00  0.00    +0.187 C 
ATOM     20  O   UNL     1       0.435  -0.712  24.008  0.00  0.00    -0.220 OA
ATOM     21  C   UNL     1      -0.912  -0.945  24.424  0.00  0.00    +0.202 C 
ATOM     22  O   UNL     1      -0.862  -1.721  24.150  0.00  0.00    -0.219 OA
ATOM     23  C   UNL     1      -1.610  -0.671  24.769  0.00  0.00    +0.133 C 
ATOM     24  C   UNL     1      -1.659   0.105  25.042  0.00  0.00    +0.064 C 
ENDROOT
BRANCH  23  25
ATOM     25  N   UNL     1      -2.259  -1.176  24.840  0.00  0.00    -0.186 NA
ATOM     26  C   UNL     1      -2.508  -1.424  25.587  0.00  0.00    +0.344 C 
ATOM     27  O   UNL     1      -2.109  -1.167  26.261  0.00  0.00    -0.249 OA
ATOM     28  N   UNL     1      -3.157  -1.929  25.658  0.00  0.00    -0.161 NA
BRANCH  28  29
ATOM     29  C   UNL     1      -3.556  -2.186  24.984  0.00  0.00    +0.077 A 
ATOM     30  C   UNL     1      -3.435  -2.951  24.700  0.00  0.00    +0.017 A 
ATOM     31  C   UNL     1      -3.835  -3.209  24.025  0.00  0.00    +0.004 A 
ATOM     32  C   UNL     1      -4.354  -2.701  23.635  0.00  0.00    +0.030 A 
ATOM     33  C   UNL     1      -4.475  -1.935  23.919  0.00  0.00    +0.141 A 
ATOM     34  F   UNL     1      -4.995  -1.427  23.528  0.00  0.00    -0.204 F 
ATOM     35  C   UNL     1      -4.076  -1.678  24.593  0.00  0.00    +0.046 A 
ENDBRANCH  28  29
ENDBRANCH  23  25
BRANCH  16  14
ATOM     13  N   UNL     1      -0.785   1.911  25.514  0.00  0.00    -0.195 NA
ATOM     14  C   UNL     1      -0.548   1.291  25.026  0.00  0.00    +0.269 C 
ATOM     15  O   UNL     1       0.151   1.351  24.592  0.00  0.00    -0.271 OA
BRANCH  13   4
ATOM      4  C   UNL     1      -0.323   2.593  25.569  0.00  0.00    +0.179 C 
BRANCH   4   2
ATOM      1  N   UNL     1      -0.165   2.646  26.989  0.00  0.00    -0.086 NA
ATOM      2  C   UNL     1       0.154   2.714  26.231  0.00  0.00    +0.281 C 
ATOM      3  O   UNL     1       0.951   2.904  26.136  0.00  0.00    -0.270 OA
ENDBRANCH   4   2
BRANCH   4   5
ATOM      5  C   UNL     1      -0.339   3.153  24.964  0.00  0.00    +0.057 C 
BRANCH   5   6
ATOM      6  C   UNL     1      -0.792   3.837  25.046  0.00  0.00    -0.020 A 
ATOM      7  C   UNL     1      -1.571   3.788  25.312  0.00  0.00    -0.001 A 
ATOM      8  C   UNL     1      -2.024   4.472  25.394  0.00  0.00    +0.042 A 
ATOM      9  C   UNL     1      -1.698   5.207  25.208  0.00  0.00    +0.196 A 
ATOM     10  O   UNL     1      -2.150   5.892  25.289  0.00  0.00    -0.287 OA
ATOM     11  C   UNL     1      -0.918   5.257  24.941  0.00  0.00    +0.042 A 
ATOM     12  C   UNL     1      -0.466   4.572  24.860  0.00  0.00    -0.001 A 
ENDBRANCH   5   6
ENDBRANCH   4   5
ENDBRANCH  13   4
ENDBRANCH  16  14
TORSDOF 7
ENDMDL
MODEL 2
REMARK VINA RESULT:     -10.5      1.548      5.586
REMARK  Name = 
REMARK  7 active torsions:
REMARK  status: ('A' for Active; 'I' for Inactive)
REMARK    1  A    between atoms: C_2  and  C_4
REMARK    2  A    between atoms: C_4  and  C_5
REMARK    3  A    between atoms: C_4  and  N_13
REMARK    4  A    between atoms: C_5  and  C_6
REMARK    5  A    between atoms: C_14  and  C_16
REMARK    6  A    between atoms: C_23  and  N_25
REMARK    7  A    between atoms: N_28  and  C_29
REMARK                            x       y       z     vdW  Elec       q    Type
REMARK                         _______ _______ _______ _____ _____    ______ ____
ROOT
ATOM     16  C   UNL     1      -1.018   0.319  25.257  0.00  0.00    +0.200 C 
ATOM     17  O   UNL     1      -1.582   0.255  25.856  0.00  0.00    -0.216 OA
ATOM     18  C   UNL     1      -0.490   0.099  24.663  0.00  0.00    +0.075 C 
ATOM     19  C   UNL     1      -0.058   0.675  24.261  0.00  0.00    +0.187 C 
ATOM     20  O   UNL     1       0.471   0.454  23.668  0.00  0.00    -0.220 OA
ATOM     21  C   UNL     1      -0.154   1.472  24.452  0.00  0.00    +0.202 C 
ATOM     22  O   UNL     1       0.278   2.047  24.049  0.00  0.00    -0.219 OA
ATOM     23  C   UNL     1      -0.684   1.692  25.046  0.00  0.00    +0.133 C 
ATOM     24  C   UNL     1      -1.115   1.116  25.448  0.00  0.00    +0.064 C 
ENDROOT
BRANCH  23  25
ATOM     25  N   UNL     1      -0.780   2.489  25.237  0.00  0.00    -0.186 NA
ATOM     26  C   UNL     1      -0.375   2.810  25.879  0.00  0.00    +0.344 C 
ATOM     27  O   UNL     1       0.127   2.335  26.330  0.00  0.00    -0.249 OA
ATOM     28  N   UNL     1      -0.471   3.607  26.070  0.00  0.00    -0.161 NA
BRANCH  28  29
ATOM     29  C   UNL     1      -0.972   4.082  25.619  0.00  0.00    +0.077 A 
ATOM     30  C   UNL     1      -0.658   4.591  25.051  0.00  0.00    +0.017 A 
ATOM     31  C   UNL     1      -1.159   5.067  24.600  0.00  0.00    +0.004 A 
ATOM     32  C   UNL     1      -1.975   5.032  24.716  0.00  0.00    +0.030 A 
ATOM     33  C   UNL     1      -2.290   4.523  25.284  0.00  0.00    +0.141 A 
ATOM     34  F   UNL     1      -3.106   4.488  25.401  0.00  0.00    -0.204 F 
ATOM     35  C   UNL     1      -1.789   4.048  25.735  0.00  0.00    +0.046 A 
ENDBRANCH  28  29
ENDBRANCH  23  25
BRANCH  16  14
ATOM     13  N   UNL     1      -1.656  -0.862  24.766  0.00  0.00    -0.195 NA
ATOM     14  C   UNL     1      -1.117  -0.500  25.274  0.00  0.00    +0.269 C 
ATOM     15  O   UNL     1      -0.677  -0.957  25.801  0.00  0.00    -0.271 OA
BRANCH  13   4
ATOM      4  C   UNL     1      -1.755  -1.681  24.783  0.00  0.00    +0.179 C 
BRANCH   4   2
ATOM      1  N   UNL     1      -0.782  -2.722  24.894  0.00  0.00    -0.086 NA
ATOM      2  C   UNL     1      -1.191  -2.172  24.435  0.00  0.00    +0.281 C 
ATOM      3  O   UNL     1      -1.035  -2.113  23.627  0.00  0.00    -0.270 OA
ENDBRANCH   4   2
BRANCH   4   5
ATOM      5  C   UNL     1      -2.417  -2.009  25.149  0.00  0.00    +0.057 C 
BRANCH   5   6
ATOM      6  C   UNL     1      -3.109  -2.133  24.717  0.00  0.00    -0.020 A 
ATOM      7  C   UNL     1      -3.577  -1.492  24.493  0.00  0.00    -0.001 A 
ATOM      8  C   UNL     1      -4.269  -1.617  24.061  0.00  0.00    +0.042 A 
ATOM      9  C   UNL     1      -4.492  -2.383  23.853  0.00  0.00    +0.196 A 
ATOM     10  O   UNL     1      -5.184  -2.509  23.421  0.00  0.00    -0.287 OA
ATOM     11  C   UNL     1      -4.024  -3.025  24.076  0.00  0.00    +0.042 A 
ATOM     12  C   UNL     1      -3.332  -2.900  24.508  0.00  0.00    -0.001 A 
ENDBRANCH   5   6
ENDBRANCH   4   5
ENDBRANCH  13   4
ENDBRANCH  16  14
TORSDOF 7
ENDMDL
MODEL 3
REMARK VINA RESULT:     -10.5      2.873      5.710
REMARK  Name = 
REMARK  7 active torsions:
REMARK  status: ('A' for Active; 'I' for Inactive)
REMARK    1  A    between atoms: C_2  and  C_4
REMARK    2  A    between atoms: C_4  and  C_5
REMARK    3  A    between atoms: C_4  and  N_13
REMARK    4  A    between atoms: C_5  and  C_6
REMARK    5  A    between atoms: C_14  and  C_16
REMARK    6  A    between atoms: C_23  and  N_25
REMARK    7  A    between atoms: N_28  and  C_29
REMARK                            x       y       z     vdW  Elec       q    Type
REMARK                         _______ _______ _______ _____ _____    ______ ____
ROOT
ATOM     16  C   UNL     1      -0.570   0.430  24.398  0.00  0.00    +0.200 C 
ATOM     17  O   UNL     1      -0.746  -0.369  24.294  0.00  0.00    -0.216 OA
ATOM     18  C   UNL     1      -0.651   1.217  24.631  0.00  0.00    +0.075 C 
ATOM     19  C   UNL     1      -0.055   1.761  24.460  0.00  0.00    +0.187 C 
ATOM     20  O   UNL     1      -0.136   2.548  24.692  0.00  0.00    -0.220 OA
ATOM     21  C   UNL     1       0.623   1.518  24.057  0.00  0.00    +0.202 C 
ATOM     22  O   UNL     1       1.218   2.062  23.886  0.00  0.00    -0.219 OA
ATOM     23  C   UNL     1       0.703   0.730  23.825  0.00  0.00    +0.133 C 
ATOM     24  C   UNL     1       0.107   0.186  23.995  0.00  0.00    +0.064 C 
ENDROOT
BRANCH  23  25
ATOM     25  N   UNL     1       1.381   0.487  23.421  0.00  0.00    -0.186 NA
ATOM     26  C   UNL     1       1.313   0.136  22.678  0.00  0.00    +0.344 C 
ATOM     27  O   UNL     1       0.570   0.029  22.338  0.00  0.00    -0.249 OA
ATOM     28  N   UNL     1       1.991  -0.107  22.274  0.00  0.00    -0.161 NA
BRANCH  28  29
ATOM     29  C   UNL     1       2.735  -0.000  22.614  0.00  0.00    +0.077 A 
ATOM     30  C   UNL     1       3.055  -0.586  23.098  0.00  0.00    +0.017 A 
ATOM     31  C   UNL     1       3.800  -0.480  23.439  0.00  0.00    +0.004 A 
ATOM     32  C   UNL     1       4.222   0.214  23.295  0.00  0.00    +0.030 A 
ATOM     33  C   UNL     1       3.902   0.801  22.811  0.00  0.00    +0.141 A 
ATOM     34  F   UNL     1       4.325   1.494  22.668  0.00  0.00    -0.204 F 
ATOM     35  C   UNL     1       3.159   0.694  22.471  0.00  0.00    +0.046 A 
ENDBRANCH  28  29
ENDBRANCH  23  25
BRANCH  16  14
ATOM     13  N   UNL     1      -1.974   0.170  24.333  0.00  0.00    -0.195 NA
ATOM     14  C   UNL     1      -1.309   0.396  24.765  0.00  0.00    +0.269 C 
ATOM     15  O   UNL     1      -1.381   0.587  25.564  0.00  0.00    -0.271 OA
BRANCH  13   4
ATOM      4  C   UNL     1      -2.713   0.135  24.700  0.00  0.00    +0.179 C 
BRANCH   4   2
ATOM      1  N   UNL     1      -3.629   1.078  25.262  0.00  0.00    -0.086 NA
ATOM      2  C   UNL     1      -3.250   0.754  24.604  0.00  0.00    +0.281 C 
ATOM      3  O   UNL     1      -3.408   1.050  23.850  0.00  0.00    -0.270 OA
ENDBRANCH   4   2
BRANCH   4   5
ATOM      5  C   UNL     1      -2.914  -0.517  25.162  0.00  0.00    +0.057 C 
BRANCH   5   6
ATOM      6  C   UNL     1      -3.269  -1.176  24.814  0.00  0.00    -0.020 A 
ATOM      7  C   UNL     1      -3.862  -1.076  24.251  0.00  0.00    -0.001 A 
ATOM      8  C   UNL     1      -4.217  -1.735  23.903  0.00  0.00    +0.042 A 
ATOM      9  C   UNL     1      -3.977  -2.494  24.120  0.00  0.00    +0.196 A 
ATOM     10  O   UNL     1      -4.331  -3.154  23.774  0.00  0.00    -0.287 OA
ATOM     11  C   UNL     1      -3.383  -2.595  24.685  0.00  0.00    +0.042 A 
ATOM     12  C   UNL     1      -3.029  -1.935  25.031  0.00  0.00    -0.001 A 
ENDBRANCH   5   6
ENDBRANCH   4   5
ENDBRANCH  13   4
ENDBRANCH  16  14
TORSDOF 7
ENDMDL
MODEL 4
REMARK VINA RESULT:     -10.5      1.501      1.850
REMARK  Name = 
REMARK  7 active torsions:
REMARK  status: ('A' for Active; 'I' for Inactive)
REMARK    1  A    between atoms: C_2  and  C_4
REMARK    2  A    between atoms: C_4  and  C_5
REMARK    3  A    between atoms: C_4  and  N_13
REMARK    4  A    between atoms: C_5  and  C_6
REMARK    5  A    between atoms: C_14  and  C_16
REMARK    6  A    between atoms: C_23  and  N_25
REMARK    7  A    between atoms: N_28  and  C_29
REMARK                            x       y       z     vdW  Elec       q    Type
REMARK                         _______ _______ _______ _____ _____    ______ ____
ROOT
ATOM     16  C   UNL     1      -1.782   1.278  24.580  0.00  0.00    +0.200 C 
ATOM     17  O   UNL     1      -2.518   1.522  24.863  0.00  0.00    -0.216 OA
ATOM     18  C   UNL     1      -1.013   1.319  24.283  0.00  0.00    +0.075 C 
ATOM     19  C   UNL     1      -0.596   0.627  24.123  0.00  0.00    +0.187 C 
ATOM     20  O   UNL     1       0.173   0.668  23.827  0.00  0.00    -0.220 OA
ATOM     21  C   UNL     1      -0.946  -0.108  24.258  0.00  0.00    +0.202 C 
ATOM     22  O   UNL     1      -0.528  -0.800  24.097  0.00  0.00    -0.219 OA
ATOM     23  C   UNL     1      -1.715  -0.149  24.554  0.00  0.00    +0.133 C 
ATOM     24  C   UNL     1      -2.133   0.544  24.715  0.00  0.00    +0.064 C 
ENDROOT
BRANCH  23  25
ATOM     25  N   UNL     1      -2.066  -0.883  24.690  0.00  0.00    -0.186 NA
ATOM     26  C   UNL     1      -2.043  -1.217  25.444  0.00  0.00    +0.344 C 
ATOM     27  O   UNL     1      -1.671  -0.818  26.061  0.00  0.00    -0.249 OA
ATOM     28  N   UNL     1      -2.394  -1.952  25.579  0.00  0.00    -0.161 NA
BRANCH  28  29
ATOM     29  C   UNL     1      -2.766  -2.352  24.962  0.00  0.00    +0.077 A 
ATOM     30  C   UNL     1      -2.360  -2.936  24.544  0.00  0.00    +0.017 A 
ATOM     31  C   UNL     1      -2.733  -3.336  23.926  0.00  0.00    +0.004 A 
ATOM     32  C   UNL     1      -3.511  -3.152  23.726  0.00  0.00    +0.030 A 
ATOM     33  C   UNL     1      -3.918  -2.568  24.144  0.00  0.00    +0.141 A 
ATOM     34  F   UNL     1      -4.697  -2.384  23.944  0.00  0.00    -0.204 F 
ATOM     35  C   UNL     1      -3.546  -2.168  24.761  0.00  0.00    +0.046 A 
ENDBRANCH  28  29
ENDBRANCH  23  25
BRANCH  16  14
ATOM     13  N   UNL     1      -2.029   2.578  25.118  0.00  0.00    -0.195 NA
ATOM     14  C   UNL     1      -1.687   2.097  24.543  0.00  0.00    +0.269 C 
ATOM     15  O   UNL     1      -1.249   2.434  23.930  0.00  0.00    -0.271 OA
BRANCH  13   4
ATOM      4  C   UNL     1      -1.934   3.397  25.081  0.00  0.00    +0.179 C 
BRANCH   4   2
ATOM      1  N   UNL     1      -0.876   4.358  25.054  0.00  0.00    -0.086 NA
ATOM      2  C   UNL     1      -1.283   3.753  25.442  0.00  0.00    +0.281 C 
ATOM      3  O   UNL     1      -1.037   3.505  26.189  0.00  0.00    -0.270 OA
ENDBRANCH   4   2
BRANCH   4   5
ATOM      5  C   UNL     1      -2.489   3.860  24.685  0.00  0.00    +0.057 C 
BRANCH   5   6
ATOM      6  C   UNL     1      -3.263   3.911  24.969  0.00  0.00    -0.020 A 
ATOM      7  C   UNL     1      -3.401   4.050  25.769  0.00  0.00    -0.001 A 
ATOM      8  C   UNL     1      -4.174   4.101  26.053  0.00  0.00    +0.042 A 
ATOM      9  C   UNL     1      -4.809   4.013  25.534  0.00  0.00    +0.196 A 
ATOM     10  O   UNL     1      -5.583   4.063  25.816  0.00  0.00    -0.287 OA
ATOM     11  C   UNL     1      -4.672   3.873  24.732  0.00  0.00    +0.042 A 
ATOM     12  C   UNL     1      -3.898   3.823  24.450  0.00  0.00    -0.001 A 
ENDBRANCH   5   6
ENDBRANCH   4   5
ENDBRANCH  13   4
ENDBRANCH  16  14
TORSDOF 7
ENDMDL
MODEL 5
REMARK VINA RESULT:     -10.4      2.177      3.064
REMARK  Name = 
REMARK  7 active torsions:
REMARK  status: ('A' for Active; 'I' for Inactive)
REMARK    1  A    between atoms: C_2  and  C_4
REMARK    2  A    between atoms: C_4  and  C_5
REMARK    3  A    between atoms: C_4  and  N_13
REMARK    4  A    between atoms: C_5  and  C_6
REMARK    5  A    between atoms: C_14  and  C_16
REMARK    6  A    between atoms: C_23  and  N_25
REMARK    7  A    between atoms: N_28  and  C_29
REMARK                            x       y       z     vdW  Elec       q    Type
REMARK                         _______ _______ _______ _____ _____    ______ ____
ROOT
ATOM     16  C   UNL     1      -3.762   1.403  25.209  0.00  0.00    +0.200 C 
ATOM     17  O   UNL     1      -3.011   1.566  25.512  0.00  0.00    -0.216 OA
ATOM     18  C   UNL     1      -4.528   1.525  24.929  0.00  0.00    +0.075 C 
ATOM     19  C   UNL     1      -4.987   0.883  24.691  0.00  0.00    +0.187 C 
ATOM     20  O   UNL     1      -5.753   1.005  24.410  0.00  0.00    -0.220 OA
ATOM     21  C   UNL     1      -4.680   0.117  24.732  0.00  0.00    +0.202 C 
ATOM     22  O   UNL     1      -5.139  -0.524  24.493  0.00  0.00    -0.219 OA
ATOM     23  C   UNL     1      -3.913  -0.004  25.012  0.00  0.00    +0.133 C 
ATOM     24  C   UNL     1      -3.455   0.638  25.251  0.00  0.00    +0.064 C 
ENDROOT
BRANCH  23  25
ATOM     25  N   UNL     1      -3.607  -0.769  25.054  0.00  0.00    -0.186 NA
ATOM     26  C   UNL     1      -3.559  -1.155  25.782  0.00  0.00    +0.344 C 
ATOM     27  O   UNL     1      -3.818  -0.776  26.467  0.00  0.00    -0.249 OA
ATOM     28  N   UNL     1      -3.253  -1.920  25.823  0.00  0.00    -0.161 NA
BRANCH  28  29
ATOM     29  C   UNL     1      -2.994  -2.298  25.138  0.00  0.00    +0.077 A 
ATOM     30  C   UNL     1      -3.506  -2.793  24.721  0.00  0.00    +0.017 A 
ATOM     31  C   UNL     1      -3.248  -3.172  24.035  0.00  0.00    +0.004 A 
ATOM     32  C   UNL     1      -2.477  -3.057  23.766  0.00  0.00    +0.030 A 
ATOM     33  C   UNL     1      -1.963  -2.562  24.183  0.00  0.00    +0.141 A 
ATOM     34  F   UNL     1      -1.192  -2.446  23.914  0.00  0.00    -0.204 F 
ATOM     35  C   UNL     1      -2.222  -2.183  24.868  0.00  0.00    +0.046 A 
ENDBRANCH  28  29
ENDBRANCH  23  25
BRANCH  16  14
ATOM     13  N   UNL     1      -3.310   2.702  24.822  0.00  0.00    -0.195 NA
ATOM     14  C   UNL     1      -3.808   2.224  25.273  0.00  0.00    +0.269 C 
ATOM     15  O   UNL     1      -4.353   2.567  25.789  0.00  0.00    -0.271 OA
BRANCH  13   4
ATOM      4  C   UNL     1      -3.356   3.523  24.886  0.00  0.00    +0.179 C 
BRANCH   4   2
ATOM      1  N   UNL     1      -4.412   4.465  24.679  0.00  0.00    -0.086 NA
ATOM      2  C   UNL     1      -3.843   3.949  24.374  0.00  0.00    +0.281 C 
ATOM      3  O   UNL     1      -3.763   3.861  23.558  0.00  0.00    -0.270 OA
ENDBRANCH   4   2
BRANCH   4   5
ATOM      5  C   UNL     1      -2.915   3.918  25.460  0.00  0.00    +0.057 C 
BRANCH   5   6
ATOM      6  C   UNL     1      -2.186   4.251  25.265  0.00  0.00    -0.020 A 
ATOM      7  C   UNL     1      -1.542   3.766  25.095  0.00  0.00    -0.001 A 
ATOM      8  C   UNL     1      -0.813   4.099  24.900  0.00  0.00    +0.042 A 
ATOM      9  C   UNL     1      -0.729   4.919  24.874  0.00  0.00    +0.196 A 
ATOM     10  O   UNL     1      -0.000   5.254  24.680  0.00  0.00    -0.287 OA
ATOM     11  C   UNL     1      -1.374   5.406  25.044  0.00  0.00    +0.042 A 
ATOM     12  C   UNL     1      -2.102   5.072  25.239  0.00  0.00    -0.001 A 
ENDBRANCH   5   6
ENDBRANCH   4   5
ENDBRANCH  13   4
ENDBRANCH  16  14
TORSDOF 7
ENDMDL
MODEL 6
REMARK VINA RESULT:     -10.4      2.416      6.156
REMARK  Name = 
REMARK  7 active torsions:
REMARK  status: ('A' for Active; 'I' for Inactive)
REMARK    1  A    between atoms: C_2  and  C_4
REMARK    2  A    between atoms: C_4  and  C_5
REMARK    3  A    between atoms: C_4  and  N_13
REMARK    4  A    between atoms: C_5  and  C_6
REMARK    5  A    between atoms: C_14  and  C_16
REMARK    6  A    between atoms: C_23  and  N_25
REMARK    7  A    between atoms: N_28  and  C_29
REMARK                            x       y       z     vdW  Elec       q    Type
REMARK                         _______ _______ _______ _____ _____    ______ ____
ROOT
ATOM     16  C   UNL     1      -3.576   1.383  25.005  0.00  0.00    +0.200 C 
ATOM     17  O   UNL     1      -2.972   0.992  25.409  0.00  0.00    -0.216 OA
ATOM     18  C   UNL     1      -4.273   1.504  24.580  0.00  0.00    +0.075 C 
ATOM     19  C   UNL     1      -4.492   2.266  24.355  0.00  0.00    +0.187 C 
ATOM     20  O   UNL     1      -5.188   2.386  23.930  0.00  0.00    -0.220 OA
ATOM     21  C   UNL     1      -4.014   2.909  24.554  0.00  0.00    +0.202 C 
ATOM     22  O   UNL     1      -4.234   3.671  24.329  0.00  0.00    -0.219 OA
ATOM     23  C   UNL     1      -3.317   2.788  24.979  0.00  0.00    +0.133 C 
ATOM     24  C   UNL     1      -3.098   2.025  25.204  0.00  0.00    +0.064 C 
ENDROOT
BRANCH  23  25
ATOM     25  N   UNL     1      -2.839   3.431  25.178  0.00  0.00    -0.186 NA
ATOM     26  C   UNL     1      -2.944   3.812  25.902  0.00  0.00    +0.344 C 
ATOM     27  O   UNL     1      -3.525   3.551  26.426  0.00  0.00    -0.249 OA
ATOM     28  N   UNL     1      -2.466   4.455  26.102  0.00  0.00    -0.161 NA
BRANCH  28  29
ATOM     29  C   UNL     1      -1.885   4.716  25.578  0.00  0.00    +0.077 A 
ATOM     30  C   UNL     1      -1.983   5.430  25.176  0.00  0.00    +0.017 A 
ATOM     31  C   UNL     1      -1.402   5.691  24.652  0.00  0.00    +0.004 A 
ATOM     32  C   UNL     1      -0.723   5.239  24.530  0.00  0.00    +0.030 A 
ATOM     33  C   UNL     1      -0.625   4.524  24.932  0.00  0.00    +0.141 A 
ATOM     34  F   UNL     1       0.053   4.071  24.810  0.00  0.00    -0.204 F 
ATOM     35  C   UNL     1      -1.206   4.263  25.455  0.00  0.00    +0.046 A 
ENDBRANCH  28  29
ENDBRANCH  23  25
BRANCH  16  14
ATOM     13  N   UNL     1      -3.391   0.041  24.550  0.00  0.00    -0.195 NA
ATOM     14  C   UNL     1      -3.844   0.605  24.946  0.00  0.00    +0.269 C 
ATOM     15  O   UNL     1      -4.565   0.391  25.284  0.00  0.00    -0.271 OA
BRANCH  13   4
ATOM      4  C   UNL     1      -3.658  -0.737  24.492  0.00  0.00    +0.179 C 
BRANCH   4   2
ATOM      1  N   UNL     1      -4.835  -1.376  23.993  0.00  0.00    -0.086 NA
ATOM      2  C   UNL     1      -4.134  -0.962  23.857  0.00  0.00    +0.281 C 
ATOM      3  O   UNL     1      -3.911  -0.774  23.085  0.00  0.00    -0.270 OA
ENDBRANCH   4   2
BRANCH   4   5
ATOM      5  C   UNL     1      -3.450  -1.290  25.067  0.00  0.00    +0.057 C 
BRANCH   5   6
ATOM      6  C   UNL     1      -2.737  -1.701  25.006  0.00  0.00    -0.020 A 
ATOM      7  C   UNL     1      -2.703  -2.410  24.586  0.00  0.00    -0.001 A 
ATOM      8  C   UNL     1      -1.991  -2.821  24.526  0.00  0.00    +0.042 A 
ATOM      9  C   UNL     1      -1.311  -2.522  24.886  0.00  0.00    +0.196 A 
ATOM     10  O   UNL     1      -0.598  -2.932  24.826  0.00  0.00    -0.287 OA
ATOM     11  C   UNL     1      -1.344  -1.812  25.306  0.00  0.00    +0.042 A 
ATOM     12  C   UNL     1      -2.057  -1.402  25.366  0.00  0.00    -0.001 A 
ENDBRANCH   5   6
ENDBRANCH   4   5
ENDBRANCH  13   4
ENDBRANCH  16  14
TORSDOF 7
ENDMDL
MODEL 7
REMARK VINA RESULT:      -9.7      2.847      4.345
REMARK  Name = 
REMARK  7 active torsions:
REMARK  status: ('A' for Active; 'I' for Inactive)
REMARK    1  A    between atoms: C_2  and  C_4
REMARK    2  A    between atoms: C_4  and  C_5
REMARK    3  A    between atoms: C_4  and  N_13
REMARK    4  A    between atoms: C_5  and  C_6
REMARK    5  A    between atoms: C_14  and  C_16
REMARK    6  A    between atoms: C_23  and  N_25
REMARK    7  A    between atoms: N_28  and  C_29
REMARK                            x       y       z     vdW  Elec       q    Type
REMARK                         _______ _______ _______ _____ _____    ______ ____
ROOT
ATOM     16  C   UNL     1      -1.418   2.509  24.449  0.00  0.00    +0.200 C 
ATOM     17  O   UNL     1      -2.029   2.273  23.946  0.00  0.00    -0.216 OA
ATOM     18  C   UNL     1      -1.006   2.943  25.016  0.00  0.00    +0.075 C 
ATOM     19  C   UNL     1      -0.238   2.726  25.223  0.00  0.00    +0.187 C 
ATOM     20  O   UNL     1       0.175   3.160  25.790  0.00  0.00    -0.220 OA
ATOM     21  C   UNL     1       0.119   2.075  24.862  0.00  0.00    +0.202 C 
ATOM     22  O   UNL     1       0.887   1.858  25.070  0.00  0.00    -0.219 OA
ATOM     23  C   UNL     1      -0.294   1.641  24.295  0.00  0.00    +0.133 C 
ATOM     24  C   UNL     1      -1.063   1.858  24.089  0.00  0.00    +0.064 C 
ENDROOT
BRANCH  23  25
ATOM     25  N   UNL     1       0.062   0.990  23.935  0.00  0.00    -0.186 NA
ATOM     26  C   UNL     1      -0.132   0.226  24.180  0.00  0.00    +0.344 C 
ATOM     27  O   UNL     1      -0.681   0.114  24.785  0.00  0.00    -0.249 OA
ATOM     28  N   UNL     1       0.224  -0.425  23.820  0.00  0.00    -0.161 NA
BRANCH  28  29
ATOM     29  C   UNL     1       0.774  -0.313  23.215  0.00  0.00    +0.077 A 
ATOM     30  C   UNL     1       0.523  -0.284  22.430  0.00  0.00    +0.017 A 
ATOM     31  C   UNL     1       1.072  -0.172  21.824  0.00  0.00    +0.004 A 
ATOM     32  C   UNL     1       1.873  -0.089  22.005  0.00  0.00    +0.030 A 
ATOM     33  C   UNL     1       2.124  -0.117  22.790  0.00  0.00    +0.141 A 
ATOM     34  F   UNL     1       2.925  -0.034  22.971  0.00  0.00    -0.204 F 
ATOM     35  C   UNL     1       1.575  -0.229  23.395  0.00  0.00    +0.046 A 
ENDBRANCH  28  29
ENDBRANCH  23  25
BRANCH  16  14
ATOM     13  N   UNL     1      -2.629   2.880  25.112  0.00  0.00    -0.195 NA
ATOM     14  C   UNL     1      -1.986   3.078  24.635  0.00  0.00    +0.269 C 
ATOM     15  O   UNL     1      -1.912   3.846  24.342  0.00  0.00    -0.271 OA
BRANCH  13   4
ATOM      4  C   UNL     1      -3.197   3.449  25.298  0.00  0.00    +0.179 C 
BRANCH   4   2
ATOM      1  N   UNL     1      -3.105   4.756  25.870  0.00  0.00    -0.086 NA
ATOM      2  C   UNL     1      -3.093   3.935  25.956  0.00  0.00    +0.281 C 
ATOM      3  O   UNL     1      -2.978   3.601  26.702  0.00  0.00    -0.270 OA
ENDBRANCH   4   2
BRANCH   4   5
ATOM      5  C   UNL     1      -3.868   3.532  24.826  0.00  0.00    +0.057 C 
BRANCH   5   6
ATOM      6  C   UNL     1      -4.534   3.066  24.969  0.00  0.00    -0.020 A 
ATOM      7  C   UNL     1      -5.053   3.264  25.577  0.00  0.00    -0.001 A 
ATOM      8  C   UNL     1      -5.719   2.798  25.720  0.00  0.00    +0.042 A 
ATOM      9  C   UNL     1      -5.865   2.134  25.253  0.00  0.00    +0.196 A 
ATOM     10  O   UNL     1      -6.530   1.667  25.394  0.00  0.00    -0.287 OA
ATOM     11  C   UNL     1      -5.345   1.935  24.643  0.00  0.00    +0.042 A 
ATOM     12  C   UNL     1      -4.680   2.402  24.501  0.00  0.00    -0.001 A 
ENDBRANCH   5   6
ENDBRANCH   4   5
ENDBRANCH  13   4
ENDBRANCH  16  14
TORSDOF 7
ENDMDL
