REMARK  Name = 
REMARK  4 active torsions:
REMARK  status: ('A' for Active; 'I' for Inactive)
REMARK    1  A    between atoms: N_2  and  C_4
REMARK    2  A    between atoms: C_7  and  C_8
REMARK    3  A    between atoms: C_8  and  N_9
REMARK    4  A    between atoms: C_10  and  C_12
REMARK                            x       y       z     vdW  Elec       q    Type
REMARK                         _______ _______ _______ _____ _____    ______ ____
ROOT
ATOM      4  C   UNL     1       0.640   6.320   0.000  0.00  0.00    +0.121 C 
ATOM      5  C   UNL     1       1.052   7.035   0.000  0.00  0.00    +0.161 C 
ATOM      6  O   UNL     1       1.859   6.863   0.000  0.00  0.00    -0.350 OA
ATOM      7  C   UNL     1       1.945   6.043   0.000  0.00  0.00    +0.168 C 
ATOM     15  C   UNL     1       1.192   5.707   0.000  0.00  0.00    +0.198 C 
ATOM     16  O   UNL     1       1.020   4.900   0.000  0.00  0.00    -0.219 OA
ENDROOT
BRANCH   4   2
ATOM      1  C   UNL     1      -0.666   6.901   0.000  0.00  0.00    +0.090 C 
ATOM      2  N   UNL     1      -0.181   6.234   0.000  0.00  0.00    -0.267 NA
ATOM      3  C   UNL     1      -0.516   5.480   0.000  0.00  0.00    +0.090 C 
ENDBRANCH   4   2
BRANCH   7   8
ATOM      8  C   UNL     1       2.660   5.630   0.000  0.00  0.00    +0.147 C 
BRANCH   8   9
ATOM      9  N   UNL     1       2.660   4.805   0.000  0.00  0.00    -0.203 NA
ATOM     10  C   UNL     1       3.374   4.393   0.000  0.00  0.00    +0.241 C 
ATOM     11  O   UNL     1       4.089   4.805   0.000  0.00  0.00    -0.273 OA
BRANCH  10  12
ATOM     12  C   UNL     1       3.374   3.568   0.000  0.00  0.00    +0.078 C 
ATOM     13  C   UNL     1       3.787   2.853   0.000  0.00  0.00    +0.010 C 
ATOM     14  C   UNL     1       2.962   2.853   0.000  0.00  0.00    +0.010 C 
ENDBRANCH  10  12
ENDBRANCH   8   9
ENDBRANCH   7   8
TORSDOF 4
