MODEL 1
REMARK VINA RESULT:      -8.6      0.000      0.000
REMARK  Name = 
REMARK  6 active torsions:
REMARK  status: ('A' for Active; 'I' for Inactive)
REMARK    1  A    between atoms: C_2  and  N_4
REMARK    2  A    between atoms: N_7  and  C_8
REMARK    3  A    between atoms: C_8  and  C_9
REMARK    4  A    between atoms: C_12  and  N_13
REMARK    5  A    between atoms: N_13  and  C_14
REMARK    6  A    between atoms: C_14  and  C_15
REMARK                            x       y       z     vdW  Elec       q    Type
REMARK                         _______ _______ _______ _____ _____    ______ ____
ROOT
ATOM      9  C   UNL     1      -3.666   1.990  24.541  0.00  0.00    +0.169 C 
ATOM     10  O   UNL     1      -4.246   1.813  25.102  0.00  0.00    -0.350 OA
ATOM     11  C   UNL     1      -4.416   1.007  25.048  0.00  0.00    +0.162 C 
ATOM     12  C   UNL     1      -3.942   0.686  24.455  0.00  0.00    +0.135 C 
ATOM     21  C   UNL     1      -3.478   1.293  24.142  0.00  0.00    +0.199 C 
ATOM     22  O   UNL     1      -2.925   1.215  23.535  0.00  0.00    -0.219 OA
ENDROOT
BRANCH   9   8
ATOM      8  C   UNL     1      -3.333   2.731  24.405  0.00  0.00    +0.149 C 
BRANCH   8   7
ATOM      4  N   UNL     1      -1.944   4.114  25.364  0.00  0.00    -0.189 NA
ATOM      5  C   UNL     1      -2.445   3.778  24.802  0.00  0.00    +0.339 C 
ATOM      6  O   UNL     1      -2.559   4.151  24.076  0.00  0.00    -0.249 OA
ATOM      7  N   UNL     1      -2.832   3.068  24.967  0.00  0.00    -0.185 NA
BRANCH   4   2
ATOM      1  C   UNL     1      -1.950   5.542  25.297  0.00  0.00    +0.023 C 
ATOM      2  C   UNL     1      -1.556   4.824  25.200  0.00  0.00    +0.097 C 
ATOM      3  C   UNL     1      -0.774   4.816  24.937  0.00  0.00    +0.023 C 
ENDBRANCH   4   2
ENDBRANCH   8   7
ENDBRANCH   9   8
BRANCH  12  13
ATOM     13  N   UNL     1      -3.933  -0.104  24.216  0.00  0.00    -0.209 NA
BRANCH  13  14
ATOM     14  C   UNL     1      -4.144  -0.698  24.748  0.00  0.00    +0.117 C 
BRANCH  14  15
ATOM     15  C   UNL     1      -3.982  -1.487  24.571  0.00  0.00    +0.014 A 
ATOM     16  C   UNL     1      -3.494  -1.930  25.067  0.00  0.00    +0.000 A 
ATOM     17  C   UNL     1      -3.331  -2.718  24.890  0.00  0.00    +0.020 A 
ATOM     18  C   UNL     1      -3.657  -3.066  24.216  0.00  0.00    +0.099 A 
ATOM     19  N   UNL     1      -4.145  -2.623  23.719  0.00  0.00    -0.243 NA
ATOM     20  C   UNL     1      -4.307  -1.834  23.896  0.00  0.00    +0.096 A 
ENDBRANCH  14  15
ENDBRANCH  13  14
ENDBRANCH  12  13
TORSDOF 6
ENDMDL
MODEL 2
REMARK VINA RESULT:      -8.2      1.070      1.264
REMARK  Name = 
REMARK  6 active torsions:
REMARK  status: ('A' for Active; 'I' for Inactive)
REMARK    1  A    between atoms: C_2  and  N_4
REMARK    2  A    between atoms: N_7  and  C_8
REMARK    3  A    between atoms: C_8  and  C_9
REMARK    4  A    between atoms: C_12  and  N_13
REMARK    5  A    between atoms: N_13  and  C_14
REMARK    6  A    between atoms: C_14  and  C_15
REMARK                            x       y       z     vdW  Elec       q    Type
REMARK                         _______ _______ _______ _____ _____    ______ ____
ROOT
ATOM      9  C   UNL     1      -2.494   1.695  25.021  0.00  0.00    +0.169 C 
ATOM     10  O   UNL     1      -3.302   1.743  24.859  0.00  0.00    -0.350 OA
ATOM     11  C   UNL     1      -3.581   0.980  24.719  0.00  0.00    +0.162 C 
ATOM     12  C   UNL     1      -2.947   0.459  24.794  0.00  0.00    +0.135 C 
ATOM     21  C   UNL     1      -2.275   0.900  24.980  0.00  0.00    +0.199 C 
ATOM     22  O   UNL     1      -1.517   0.599  25.104  0.00  0.00    -0.219 OA
ENDROOT
BRANCH   9   8
ATOM      8  C   UNL     1      -1.995   2.328  25.192  0.00  0.00    +0.149 C 
BRANCH   8   7
ATOM      4  N   UNL     1      -1.762   4.425  24.638  0.00  0.00    -0.189 NA
ATOM      5  C   UNL     1      -1.682   3.714  25.047  0.00  0.00    +0.339 C 
ATOM      6  O   UNL     1      -1.209   3.678  25.722  0.00  0.00    -0.249 OA
ATOM      7  N   UNL     1      -2.075   3.039  24.782  0.00  0.00    -0.185 NA
BRANCH   4   2
ATOM      1  C   UNL     1      -0.561   5.189  24.766  0.00  0.00    +0.023 C 
ATOM      2  C   UNL     1      -1.369   5.101  24.902  0.00  0.00    +0.097 C 
ATOM      3  C   UNL     1      -1.786   5.689  25.303  0.00  0.00    +0.023 C 
ENDBRANCH   4   2
ENDBRANCH   8   7
ENDBRANCH   9   8
BRANCH  12  13
ATOM     13  N   UNL     1      -2.978  -0.361  24.699  0.00  0.00    -0.209 NA
BRANCH  13  14
ATOM     14  C   UNL     1      -3.696  -0.758  24.782  0.00  0.00    +0.117 C 
BRANCH  14  15
ATOM     15  C   UNL     1      -3.742  -1.565  24.617  0.00  0.00    +0.014 A 
ATOM     16  C   UNL     1      -4.102  -1.823  23.921  0.00  0.00    +0.000 A 
ATOM     17  C   UNL     1      -4.149  -2.630  23.756  0.00  0.00    +0.020 A 
ATOM     18  C   UNL     1      -3.835  -3.179  24.286  0.00  0.00    +0.099 A 
ATOM     19  N   UNL     1      -3.475  -2.920  24.982  0.00  0.00    -0.243 NA
ATOM     20  C   UNL     1      -3.428  -2.114  25.147  0.00  0.00    +0.096 A 
ENDBRANCH  14  15
ENDBRANCH  13  14
ENDBRANCH  12  13
TORSDOF 6
ENDMDL
MODEL 3
REMARK VINA RESULT:      -8.1      1.799      5.853
REMARK  Name = 
REMARK  6 active torsions:
REMARK  status: ('A' for Active; 'I' for Inactive)
REMARK    1  A    between atoms: C_2  and  N_4
REMARK    2  A    between atoms: N_7  and  C_8
REMARK    3  A    between atoms: C_8  and  C_9
REMARK    4  A    between atoms: C_12  and  N_13
REMARK    5  A    between atoms: N_13  and  C_14
REMARK    6  A    between atoms: C_14  and  C_15
REMARK                            x       y       z     vdW  Elec       q    Type
REMARK                         _______ _______ _______ _____ _____    ______ ____
ROOT
ATOM      9  C   UNL     1      -1.442   0.349  24.918  0.00  0.00    +0.169 C 
ATOM     10  O   UNL     1      -1.116   0.465  25.668  0.00  0.00    -0.350 OA
ATOM     11  C   UNL     1      -0.930   1.266  25.744  0.00  0.00    +0.162 C 
ATOM     12  C   UNL     1      -1.140   1.644  25.042  0.00  0.00    +0.135 C 
ATOM     21  C   UNL     1      -1.457   1.079  24.532  0.00  0.00    +0.199 C 
ATOM     22  O   UNL     1      -1.739   1.218  23.769  0.00  0.00    -0.219 OA
ENDROOT
BRANCH   9   8
ATOM      8  C   UNL     1      -1.706  -0.368  24.610  0.00  0.00    +0.149 C 
BRANCH   8   7
ATOM      4  N   UNL     1      -3.356  -1.771  24.877  0.00  0.00    -0.189 NA
ATOM      5  C   UNL     1      -2.659  -1.433  24.596  0.00  0.00    +0.339 C 
ATOM      6  O   UNL     1      -2.215  -1.822  24.019  0.00  0.00    -0.249 OA
ATOM      7  N   UNL     1      -2.403  -0.706  24.891  0.00  0.00    -0.185 NA
BRANCH   4   2
ATOM      1  C   UNL     1      -4.141  -2.525  23.951  0.00  0.00    +0.023 C 
ATOM      2  C   UNL     1      -3.611  -2.499  24.582  0.00  0.00    +0.097 C 
ATOM      3  C   UNL     1      -3.335  -3.199  24.918  0.00  0.00    +0.023 C 
ENDBRANCH   4   2
ENDBRANCH   8   7
ENDBRANCH   9   8
BRANCH  12  13
ATOM     13  N   UNL     1      -1.050   2.448  24.880  0.00  0.00    -0.209 NA
BRANCH  13  14
ATOM     14  C   UNL     1      -1.086   3.000  25.492  0.00  0.00    +0.117 C 
BRANCH  14  15
ATOM     15  C   UNL     1      -1.163   3.803  25.320  0.00  0.00    +0.014 A 
ATOM     16  C   UNL     1      -1.857   4.202  25.517  0.00  0.00    +0.000 A 
ATOM     17  C   UNL     1      -1.935   5.005  25.345  0.00  0.00    +0.020 A 
ATOM     18  C   UNL     1      -1.317   5.409  24.976  0.00  0.00    +0.099 A 
ATOM     19  N   UNL     1      -0.623   5.010  24.779  0.00  0.00    -0.243 NA
ATOM     20  C   UNL     1      -0.546   4.207  24.951  0.00  0.00    +0.096 A 
ENDBRANCH  14  15
ENDBRANCH  13  14
ENDBRANCH  12  13
TORSDOF 6
ENDMDL
MODEL 4
REMARK VINA RESULT:      -7.3      3.194      4.561
REMARK  Name = 
REMARK  6 active torsions:
REMARK  status: ('A' for Active; 'I' for Inactive)
REMARK    1  A    between atoms: C_2  and  N_4
REMARK    2  A    between atoms: N_7  and  C_8
REMARK    3  A    between atoms: C_8  and  C_9
REMARK    4  A    between atoms: C_12  and  N_13
REMARK    5  A    between atoms: N_13  and  C_14
REMARK    6  A    between atoms: C_14  and  C_15
REMARK                            x       y       z     vdW  Elec       q    Type
REMARK                         _______ _______ _______ _____ _____    ______ ____
ROOT
ATOM      9  C   UNL     1      -1.392   0.983  23.946  0.00  0.00    +0.169 C 
ATOM     10  O   UNL     1      -1.608   1.570  23.407  0.00  0.00    -0.350 OA
ATOM     11  C   UNL     1      -2.335   1.879  23.645  0.00  0.00    +0.162 C 
ATOM     12  C   UNL     1      -2.568   1.484  24.330  0.00  0.00    +0.135 C 
ATOM     21  C   UNL     1      -1.986   0.931  24.516  0.00  0.00    +0.199 C 
ATOM     22  O   UNL     1      -1.995   0.415  25.160  0.00  0.00    -0.219 OA
ENDROOT
BRANCH   9   8
ATOM      8  C   UNL     1      -0.704   0.530  23.919  0.00  0.00    +0.149 C 
BRANCH   8   7
ATOM      4  N   UNL     1       1.196   0.541  22.844  0.00  0.00    -0.189 NA
ATOM      5  C   UNL     1       0.541   0.271  23.266  0.00  0.00    +0.339 C 
ATOM      6  O   UNL     1       0.474  -0.529  23.455  0.00  0.00    -0.249 OA
ATOM      7  N   UNL     1      -0.048   0.800  23.497  0.00  0.00    -0.185 NA
BRANCH   4   2
ATOM      1  C   UNL     1       2.481  -0.049  23.050  0.00  0.00    +0.023 C 
ATOM      2  C   UNL     1       1.785   0.012  22.613  0.00  0.00    +0.097 C 
ATOM      3  C   UNL     1       1.677  -0.457  21.942  0.00  0.00    +0.023 C 
ENDBRANCH   4   2
ENDBRANCH   8   7
ENDBRANCH   9   8
BRANCH  12  13
ATOM     13  N   UNL     1      -3.263   1.619  24.755  0.00  0.00    -0.209 NA
BRANCH  13  14
ATOM     14  C   UNL     1      -3.832   2.139  24.462  0.00  0.00    +0.117 C 
BRANCH  14  15
ATOM     15  C   UNL     1      -4.516   2.291  24.897  0.00  0.00    +0.014 A 
ATOM     16  C   UNL     1      -5.155   1.771  24.855  0.00  0.00    +0.000 A 
ATOM     17  C   UNL     1      -5.839   1.922  25.290  0.00  0.00    +0.020 A 
ATOM     18  C   UNL     1      -5.885   2.594  25.767  0.00  0.00    +0.099 A 
ATOM     19  N   UNL     1      -5.246   3.114  25.808  0.00  0.00    -0.243 NA
ATOM     20  C   UNL     1      -4.562   2.963  25.374  0.00  0.00    +0.096 A 
ENDBRANCH  14  15
ENDBRANCH  13  14
ENDBRANCH  12  13
TORSDOF 6
ENDMDL
MODEL 5
REMARK VINA RESULT:      -6.0     18.211     19.796
REMARK  Name = 
REMARK  6 active torsions:
REMARK  status: ('A' for Active; 'I' for Inactive)
REMARK    1  A    between atoms: C_2  and  N_4
REMARK    2  A    between atoms: N_7  and  C_8
REMARK    3  A    between atoms: C_8  and  C_9
REMARK    4  A    between atoms: C_12  and  N_13
REMARK    5  A    between atoms: N_13  and  C_14
REMARK    6  A    between atoms: C_14  and  C_15
REMARK                            x       y       z     vdW  Elec       q    Type
REMARK                         _______ _______ _______ _____ _____    ______ ____
ROOT
ATOM      9  C   UNL     1      14.358   7.894  18.929  0.00  0.00    +0.169 C 
ATOM     10  O   UNL     1      13.694   7.999  19.408  0.00  0.00    -0.350 OA
ATOM     11  C   UNL     1      13.056   8.193  18.921  0.00  0.00    +0.162 C 
ATOM     12  C   UNL     1      13.326   8.208  18.142  0.00  0.00    +0.135 C 
ATOM     21  C   UNL     1      14.130   8.023  18.147  0.00  0.00    +0.199 C 
ATOM     22  O   UNL     1      14.620   7.976  17.485  0.00  0.00    -0.219 OA
ENDROOT
BRANCH   9   8
ATOM      8  C   UNL     1      15.115   7.695  19.187  0.00  0.00    +0.149 C 
BRANCH   8   7
ATOM      4  N   UNL     1      16.142   7.169  21.040  0.00  0.00    -0.189 NA
ATOM      5  C   UNL     1      16.009   7.338  20.244  0.00  0.00    +0.339 C 
ATOM      6  O   UNL     1      16.635   7.318  19.707  0.00  0.00    -0.249 OA
ATOM      7  N   UNL     1      15.249   7.527  19.983  0.00  0.00    -0.185 NA
BRANCH   4   2
ATOM      1  C   UNL     1      17.165   6.200  21.277  0.00  0.00    +0.023 C 
ATOM      2  C   UNL     1      16.902   6.981  21.300  0.00  0.00    +0.097 C 
ATOM      3  C   UNL     1      17.399   7.574  21.585  0.00  0.00    +0.023 C 
ENDBRANCH   4   2
ENDBRANCH   8   7
ENDBRANCH   9   8
BRANCH  12  13
ATOM     13  N   UNL     1      12.871   8.378  17.475  0.00  0.00    -0.209 NA
BRANCH  13  14
ATOM     14  C   UNL     1      12.130   8.730  17.560  0.00  0.00    +0.117 C 
BRANCH  14  15
ATOM     15  C   UNL     1      11.618   8.776  16.914  0.00  0.00    +0.014 A 
ATOM     16  C   UNL     1      10.830   8.549  16.996  0.00  0.00    +0.000 A 
ATOM     17  C   UNL     1      10.318   8.595  16.350  0.00  0.00    +0.020 A 
ATOM     18  C   UNL     1      10.596   8.867  15.622  0.00  0.00    +0.099 A 
ATOM     19  N   UNL     1      11.385   9.094  15.541  0.00  0.00    -0.243 NA
ATOM     20  C   UNL     1      11.896   9.048  16.186  0.00  0.00    +0.096 A 
ENDBRANCH  14  15
ENDBRANCH  13  14
ENDBRANCH  12  13
TORSDOF 6
ENDMDL
MODEL 6
REMARK VINA RESULT:      -5.9     16.123     18.841
REMARK  Name = 
REMARK  6 active torsions:
REMARK  status: ('A' for Active; 'I' for Inactive)
REMARK    1  A    between atoms: C_2  and  N_4
REMARK    2  A    between atoms: N_7  and  C_8
REMARK    3  A    between atoms: C_8  and  C_9
REMARK    4  A    between atoms: C_12  and  N_13
REMARK    5  A    between atoms: N_13  and  C_14
REMARK    6  A    between atoms: C_14  and  C_15
REMARK                            x       y       z     vdW  Elec       q    Type
REMARK                         _______ _______ _______ _____ _____    ______ ____
ROOT
ATOM      9  C   UNL     1      13.829   7.483  19.381  0.00  0.00    +0.169 C 
ATOM     10  O   UNL     1      13.227   7.014  19.066  0.00  0.00    -0.350 OA
ATOM     11  C   UNL     1      12.516   7.245  19.415  0.00  0.00    +0.162 C 
ATOM     12  C   UNL     1      12.678   7.855  19.945  0.00  0.00    +0.135 C 
ATOM     21  C   UNL     1      13.489   8.002  19.924  0.00  0.00    +0.199 C 
ATOM     22  O   UNL     1      13.890   8.570  20.369  0.00  0.00    -0.219 OA
ENDROOT
BRANCH   9   8
ATOM      8  C   UNL     1      14.629   7.439  19.186  0.00  0.00    +0.149 C 
BRANCH   8   7
ATOM      4  N   UNL     1      16.172   5.905  19.013  0.00  0.00    -0.189 NA
ATOM      5  C   UNL     1      15.811   6.640  19.116  0.00  0.00    +0.339 C 
ATOM      6  O   UNL     1      16.273   7.310  19.250  0.00  0.00    -0.249 OA
ATOM      7  N   UNL     1      14.989   6.705  19.084  0.00  0.00    -0.185 NA
BRANCH   4   2
ATOM      1  C   UNL     1      17.404   6.105  19.709  0.00  0.00    +0.023 C 
ATOM      2  C   UNL     1      16.994   5.840  19.045  0.00  0.00    +0.097 C 
ATOM      3  C   UNL     1      17.405   5.508  18.411  0.00  0.00    +0.023 C 
ENDBRANCH   4   2
ENDBRANCH   8   7
ENDBRANCH   9   8
BRANCH  12  13
ATOM     13  N   UNL     1      12.125   8.249  20.414  0.00  0.00    -0.209 NA
BRANCH  13  14
ATOM     14  C   UNL     1      11.415   7.880  20.614  0.00  0.00    +0.117 C 
BRANCH  14  15
ATOM     15  C   UNL     1      11.015   8.099  21.301  0.00  0.00    +0.014 A 
ATOM     16  C   UNL     1      10.888   7.546  21.899  0.00  0.00    +0.000 A 
ATOM     17  C   UNL     1      10.488   7.765  22.586  0.00  0.00    +0.020 A 
ATOM     18  C   UNL     1      10.214   8.539  22.675  0.00  0.00    +0.099 A 
ATOM     19  N   UNL     1      10.341   9.092  22.076  0.00  0.00    -0.243 NA
ATOM     20  C   UNL     1      10.741   8.873  21.390  0.00  0.00    +0.096 A 
ENDBRANCH  14  15
ENDBRANCH  13  14
ENDBRANCH  12  13
TORSDOF 6
ENDMDL
MODEL 7
REMARK VINA RESULT:      -5.3     15.733     18.527
REMARK  Name = 
REMARK  6 active torsions:
REMARK  status: ('A' for Active; 'I' for Inactive)
REMARK    1  A    between atoms: C_2  and  N_4
REMARK    2  A    between atoms: N_7  and  C_8
REMARK    3  A    between atoms: C_8  and  C_9
REMARK    4  A    between atoms: C_12  and  N_13
REMARK    5  A    between atoms: N_13  and  C_14
REMARK    6  A    between atoms: C_14  and  C_15
REMARK                            x       y       z     vdW  Elec       q    Type
REMARK                         _______ _______ _______ _____ _____    ______ ____
ROOT
ATOM      9  C   UNL     1      13.357   7.627  18.699  0.00  0.00    +0.169 C 
ATOM     10  O   UNL     1      13.862   7.747  19.341  0.00  0.00    -0.350 OA
ATOM     11  C   UNL     1      13.414   7.694  20.032  0.00  0.00    +0.162 C 
ATOM     12  C   UNL     1      12.633   7.540  19.818  0.00  0.00    +0.135 C 
ATOM     21  C   UNL     1      12.597   7.499  18.995  0.00  0.00    +0.199 C 
ATOM     22  O   UNL     1      11.920   7.355  18.546  0.00  0.00    -0.219 OA
ENDROOT
BRANCH   9   8
ATOM      8  C   UNL     1      13.574   7.633  17.904  0.00  0.00    +0.149 C 
BRANCH   8   7
ATOM      4  N   UNL     1      14.091   9.072  16.347  0.00  0.00    -0.189 NA
ATOM      5  C   UNL     1      13.927   8.358  16.724  0.00  0.00    +0.339 C 
ATOM      6  O   UNL     1      13.950   7.652  16.298  0.00  0.00    -0.249 OA
ATOM      7  N   UNL     1      13.738   8.348  17.527  0.00  0.00    -0.185 NA
BRANCH   4   2
ATOM      1  C   UNL     1      13.680   9.087  14.979  0.00  0.00    +0.023 C 
ATOM      2  C   UNL     1      14.280   9.082  15.544  0.00  0.00    +0.097 C 
ATOM      3  C   UNL     1      15.070   9.086  15.306  0.00  0.00    +0.023 C 
ENDBRANCH   4   2
ENDBRANCH   8   7
ENDBRANCH   9   8
BRANCH  12  13
ATOM     13  N   UNL     1      11.998   7.445  20.337  0.00  0.00    -0.209 NA
BRANCH  13  14
ATOM     14  C   UNL     1      12.105   7.561  21.146  0.00  0.00    +0.117 C 
BRANCH  14  15
ATOM     15  C   UNL     1      11.452   7.680  21.636  0.00  0.00    +0.014 A 
ATOM     16  C   UNL     1      11.313   8.423  21.964  0.00  0.00    +0.000 A 
ATOM     17  C   UNL     1      10.660   8.542  22.454  0.00  0.00    +0.020 A 
ATOM     18  C   UNL     1      10.146   7.917  22.615  0.00  0.00    +0.099 A 
ATOM     19  N   UNL     1      10.286   7.173  22.287  0.00  0.00    -0.243 NA
ATOM     20  C   UNL     1      10.938   7.055  21.797  0.00  0.00    +0.096 A 
ENDBRANCH  14  15
ENDBRANCH  13  14
ENDBRANCH  12  13
TORSDOF 6
ENDMDL
