REMARK  Name = 
REMARK  5 active torsions:
REMARK  status: ('A' for Active; 'I' for Inactive)
REMARK    1  A    between atoms: S_2  and  C_3
REMARK    2  A    between atoms: C_6  and  C_9
REMARK    3  A    between atoms: N_15  and  C_16
REMARK    4  A    between atoms: C_16  and  C_17
REMARK    5  A    between atoms: C_20  and  C_21
REMARK                            x       y       z     vdW  Elec       q    Type
REMARK                         _______ _______ _______ _____ _____    ______ ____
ROOT
ATOM      9  C   UNL     1      -0.397  -0.039   0.000  0.00  0.00    +0.012 A 
ATOM     10  C   UNL     1       0.244  -0.558   0.000  0.00  0.00    +0.041 A 
ATOM     11  C   UNL     1       1.163  -0.557   0.000  0.00  0.00    +0.054 C 
ATOM     12  C   UNL     1       1.713  -0.121   0.000  0.00  0.00    +0.011 C 
ATOM     13  C   UNL     1       1.582  -0.925   0.000  0.00  0.00    +0.039 C 
ATOM     14  C   UNL     1       1.629  -1.912   0.000  0.00  0.00    +0.074 C 
ATOM     15  N   UNL     1       0.813  -2.091   0.000  0.00  0.00    -0.266 NA
ATOM     24  C   UNL     1       1.225  -1.510   0.000  0.00  0.00    +0.078 C 
ATOM     25  C   UNL     1       0.622  -0.936   0.000  0.00  0.00    +0.110 C 
ATOM     26  N   UNL     1       0.115  -1.373   0.000  0.00  0.00    -0.299 N 
ATOM     27  C   UNL     1      -0.655  -1.669   0.000  0.00  0.00    +0.261 A 
ATOM     28  O   UNL     1      -0.784  -2.484   0.000  0.00  0.00    -0.267 OA
ATOM     29  C   UNL     1      -1.296  -1.150   0.000  0.00  0.00    +0.061 A 
ATOM     30  C   UNL     1      -1.167  -0.335   0.000  0.00  0.00    +0.006 A 
ENDROOT
BRANCH   9   6
ATOM      3  C   UNL     1      -0.010   2.406   0.000  0.00  0.00    +0.025 A 
ATOM      4  C   UNL     1       0.631   1.887   0.000  0.00  0.00    +0.006 A 
ATOM      5  C   UNL     1       0.502   1.072   0.000  0.00  0.00    +0.001 A 
ATOM      6  C   UNL     1      -0.268   0.776   0.000  0.00  0.00    +0.001 A 
ATOM      7  C   UNL     1      -0.909   1.295   0.000  0.00  0.00    +0.001 A 
ATOM      8  C   UNL     1      -0.780   2.110   0.000  0.00  0.00    +0.006 A 
BRANCH   3   2
ATOM      1  C   UNL     1      -0.522   3.740   0.000  0.00  0.00    +0.074 C 
ATOM      2  S   UNL     1       0.119   3.220   0.000  0.00  0.00    -0.113 S 
ENDBRANCH   3   2
ENDBRANCH   9   6
BRANCH  15  16
ATOM     16  C   UNL     1       0.125  -2.547   0.000  0.00  0.00    +0.138 C 
BRANCH  16  17
ATOM     17  C   UNL     1       0.176  -3.370   0.000  0.00  0.00    +0.139 A 
ATOM     18  C   UNL     1       0.872  -3.813   0.000  0.00  0.00    +0.037 A 
ATOM     19  C   UNL     1       0.665  -4.612   0.000  0.00  0.00    +0.038 A 
ATOM     20  C   UNL     1      -0.158  -4.663   0.000  0.00  0.00    +0.156 A 
ATOM     23  O   UNL     1      -0.461  -3.896   0.000  0.00  0.00    -0.458 OA
BRANCH  20  21
ATOM     21  C   UNL     1      -0.601  -5.359   0.000  0.00  0.00    +0.246 C 
ATOM     22  O   UNL     1      -0.220  -6.091   0.000  0.00  0.00    -0.212 OA
ENDBRANCH  20  21
ENDBRANCH  16  17
ENDBRANCH  15  16
TORSDOF 5
