REMARK  Name = 
REMARK  6 active torsions:
REMARK  status: ('A' for Active; 'I' for Inactive)
REMARK    1  A    between atoms: C_2  and  C_5
REMARK    2  A    between atoms: C_5  and  C_6
REMARK    3  A    between atoms: N_8  and  C_9
REMARK    4  A    between atoms: C_9  and  C_10
REMARK    5  A    between atoms: C_13  and  N_14
REMARK    6  A    between atoms: N_14  and  C_15
REMARK                            x       y       z     vdW  Elec       q    Type
REMARK                         _______ _______ _______ _____ _____    ______ ____
ROOT
ATOM     10  C   UNL     1       2.533  -0.655   0.000  0.00  0.00    +0.169 C 
ATOM     11  O   UNL     1       3.200  -1.140   0.000  0.00  0.00    -0.350 OA
ATOM     12  C   UNL     1       2.946  -1.925   0.000  0.00  0.00    +0.162 C 
ATOM     13  C   UNL     1       2.120  -1.925   0.000  0.00  0.00    +0.135 C 
ATOM     20  C   UNL     1       1.865  -1.140   0.000  0.00  0.00    +0.199 C 
ATOM     21  O   UNL     1       1.081  -0.885   0.000  0.00  0.00    -0.219 OA
ENDROOT
BRANCH  10   9
ATOM      9  C   UNL     1       2.533   0.170   0.000  0.00  0.00    +0.147 C 
BRANCH   9   8
ATOM      6  C   UNL     1       3.248   1.407   0.000  0.00  0.00    +0.241 C 
ATOM      7  O   UNL     1       2.533   1.820   0.000  0.00  0.00    -0.273 OA
ATOM      8  N   UNL     1       3.248   0.582   0.000  0.00  0.00    -0.203 NA
BRANCH   6   5
ATOM      5  C   UNL     1       3.962   1.820   0.000  0.00  0.00    +0.087 C 
BRANCH   5   2
ATOM      1  C   UNL     1       3.962   3.470   0.000  0.00  0.00    +0.000 C 
ATOM      2  C   UNL     1       3.962   2.645   0.000  0.00  0.00    +0.009 C 
ATOM      3  C   UNL     1       3.137   2.645   0.000  0.00  0.00    +0.000 C 
ATOM      4  C   UNL     1       4.787   2.645   0.000  0.00  0.00    +0.000 C 
ENDBRANCH   5   2
ENDBRANCH   6   5
ENDBRANCH   9   8
ENDBRANCH  10   9
BRANCH  13  14
ATOM     14  N   UNL     1       1.636  -2.592   0.000  0.00  0.00    -0.216 NA
BRANCH  14  15
ATOM     15  C   UNL     1       0.815  -2.506   0.000  0.00  0.00    +0.073 C 
ATOM     16  C   UNL     1       0.263  -3.119   0.000  0.00  0.00    +0.017 C 
ATOM     17  C   UNL     1      -0.491  -2.784   0.000  0.00  0.00    +0.001 C 
ATOM     18  C   UNL     1      -0.404  -1.963   0.000  0.00  0.00    +0.001 C 
ATOM     19  C   UNL     1       0.403  -1.792   0.000  0.00  0.00    +0.017 C 
ENDBRANCH  14  15
ENDBRANCH  13  14
TORSDOF 6
