REMARK  Name = 
REMARK  8 active torsions:
REMARK  status: ('A' for Active; 'I' for Inactive)
REMARK    1  A    between atoms: C_2  and  C_3
REMARK    2  A    between atoms: C_5  and  C_6
REMARK    3  A    between atoms: C_6  and  N_7
REMARK    4  A    between atoms: N_7  and  C_8
REMARK    5  A    between atoms: N_7  and  C_16
REMARK    6  A    between atoms: C_8  and  C_9
REMARK    7  A    between atoms: C_16  and  C_17
REMARK    8  A    between atoms: C_24  and  N_27
REMARK                            x       y       z     vdW  Elec       q    Type
REMARK                         _______ _______ _______ _____ _____    ______ ____
ROOT
ATOM      7  N   UNL     1      -0.396  -4.387   0.000  0.00  0.00    -0.263 NA
ENDROOT
BRANCH   7   6
ATOM      6  C   UNL     1       0.425  -4.474   0.000  0.00  0.00    +0.104 C 
BRANCH   6   5
ATOM      3  C   UNL     1       1.322  -2.537   0.000  0.00  0.00    +0.180 C 
ATOM      4  O   UNL     1       0.655  -3.022   0.000  0.00  0.00    -0.350 OA
ATOM      5  C   UNL     1       0.910  -3.806   0.000  0.00  0.00    +0.148 C 
ATOM     24  C   UNL     1       1.735  -3.806   0.000  0.00  0.00    +0.119 C 
ATOM     25  C   UNL     1       1.990  -3.022   0.000  0.00  0.00    +0.198 C 
ATOM     26  O   UNL     1       2.774  -2.767   0.000  0.00  0.00    -0.219 OA
BRANCH  24  27
ATOM     27  N   UNL     1       2.220  -4.474   0.000  0.00  0.00    -0.270 NA
ATOM     28  C   UNL     1       3.045  -4.474   0.000  0.00  0.00    +0.072 C 
ATOM     29  C   UNL     1       3.300  -5.258   0.000  0.00  0.00    +0.019 C 
ATOM     30  C   UNL     1       2.632  -5.743   0.000  0.00  0.00    +0.019 C 
ATOM     31  C   UNL     1       1.965  -5.258   0.000  0.00  0.00    +0.072 C 
ENDBRANCH  24  27
BRANCH   3   2
ATOM      1  O   UNL     1       2.037  -1.299   0.000  0.00  0.00    -0.218 OA
ATOM      2  C   UNL     1       1.322  -1.712   0.000  0.00  0.00    +0.214 C 
ENDBRANCH   3   2
ENDBRANCH   6   5
ENDBRANCH   7   6
BRANCH   7   8
ATOM      8  C   UNL     1      -0.881  -5.055   0.000  0.00  0.00    +0.099 C 
BRANCH   8   9
ATOM      9  C   UNL     1      -0.545  -5.809   0.000  0.00  0.00    -0.006 A 
ATOM     10  C   UNL     1       0.275  -5.895   0.000  0.00  0.00    -0.001 A 
ATOM     11  C   UNL     1       0.611  -6.648   0.000  0.00  0.00    +0.029 A 
ATOM     12  C   UNL     1       0.126  -7.316   0.000  0.00  0.00    +0.140 A 
ATOM     13  F   UNL     1       0.462  -8.069   0.000  0.00  0.00    -0.204 F 
ATOM     14  C   UNL     1      -0.694  -7.230   0.000  0.00  0.00    +0.029 A 
ATOM     15  C   UNL     1      -1.030  -6.476   0.000  0.00  0.00    -0.001 A 
ENDBRANCH   8   9
ENDBRANCH   7   8
BRANCH   7  16
ATOM     16  C   UNL     1      -0.731  -3.634   0.000  0.00  0.00    +0.099 C 
BRANCH  16  17
ATOM     17  C   UNL     1      -1.552  -3.547   0.000  0.00  0.00    -0.006 A 
ATOM     18  C   UNL     1      -2.037  -4.215   0.000  0.00  0.00    -0.001 A 
ATOM     19  C   UNL     1      -2.857  -4.129   0.000  0.00  0.00    +0.029 A 
ATOM     20  C   UNL     1      -3.193  -3.375   0.000  0.00  0.00    +0.140 A 
ATOM     21  F   UNL     1      -4.013  -3.289   0.000  0.00  0.00    -0.204 F 
ATOM     22  C   UNL     1      -2.708  -2.708   0.000  0.00  0.00    +0.029 A 
ATOM     23  C   UNL     1      -1.887  -2.794   0.000  0.00  0.00    -0.001 A 
ENDBRANCH  16  17
ENDBRANCH   7  16
TORSDOF 8
