MODEL 1
REMARK VINA RESULT:      -9.4      0.000      0.000
REMARK  Name = 
REMARK  2 active torsions:
REMARK  status: ('A' for Active; 'I' for Inactive)
REMARK    1  A    between atoms: C_5  and  C_7
REMARK    2  A    between atoms: C_13  and  C_16
REMARK                            x       y       z     vdW  Elec       q    Type
REMARK                         _______ _______ _______ _____ _____    ______ ____
ROOT
ATOM      7  C   UNL     1      -4.141  -0.031  24.560  0.00  0.00    +0.140 A 
ATOM      8  N   UNL     1      -3.736   0.558  24.149  0.00  0.00    -0.229 NA
ATOM      9  C   UNL     1      -4.034   1.288  24.390  0.00  0.00    +0.100 A 
ATOM     10  C   UNL     1      -4.625   1.150  24.949  0.00  0.00    +0.101 A 
ATOM     11  N   UNL     1      -4.692   0.335  25.054  0.00  0.00    -0.229 NA
ATOM     12  C   UNL     1      -5.026   1.786  25.290  0.00  0.00    +0.031 A 
ATOM     13  C   UNL     1      -4.837   2.558  25.072  0.00  0.00    +0.070 A 
ATOM     14  C   UNL     1      -4.246   2.695  24.513  0.00  0.00    +0.012 A 
ATOM     15  C   UNL     1      -3.845   2.061  24.171  0.00  0.00    +0.021 A 
ENDROOT
BRANCH   7   5
ATOM      1  C   UNL     1      -3.278  -2.752  25.095  0.00  0.00    +0.090 C 
ATOM      2  N   UNL     1      -3.622  -2.095  24.735  0.00  0.00    -0.271 NA
ATOM      3  C   UNL     1      -4.041  -2.096  24.024  0.00  0.00    +0.073 C 
ATOM      4  C   UNL     1      -4.286  -1.323  23.871  0.00  0.00    +0.026 C 
ATOM      5  C   UNL     1      -4.019  -0.844  24.489  0.00  0.00    +0.076 C 
ATOM      6  C   UNL     1      -3.609  -1.321  25.022  0.00  0.00    +0.080 C 
ENDBRANCH   7   5
BRANCH  13  16
ATOM     16  C   UNL     1      -5.238   3.193  25.412  0.00  0.00    +0.100 C 
ATOM     17  N   UNL     1      -5.639   3.828  25.754  0.00  0.00    -0.191 NA
ENDBRANCH  13  16
TORSDOF 2
ENDMDL
MODEL 2
REMARK VINA RESULT:      -9.1      0.726      1.107
REMARK  Name = 
REMARK  2 active torsions:
REMARK  status: ('A' for Active; 'I' for Inactive)
REMARK    1  A    between atoms: C_5  and  C_7
REMARK    2  A    between atoms: C_13  and  C_16
REMARK                            x       y       z     vdW  Elec       q    Type
REMARK                         _______ _______ _______ _____ _____    ______ ____
ROOT
ATOM      7  C   UNL     1      -4.057  -0.123  24.567  0.00  0.00    +0.140 A 
ATOM      8  N   UNL     1      -4.764   0.273  24.717  0.00  0.00    -0.229 NA
ATOM      9  C   UNL     1      -4.605   1.082  24.732  0.00  0.00    +0.100 A 
ATOM     10  C   UNL     1      -3.798   1.186  24.593  0.00  0.00    +0.101 A 
ATOM     11  N   UNL     1      -3.459   0.441  24.491  0.00  0.00    -0.229 NA
ATOM     12  C   UNL     1      -3.477   1.946  24.577  0.00  0.00    +0.031 A 
ATOM     13  C   UNL     1      -3.962   2.601  24.701  0.00  0.00    +0.070 A 
ATOM     14  C   UNL     1      -4.768   2.498  24.840  0.00  0.00    +0.012 A 
ATOM     15  C   UNL     1      -5.090   1.738  24.856  0.00  0.00    +0.021 A 
ENDROOT
BRANCH   7   5
ATOM      1  C   UNL     1      -3.244  -2.858  25.107  0.00  0.00    +0.090 C 
ATOM      2  N   UNL     1      -3.589  -2.198  24.753  0.00  0.00    -0.271 NA
ATOM      3  C   UNL     1      -4.045  -2.198  24.065  0.00  0.00    +0.073 C 
ATOM      4  C   UNL     1      -4.276  -1.421  23.912  0.00  0.00    +0.026 C 
ATOM      5  C   UNL     1      -3.962  -0.940  24.505  0.00  0.00    +0.076 C 
ATOM      6  C   UNL     1      -3.538  -1.420  25.024  0.00  0.00    +0.080 C 
ENDBRANCH   7   5
BRANCH  13  16
ATOM     16  C   UNL     1      -3.641   3.361  24.685  0.00  0.00    +0.100 C 
ATOM     17  N   UNL     1      -3.319   4.121  24.669  0.00  0.00    -0.191 NA
ENDBRANCH  13  16
TORSDOF 2
ENDMDL
MODEL 3
REMARK VINA RESULT:      -9.0      0.892      4.157
REMARK  Name = 
REMARK  2 active torsions:
REMARK  status: ('A' for Active; 'I' for Inactive)
REMARK    1  A    between atoms: C_5  and  C_7
REMARK    2  A    between atoms: C_13  and  C_16
REMARK                            x       y       z     vdW  Elec       q    Type
REMARK                         _______ _______ _______ _____ _____    ______ ____
ROOT
ATOM      7  C   UNL     1      -4.385   0.732  24.882  0.00  0.00    +0.140 A 
ATOM      8  N   UNL     1      -4.766   0.116  24.487  0.00  0.00    -0.229 NA
ATOM      9  C   UNL     1      -4.245  -0.521  24.447  0.00  0.00    +0.100 A 
ATOM     10  C   UNL     1      -3.542  -0.300  24.818  0.00  0.00    +0.101 A 
ATOM     11  N   UNL     1      -3.628   0.475  25.086  0.00  0.00    -0.229 NA
ATOM     12  C   UNL     1      -2.914  -0.833  24.862  0.00  0.00    +0.031 A 
ATOM     13  C   UNL     1      -2.988  -1.587  24.537  0.00  0.00    +0.070 A 
ATOM     14  C   UNL     1      -3.691  -1.808  24.166  0.00  0.00    +0.012 A 
ATOM     15  C   UNL     1      -4.320  -1.276  24.121  0.00  0.00    +0.021 A 
ENDROOT
BRANCH   7   5
ATOM      1  C   UNL     1      -4.658   3.598  25.267  0.00  0.00    +0.090 C 
ATOM      2  N   UNL     1      -4.831   2.793  25.221  0.00  0.00    -0.271 NA
ATOM      3  C   UNL     1      -5.565   2.445  25.366  0.00  0.00    +0.073 C 
ATOM      4  C   UNL     1      -5.487   1.631  25.257  0.00  0.00    +0.026 C 
ATOM      5  C   UNL     1      -4.705   1.475  25.044  0.00  0.00    +0.076 C 
ATOM      6  C   UNL     1      -4.300   2.193  25.022  0.00  0.00    +0.080 C 
ENDBRANCH   7   5
BRANCH  13  16
ATOM     16  C   UNL     1      -2.361  -2.119  24.581  0.00  0.00    +0.100 C 
ATOM     17  N   UNL     1      -1.732  -2.652  24.626  0.00  0.00    -0.191 NA
ENDBRANCH  13  16
TORSDOF 2
ENDMDL
MODEL 4
REMARK VINA RESULT:      -8.6      1.117      4.134
REMARK  Name = 
REMARK  2 active torsions:
REMARK  status: ('A' for Active; 'I' for Inactive)
REMARK    1  A    between atoms: C_5  and  C_7
REMARK    2  A    between atoms: C_13  and  C_16
REMARK                            x       y       z     vdW  Elec       q    Type
REMARK                         _______ _______ _______ _____ _____    ______ ____
ROOT
ATOM      7  C   UNL     1      -3.622   1.324  24.731  0.00  0.00    +0.140 A 
ATOM      8  N   UNL     1      -4.011   0.936  24.116  0.00  0.00    -0.229 NA
ATOM      9  C   UNL     1      -3.944   0.124  24.244  0.00  0.00    +0.100 A 
ATOM     10  C   UNL     1      -3.514   0.010  24.939  0.00  0.00    +0.101 A 
ATOM     11  N   UNL     1      -3.315   0.751  25.240  0.00  0.00    -0.229 NA
ATOM     12  C   UNL     1      -3.359  -0.755  25.207  0.00  0.00    +0.031 A 
ATOM     13  C   UNL     1      -3.634  -1.405  24.781  0.00  0.00    +0.070 A 
ATOM     14  C   UNL     1      -4.064  -1.291  24.087  0.00  0.00    +0.012 A 
ATOM     15  C   UNL     1      -4.219  -0.527  23.818  0.00  0.00    +0.021 A 
ENDROOT
BRANCH   7   5
ATOM      1  C   UNL     1      -2.499   3.976  25.103  0.00  0.00    +0.090 C 
ATOM      2  N   UNL     1      -3.037   3.360  24.992  0.00  0.00    -0.271 NA
ATOM      3  C   UNL     1      -3.856   3.437  24.930  0.00  0.00    +0.073 C 
ATOM      4  C   UNL     1      -4.175   2.683  24.824  0.00  0.00    +0.026 C 
ATOM      5  C   UNL     1      -3.553   2.141  24.822  0.00  0.00    +0.076 C 
ATOM      6  C   UNL     1      -2.850   2.559  24.925  0.00  0.00    +0.080 C 
ENDBRANCH   7   5
BRANCH  13  16
ATOM     16  C   UNL     1      -3.479  -2.169  25.050  0.00  0.00    +0.100 C 
ATOM     17  N   UNL     1      -3.324  -2.934  25.318  0.00  0.00    -0.191 NA
ENDBRANCH  13  16
TORSDOF 2
ENDMDL
MODEL 5
REMARK VINA RESULT:      -8.0      2.108      4.280
REMARK  Name = 
REMARK  2 active torsions:
REMARK  status: ('A' for Active; 'I' for Inactive)
REMARK    1  A    between atoms: C_5  and  C_7
REMARK    2  A    between atoms: C_13  and  C_16
REMARK                            x       y       z     vdW  Elec       q    Type
REMARK                         _______ _______ _______ _____ _____    ______ ____
ROOT
ATOM      7  C   UNL     1      -2.134   0.960  24.955  0.00  0.00    +0.140 A 
ATOM      8  N   UNL     1      -2.949   1.048  24.864  0.00  0.00    -0.229 NA
ATOM      9  C   UNL     1      -3.270   0.303  24.714  0.00  0.00    +0.100 A 
ATOM     10  C   UNL     1      -2.653  -0.245  24.713  0.00  0.00    +0.101 A 
ATOM     11  N   UNL     1      -1.951   0.161  24.862  0.00  0.00    -0.229 NA
ATOM     12  C   UNL     1      -2.812  -1.043  24.577  0.00  0.00    +0.031 A 
ATOM     13  C   UNL     1      -3.586  -1.293  24.441  0.00  0.00    +0.070 A 
ATOM     14  C   UNL     1      -4.202  -0.745  24.442  0.00  0.00    +0.012 A 
ATOM     15  C   UNL     1      -4.045   0.053  24.579  0.00  0.00    +0.021 A 
ENDROOT
BRANCH   7   5
ATOM      1  C   UNL     1      -0.788   3.534  24.937  0.00  0.00    +0.090 C 
ATOM      2  N   UNL     1      -0.977   2.749  25.104  0.00  0.00    -0.271 NA
ATOM      3  C   UNL     1      -0.557   2.245  25.605  0.00  0.00    +0.073 C 
ATOM      4  C   UNL     1      -0.939   1.514  25.610  0.00  0.00    +0.026 C 
ATOM      5  C   UNL     1      -1.596   1.566  25.112  0.00  0.00    +0.076 C 
ATOM      6  C   UNL     1      -1.619   2.328  24.800  0.00  0.00    +0.080 C 
ENDBRANCH   7   5
BRANCH  13  16
ATOM     16  C   UNL     1      -3.744  -2.090  24.305  0.00  0.00    +0.100 C 
ATOM     17  N   UNL     1      -3.902  -2.889  24.168  0.00  0.00    -0.191 NA
ENDBRANCH  13  16
TORSDOF 2
ENDMDL
MODEL 6
REMARK VINA RESULT:      -8.0      1.844      2.323
REMARK  Name = 
REMARK  2 active torsions:
REMARK  status: ('A' for Active; 'I' for Inactive)
REMARK    1  A    between atoms: C_5  and  C_7
REMARK    2  A    between atoms: C_13  and  C_16
REMARK                            x       y       z     vdW  Elec       q    Type
REMARK                         _______ _______ _______ _____ _____    ______ ____
ROOT
ATOM      7  C   UNL     1      -2.613   1.162  24.518  0.00  0.00    +0.140 A 
ATOM      8  N   UNL     1      -3.341   0.781  24.449  0.00  0.00    -0.229 NA
ATOM      9  C   UNL     1      -3.929   1.311  24.681  0.00  0.00    +0.100 A 
ATOM     10  C   UNL     1      -3.564   2.020  24.894  0.00  0.00    +0.101 A 
ATOM     11  N   UNL     1      -2.751   1.928  24.793  0.00  0.00    -0.229 NA
ATOM     12  C   UNL     1      -4.021   2.657  25.152  0.00  0.00    +0.031 A 
ATOM     13  C   UNL     1      -4.841   2.586  25.197  0.00  0.00    +0.070 A 
ATOM     14  C   UNL     1      -5.206   1.877  24.985  0.00  0.00    +0.012 A 
ATOM     15  C   UNL     1      -4.750   1.239  24.727  0.00  0.00    +0.021 A 
ENDROOT
BRANCH   7   5
ATOM      1  C   UNL     1      -0.358  -0.664  24.403  0.00  0.00    +0.090 C 
ATOM      2  N   UNL     1      -0.839  -0.004  24.290  0.00  0.00    -0.271 NA
ATOM      3  C   UNL     1      -0.644   0.670  23.855  0.00  0.00    +0.073 C 
ATOM      4  C   UNL     1      -1.285   1.189  23.888  0.00  0.00    +0.026 C 
ATOM      5  C   UNL     1      -1.876   0.836  24.343  0.00  0.00    +0.076 C 
ATOM      6  C   UNL     1      -1.601   0.099  24.591  0.00  0.00    +0.080 C 
ENDBRANCH   7   5
BRANCH  13  16
ATOM     16  C   UNL     1      -5.296   3.222  25.455  0.00  0.00    +0.100 C 
ATOM     17  N   UNL     1      -5.753   3.860  25.713  0.00  0.00    -0.191 NA
ENDBRANCH  13  16
TORSDOF 2
ENDMDL
MODEL 7
REMARK VINA RESULT:      -7.9      2.589      3.631
REMARK  Name = 
REMARK  2 active torsions:
REMARK  status: ('A' for Active; 'I' for Inactive)
REMARK    1  A    between atoms: C_5  and  C_7
REMARK    2  A    between atoms: C_13  and  C_16
REMARK                            x       y       z     vdW  Elec       q    Type
REMARK                         _______ _______ _______ _____ _____    ______ ____
ROOT
ATOM      7  C   UNL     1      -2.250   2.601  25.180  0.00  0.00    +0.140 A 
ATOM      8  N   UNL     1      -2.670   3.286  25.364  0.00  0.00    -0.229 NA
ATOM      9  C   UNL     1      -3.475   3.115  25.302  0.00  0.00    +0.100 A 
ATOM     10  C   UNL     1      -3.551   2.325  25.080  0.00  0.00    +0.101 A 
ATOM     11  N   UNL     1      -2.794   2.006  25.005  0.00  0.00    -0.229 NA
ATOM     12  C   UNL     1      -4.301   1.997  24.976  0.00  0.00    +0.031 A 
ATOM     13  C   UNL     1      -4.974   2.459  25.093  0.00  0.00    +0.070 A 
ATOM     14  C   UNL     1      -4.897   3.250  25.315  0.00  0.00    +0.012 A 
ATOM     15  C   UNL     1      -4.148   3.579  25.419  0.00  0.00    +0.021 A 
ENDROOT
BRANCH   7   5
ATOM      1  C   UNL     1       0.460   1.995  24.330  0.00  0.00    +0.090 C 
ATOM      2  N   UNL     1      -0.182   2.245  24.783  0.00  0.00    -0.271 NA
ATOM      3  C   UNL     1      -0.146   2.564  25.543  0.00  0.00    +0.073 C 
ATOM      4  C   UNL     1      -0.916   2.736  25.784  0.00  0.00    +0.026 C 
ATOM      5  C   UNL     1      -1.428   2.524  25.173  0.00  0.00    +0.076 C 
ATOM      6  C   UNL     1      -0.975   2.220  24.555  0.00  0.00    +0.080 C 
ENDBRANCH   7   5
BRANCH  13  16
ATOM     16  C   UNL     1      -5.723   2.131  24.988  0.00  0.00    +0.100 C 
ATOM     17  N   UNL     1      -6.473   1.802  24.883  0.00  0.00    -0.191 NA
ENDBRANCH  13  16
TORSDOF 2
ENDMDL
MODEL 8
REMARK VINA RESULT:      -7.7      2.418      2.915
REMARK  Name = 
REMARK  2 active torsions:
REMARK  status: ('A' for Active; 'I' for Inactive)
REMARK    1  A    between atoms: C_5  and  C_7
REMARK    2  A    between atoms: C_13  and  C_16
REMARK                            x       y       z     vdW  Elec       q    Type
REMARK                         _______ _______ _______ _____ _____    ______ ____
ROOT
ATOM      7  C   UNL     1      -2.574  -0.038  24.580  0.00  0.00    +0.140 A 
ATOM      8  N   UNL     1      -2.447   0.591  24.061  0.00  0.00    -0.229 NA
ATOM      9  C   UNL     1      -1.872   1.081  24.391  0.00  0.00    +0.100 A 
ATOM     10  C   UNL     1      -1.644   0.756  25.114  0.00  0.00    +0.101 A 
ATOM     11  N   UNL     1      -2.077   0.065  25.231  0.00  0.00    -0.229 NA
ATOM     12  C   UNL     1      -1.070   1.133  25.573  0.00  0.00    +0.031 A 
ATOM     13  C   UNL     1      -0.725   1.833  25.309  0.00  0.00    +0.070 A 
ATOM     14  C   UNL     1      -0.953   2.159  24.586  0.00  0.00    +0.012 A 
ATOM     15  C   UNL     1      -1.527   1.783  24.127  0.00  0.00    +0.021 A 
ENDROOT
BRANCH   7   5
ATOM      1  C   UNL     1      -3.696  -2.709  24.378  0.00  0.00    +0.090 C 
ATOM      2  N   UNL     1      -3.620  -1.887  24.374  0.00  0.00    -0.271 NA
ATOM      3  C   UNL     1      -4.222  -1.346  24.214  0.00  0.00    +0.073 C 
ATOM      4  C   UNL     1      -3.903  -0.587  24.271  0.00  0.00    +0.026 C 
ATOM      5  C   UNL     1      -3.104  -0.660  24.467  0.00  0.00    +0.076 C 
ATOM      6  C   UNL     1      -2.930  -1.463  24.531  0.00  0.00    +0.080 C 
ENDBRANCH   7   5
BRANCH  13  16
ATOM     16  C   UNL     1      -0.152   2.209  25.767  0.00  0.00    +0.100 C 
ATOM     17  N   UNL     1       0.422   2.585  26.226  0.00  0.00    -0.191 NA
ENDBRANCH  13  16
TORSDOF 2
ENDMDL
MODEL 9
REMARK VINA RESULT:      -7.6      3.107      3.488
REMARK  Name = 
REMARK  2 active torsions:
REMARK  status: ('A' for Active; 'I' for Inactive)
REMARK    1  A    between atoms: C_5  and  C_7
REMARK    2  A    between atoms: C_13  and  C_16
REMARK                            x       y       z     vdW  Elec       q    Type
REMARK                         _______ _______ _______ _____ _____    ______ ____
ROOT
ATOM      7  C   UNL     1      -1.150   1.285  24.880  0.00  0.00    +0.140 A 
ATOM      8  N   UNL     1      -1.917   1.530  25.059  0.00  0.00    -0.229 NA
ATOM      9  C   UNL     1      -1.918   2.353  25.101  0.00  0.00    +0.100 A 
ATOM     10  C   UNL     1      -1.152   2.618  24.948  0.00  0.00    +0.101 A 
ATOM     11  N   UNL     1      -0.677   1.958  24.811  0.00  0.00    -0.229 NA
ATOM     12  C   UNL     1      -0.987   3.426  24.952  0.00  0.00    +0.031 A 
ATOM     13  C   UNL     1      -1.586   3.970  25.110  0.00  0.00    +0.070 A 
ATOM     14  C   UNL     1      -2.353   3.705  25.263  0.00  0.00    +0.012 A 
ATOM     15  C   UNL     1      -2.519   2.897  25.259  0.00  0.00    +0.021 A 
ENDROOT
BRANCH   7   5
ATOM      1  C   UNL     1      -0.669  -1.538  25.360  0.00  0.00    +0.090 C 
ATOM      2  N   UNL     1      -0.678  -0.793  25.006  0.00  0.00    -0.271 NA
ATOM      3  C   UNL     1      -0.348  -0.599  24.275  0.00  0.00    +0.073 C 
ATOM      4  C   UNL     1      -0.485   0.203  24.139  0.00  0.00    +0.026 C 
ATOM      5  C   UNL     1      -0.899   0.505  24.786  0.00  0.00    +0.076 C 
ATOM      6  C   UNL     1      -1.019  -0.111  25.321  0.00  0.00    +0.080 C 
ENDBRANCH   7   5
BRANCH  13  16
ATOM     16  C   UNL     1      -1.421   4.777  25.115  0.00  0.00    +0.100 C 
ATOM     17  N   UNL     1      -1.255   5.586  25.120  0.00  0.00    -0.191 NA
ENDBRANCH  13  16
TORSDOF 2
ENDMDL
MODEL 10
REMARK VINA RESULT:      -7.6      2.430      3.601
REMARK  Name = 
REMARK  2 active torsions:
REMARK  status: ('A' for Active; 'I' for Inactive)
REMARK    1  A    between atoms: C_5  and  C_7
REMARK    2  A    between atoms: C_13  and  C_16
REMARK                            x       y       z     vdW  Elec       q    Type
REMARK                         _______ _______ _______ _____ _____    ______ ____
ROOT
ATOM      7  C   UNL     1      -3.581   2.419  25.017  0.00  0.00    +0.140 A 
ATOM      8  N   UNL     1      -2.826   2.098  25.092  0.00  0.00    -0.229 NA
ATOM      9  C   UNL     1      -2.282   2.717  25.078  0.00  0.00    +0.100 A 
ATOM     10  C   UNL     1      -2.702   3.423  24.995  0.00  0.00    +0.101 A 
ATOM     11  N   UNL     1      -3.505   3.239  24.957  0.00  0.00    -0.229 NA
ATOM     12  C   UNL     1      -2.297   4.141  24.964  0.00  0.00    +0.031 A 
ATOM     13  C   UNL     1      -1.475   4.155  25.016  0.00  0.00    +0.070 A 
ATOM     14  C   UNL     1      -1.055   3.450  25.099  0.00  0.00    +0.012 A 
ATOM     15  C   UNL     1      -1.458   2.731  25.130  0.00  0.00    +0.021 A 
ENDROOT
BRANCH   7   5
ATOM      1  C   UNL     1      -6.412   1.774  24.986  0.00  0.00    +0.090 C 
ATOM      2  N   UNL     1      -5.591   1.699  24.991  0.00  0.00    -0.271 NA
ATOM      3  C   UNL     1      -5.168   0.991  24.981  0.00  0.00    +0.073 C 
ATOM      4  C   UNL     1      -4.364   1.175  24.990  0.00  0.00    +0.026 C 
ATOM      5  C   UNL     1      -4.290   1.997  25.005  0.00  0.00    +0.076 C 
ATOM      6  C   UNL     1      -5.048   2.321  25.005  0.00  0.00    +0.080 C 
ENDBRANCH   7   5
BRANCH  13  16
ATOM     16  C   UNL     1      -1.071   4.873  24.986  0.00  0.00    +0.100 C 
ATOM     17  N   UNL     1      -0.667   5.593  24.955  0.00  0.00    -0.191 NA
ENDBRANCH  13  16
TORSDOF 2
ENDMDL
