MODEL 1
REMARK VINA RESULT:     -13.8      0.000      0.000
REMARK  Name = 
REMARK  5 active torsions:
REMARK  status: ('A' for Active; 'I' for Inactive)
REMARK    1  A    between atoms: C_1  and  N_2
REMARK    2  A    between atoms: C_1  and  C_22
REMARK    3  A    between atoms: C_5  and  C_7
REMARK    4  A    between atoms: C_10  and  C_11
REMARK    5  A    between atoms: C_11  and  C_12
REMARK                            x       y       z     vdW  Elec       q    Type
REMARK                         _______ _______ _______ _____ _____    ______ ____
ROOT
ATOM      2  N   UNL     1      -3.262   3.712  25.172  0.00  0.00    -0.268 NA
ATOM      3  C   UNL     1      -3.739   3.973  24.552  0.00  0.00    +0.073 C 
ATOM      4  C   UNL     1      -4.243   3.355  24.341  0.00  0.00    +0.028 C 
ATOM      5  C   UNL     1      -4.077   2.712  24.831  0.00  0.00    +0.096 C 
ATOM      6  C   UNL     1      -3.471   2.933  25.344  0.00  0.00    +0.082 C 
ENDROOT
BRANCH   5   7
ATOM      7  C   UNL     1      -4.452   1.977  24.810  0.00  0.00    +0.227 A 
ATOM      8  N   UNL     1      -5.197   1.804  25.118  0.00  0.00    -0.112 NA
ATOM      9  N   UNL     1      -5.354   1.006  24.976  0.00  0.00    -0.111 NA
ATOM     10  C   UNL     1      -4.704   0.687  24.580  0.00  0.00    +0.231 A 
ATOM     21  O   UNL     1      -4.147   1.287  24.477  0.00  0.00    -0.423 OA
BRANCH  10  11
ATOM     11  C   UNL     1      -4.625  -0.096  24.330  0.00  0.00    +0.115 C 
BRANCH  11  12
ATOM     12  C   UNL     1      -4.196  -0.633  24.787  0.00  0.00    +0.008 A 
ATOM     13  C   UNL     1      -3.877  -0.487  25.533  0.00  0.00    +0.095 A 
ATOM     14  N   UNL     1      -3.494  -1.174  25.786  0.00  0.00    -0.244 NA
ATOM     15  C   UNL     1      -3.578  -1.743  25.195  0.00  0.00    +0.081 A 
ATOM     16  C   UNL     1      -4.011  -1.410  24.577  0.00  0.00    +0.016 A 
ATOM     17  C   UNL     1      -4.182  -1.855  23.905  0.00  0.00    +0.001 A 
ATOM     18  C   UNL     1      -3.919  -2.635  23.849  0.00  0.00    +0.000 A 
ATOM     19  C   UNL     1      -3.486  -2.969  24.465  0.00  0.00    +0.002 A 
ATOM     20  C   UNL     1      -3.315  -2.523  25.138  0.00  0.00    +0.019 A 
ENDBRANCH  11  12
ENDBRANCH  10  11
ENDBRANCH   5   7
BRANCH   2   1
ATOM      1  C   UNL     1      -2.678   4.153  25.554  0.00  0.00    +0.099 C 
BRANCH   1  22
ATOM     22  C   UNL     1      -1.891   3.905  25.529  0.00  0.00    -0.003 A 
ATOM     23  C   UNL     1      -1.365   4.253  24.997  0.00  0.00    +0.000 A 
ATOM     24  C   UNL     1      -0.579   4.005  24.972  0.00  0.00    +0.040 A 
ATOM     25  C   UNL     1      -0.318   3.409  25.480  0.00  0.00    +0.176 A 
ATOM     26  O   UNL     1       0.419   3.053  25.581  0.00  0.00    -0.435 OA
ATOM     27  C   UNL     1       0.349   2.486  26.175  0.00  0.00    +0.429 C 
ATOM     28  O   UNL     1      -0.431   2.491  26.442  0.00  0.00    -0.435 OA
ATOM     29  C   UNL     1      -0.843   3.061  26.012  0.00  0.00    +0.176 A 
ATOM     30  C   UNL     1      -1.631   3.309  26.037  0.00  0.00    +0.037 A 
ENDBRANCH   1  22
ENDBRANCH   2   1
TORSDOF 5
ENDMDL
MODEL 2
REMARK VINA RESULT:     -12.6      1.849      3.481
REMARK  Name = 
REMARK  5 active torsions:
REMARK  status: ('A' for Active; 'I' for Inactive)
REMARK    1  A    between atoms: C_1  and  N_2
REMARK    2  A    between atoms: C_1  and  C_22
REMARK    3  A    between atoms: C_5  and  C_7
REMARK    4  A    between atoms: C_10  and  C_11
REMARK    5  A    between atoms: C_11  and  C_12
REMARK                            x       y       z     vdW  Elec       q    Type
REMARK                         _______ _______ _______ _____ _____    ______ ____
ROOT
ATOM      2  N   UNL     1      -2.381   3.110  24.811  0.00  0.00    -0.268 NA
ATOM      3  C   UNL     1      -1.695   3.434  25.136  0.00  0.00    +0.073 C 
ATOM      4  C   UNL     1      -1.177   2.815  25.306  0.00  0.00    +0.028 C 
ATOM      5  C   UNL     1      -1.544   2.109  25.087  0.00  0.00    +0.096 C 
ATOM      6  C   UNL     1      -2.287   2.292  24.781  0.00  0.00    +0.082 C 
ENDROOT
BRANCH   5   7
ATOM      7  C   UNL     1      -1.222   1.352  25.161  0.00  0.00    +0.227 A 
ATOM      8  N   UNL     1      -0.453   1.131  24.962  0.00  0.00    -0.112 NA
ATOM      9  N   UNL     1      -0.368   0.326  25.125  0.00  0.00    -0.111 NA
ATOM     10  C   UNL     1      -1.086   0.051  25.425  0.00  0.00    +0.231 A 
ATOM     21  O   UNL     1      -1.613   0.685  25.447  0.00  0.00    -0.423 OA
BRANCH  10  11
ATOM     11  C   UNL     1      -1.248  -0.723  25.662  0.00  0.00    +0.115 C 
BRANCH  11  12
ATOM     12  C   UNL     1      -1.482  -1.284  25.103  0.00  0.00    +0.008 A 
ATOM     13  C   UNL     1      -1.033  -1.545  24.462  0.00  0.00    +0.095 A 
ATOM     14  N   UNL     1      -1.478  -2.105  24.050  0.00  0.00    -0.244 NA
ATOM     15  C   UNL     1      -2.201  -2.189  24.436  0.00  0.00    +0.081 A 
ATOM     16  C   UNL     1      -2.204  -1.682  25.087  0.00  0.00    +0.016 A 
ATOM     17  C   UNL     1      -2.864  -1.648  25.581  0.00  0.00    +0.001 A 
ATOM     18  C   UNL     1      -3.521  -2.121  25.424  0.00  0.00    +0.000 A 
ATOM     19  C   UNL     1      -3.519  -2.628  24.774  0.00  0.00    +0.002 A 
ATOM     20  C   UNL     1      -2.859  -2.662  24.280  0.00  0.00    +0.019 A 
ENDBRANCH  11  12
ENDBRANCH  10  11
ENDBRANCH   5   7
BRANCH   2   1
ATOM      1  C   UNL     1      -3.044   3.532  24.560  0.00  0.00    +0.099 C 
BRANCH   1  22
ATOM     22  C   UNL     1      -3.789   3.352  24.868  0.00  0.00    -0.003 A 
ATOM     23  C   UNL     1      -4.066   3.751  25.535  0.00  0.00    +0.000 A 
ATOM     24  C   UNL     1      -4.810   3.571  25.843  0.00  0.00    +0.040 A 
ATOM     25  C   UNL     1      -5.277   2.993  25.484  0.00  0.00    +0.176 A 
ATOM     26  O   UNL     1      -6.026   2.700  25.661  0.00  0.00    -0.435 OA
ATOM     27  C   UNL     1      -6.213   2.121  25.104  0.00  0.00    +0.429 C 
ATOM     28  O   UNL     1      -5.577   2.056  24.583  0.00  0.00    -0.435 OA
ATOM     29  C   UNL     1      -4.999   2.595  24.817  0.00  0.00    +0.176 A 
ATOM     30  C   UNL     1      -4.254   2.774  24.509  0.00  0.00    +0.037 A 
ENDBRANCH   1  22
ENDBRANCH   2   1
TORSDOF 5
ENDMDL
MODEL 3
REMARK VINA RESULT:     -12.5      1.556      4.876
REMARK  Name = 
REMARK  5 active torsions:
REMARK  status: ('A' for Active; 'I' for Inactive)
REMARK    1  A    between atoms: C_1  and  N_2
REMARK    2  A    between atoms: C_1  and  C_22
REMARK    3  A    between atoms: C_5  and  C_7
REMARK    4  A    between atoms: C_10  and  C_11
REMARK    5  A    between atoms: C_11  and  C_12
REMARK                            x       y       z     vdW  Elec       q    Type
REMARK                         _______ _______ _______ _____ _____    ______ ____
ROOT
ATOM      2  N   UNL     1      -4.041  -0.776  25.052  0.00  0.00    -0.268 NA
ATOM      3  C   UNL     1      -4.503  -0.847  24.372  0.00  0.00    +0.073 C 
ATOM      4  C   UNL     1      -4.772  -0.095  24.167  0.00  0.00    +0.028 C 
ATOM      5  C   UNL     1      -4.476   0.441  24.719  0.00  0.00    +0.096 C 
ATOM      6  C   UNL     1      -4.025   0.020  25.266  0.00  0.00    +0.082 C 
ENDROOT
BRANCH   5   7
ATOM      7  C   UNL     1      -4.609   1.256  24.724  0.00  0.00    +0.227 A 
ATOM      8  N   UNL     1      -5.325   1.629  24.893  0.00  0.00    -0.112 NA
ATOM      9  N   UNL     1      -5.207   2.444  24.834  0.00  0.00    -0.111 NA
ATOM     10  C   UNL     1      -4.419   2.573  24.628  0.00  0.00    +0.231 A 
ATOM     21  O   UNL     1      -4.049   1.839  24.560  0.00  0.00    -0.423 OA
BRANCH  10  11
ATOM     11  C   UNL     1      -4.063   3.308  24.510  0.00  0.00    +0.115 C 
BRANCH  11  12
ATOM     12  C   UNL     1      -3.603   3.644  25.109  0.00  0.00    +0.008 A 
ATOM     13  C   UNL     1      -3.843   3.774  25.887  0.00  0.00    +0.095 A 
ATOM     14  N   UNL     1      -3.213   4.119  26.294  0.00  0.00    -0.244 NA
ATOM     15  C   UNL     1      -2.585   4.202  25.766  0.00  0.00    +0.081 A 
ATOM     16  C   UNL     1      -2.826   3.909  25.033  0.00  0.00    +0.016 A 
ATOM     17  C   UNL     1      -2.306   3.921  24.393  0.00  0.00    +0.001 A 
ATOM     18  C   UNL     1      -1.546   4.226  24.484  0.00  0.00    +0.000 A 
ATOM     19  C   UNL     1      -1.304   4.519  25.216  0.00  0.00    +0.002 A 
ATOM     20  C   UNL     1      -1.824   4.507  25.857  0.00  0.00    +0.019 A 
ENDBRANCH  11  12
ENDBRANCH  10  11
ENDBRANCH   5   7
BRANCH   2   1
ATOM      1  C   UNL     1      -3.662  -1.393  25.448  0.00  0.00    +0.099 C 
BRANCH   1  22
ATOM     22  C   UNL     1      -2.901  -1.622  25.223  0.00  0.00    -0.003 A 
ATOM     23  C   UNL     1      -2.796  -2.272  24.725  0.00  0.00    +0.000 A 
ATOM     24  C   UNL     1      -2.037  -2.500  24.501  0.00  0.00    +0.040 A 
ATOM     25  C   UNL     1      -1.381  -2.080  24.773  0.00  0.00    +0.176 A 
ATOM     26  O   UNL     1      -0.572  -2.175  24.647  0.00  0.00    -0.435 OA
ATOM     27  C   UNL     1      -0.177  -1.584  25.065  0.00  0.00    +0.429 C 
ATOM     28  O   UNL     1      -0.742  -1.124  25.451  0.00  0.00    -0.435 OA
ATOM     29  C   UNL     1      -1.486  -1.430  25.271  0.00  0.00    +0.176 A 
ATOM     30  C   UNL     1      -2.247  -1.201  25.496  0.00  0.00    +0.037 A 
ENDBRANCH   1  22
ENDBRANCH   2   1
TORSDOF 5
ENDMDL
MODEL 4
REMARK VINA RESULT:     -12.3      2.175      5.457
REMARK  Name = 
REMARK  5 active torsions:
REMARK  status: ('A' for Active; 'I' for Inactive)
REMARK    1  A    between atoms: C_1  and  N_2
REMARK    2  A    between atoms: C_1  and  C_22
REMARK    3  A    between atoms: C_5  and  C_7
REMARK    4  A    between atoms: C_10  and  C_11
REMARK    5  A    between atoms: C_11  and  C_12
REMARK                            x       y       z     vdW  Elec       q    Type
REMARK                         _______ _______ _______ _____ _____    ______ ____
ROOT
ATOM      2  N   UNL     1      -0.608  -0.498  24.787  0.00  0.00    -0.268 NA
ATOM      3  C   UNL     1      -0.141  -0.472  24.107  0.00  0.00    +0.073 C 
ATOM      4  C   UNL     1      -0.056   0.318  23.886  0.00  0.00    +0.028 C 
ATOM      5  C   UNL     1      -0.471   0.780  24.430  0.00  0.00    +0.096 C 
ATOM      6  C   UNL     1      -0.811   0.276  24.986  0.00  0.00    +0.082 C 
ENDROOT
BRANCH   5   7
ATOM      7  C   UNL     1      -0.533   1.603  24.418  0.00  0.00    +0.227 A 
ATOM      8  N   UNL     1       0.094   2.137  24.459  0.00  0.00    -0.112 NA
ATOM      9  N   UNL     1      -0.219   2.901  24.430  0.00  0.00    -0.111 NA
ATOM     10  C   UNL     1      -1.039   2.837  24.372  0.00  0.00    +0.231 A 
ATOM     21  O   UNL     1      -1.233   2.036  24.365  0.00  0.00    -0.423 OA
BRANCH  10  11
ATOM     11  C   UNL     1      -1.572   3.466  24.328  0.00  0.00    +0.115 C 
BRANCH  11  12
ATOM     12  C   UNL     1      -2.069   3.630  24.967  0.00  0.00    +0.008 A 
ATOM     13  C   UNL     1      -1.826   3.816  25.734  0.00  0.00    +0.095 A 
ATOM     14  N   UNL     1      -2.501   3.938  26.192  0.00  0.00    -0.244 NA
ATOM     15  C   UNL     1      -3.161   3.827  25.709  0.00  0.00    +0.081 A 
ATOM     16  C   UNL     1      -2.894   3.637  24.952  0.00  0.00    +0.016 A 
ATOM     17  C   UNL     1      -3.436   3.494  24.347  0.00  0.00    +0.001 A 
ATOM     18  C   UNL     1      -4.245   3.542  24.498  0.00  0.00    +0.000 A 
ATOM     19  C   UNL     1      -4.512   3.732  25.254  0.00  0.00    +0.002 A 
ATOM     20  C   UNL     1      -3.970   3.875  25.860  0.00  0.00    +0.019 A 
ENDBRANCH  11  12
ENDBRANCH  10  11
ENDBRANCH   5   7
BRANCH   2   1
ATOM      1  C   UNL     1      -0.832  -1.179  25.195  0.00  0.00    +0.099 C 
BRANCH   1  22
ATOM     22  C   UNL     1      -1.612  -1.448  25.154  0.00  0.00    -0.003 A 
ATOM     23  C   UNL     1      -2.178  -1.155  25.677  0.00  0.00    +0.000 A 
ATOM     24  C   UNL     1      -2.956  -1.424  25.635  0.00  0.00    +0.040 A 
ATOM     25  C   UNL     1      -3.170  -1.986  25.070  0.00  0.00    +0.176 A 
ATOM     26  O   UNL     1      -3.888  -2.351  24.898  0.00  0.00    -0.435 OA
ATOM     27  C   UNL     1      -3.766  -2.870  24.268  0.00  0.00    +0.429 C 
ATOM     28  O   UNL     1      -2.972  -2.825  24.051  0.00  0.00    -0.435 OA
ATOM     29  C   UNL     1      -2.603  -2.279  24.546  0.00  0.00    +0.176 A 
ATOM     30  C   UNL     1      -1.824  -2.010  24.588  0.00  0.00    +0.037 A 
ENDBRANCH   1  22
ENDBRANCH   2   1
TORSDOF 5
ENDMDL
MODEL 5
REMARK VINA RESULT:     -12.2      1.629      3.044
REMARK  Name = 
REMARK  5 active torsions:
REMARK  status: ('A' for Active; 'I' for Inactive)
REMARK    1  A    between atoms: C_1  and  N_2
REMARK    2  A    between atoms: C_1  and  C_22
REMARK    3  A    between atoms: C_5  and  C_7
REMARK    4  A    between atoms: C_10  and  C_11
REMARK    5  A    between atoms: C_11  and  C_12
REMARK                            x       y       z     vdW  Elec       q    Type
REMARK                         _______ _______ _______ _____ _____    ______ ____
ROOT
ATOM      2  N   UNL     1      -1.013   2.901  25.371  0.00  0.00    -0.268 NA
ATOM      3  C   UNL     1      -0.289   2.752  25.739  0.00  0.00    +0.073 C 
ATOM      4  C   UNL     1      -0.172   1.936  25.749  0.00  0.00    +0.028 C 
ATOM      5  C   UNL     1      -0.823   1.581  25.388  0.00  0.00    +0.096 C 
ATOM      6  C   UNL     1      -1.342   2.177  25.154  0.00  0.00    +0.082 C 
ENDROOT
BRANCH   5   7
ATOM      7  C   UNL     1      -0.935   0.770  25.279  0.00  0.00    +0.227 A 
ATOM      8  N   UNL     1      -0.397   0.249  24.934  0.00  0.00    -0.112 NA
ATOM      9  N   UNL     1      -0.734  -0.506  24.939  0.00  0.00    -0.111 NA
ATOM     10  C   UNL     1      -1.480  -0.448  25.287  0.00  0.00    +0.231 A 
ATOM     21  O   UNL     1      -1.604   0.339  25.498  0.00  0.00    -0.423 OA
BRANCH  10  11
ATOM     11  C   UNL     1      -2.009  -1.071  25.405  0.00  0.00    +0.115 C 
BRANCH  11  12
ATOM     12  C   UNL     1      -2.721  -1.091  24.987  0.00  0.00    +0.008 A 
ATOM     13  C   UNL     1      -3.182  -0.438  24.785  0.00  0.00    +0.095 A 
ATOM     14  N   UNL     1      -3.842  -0.710  24.371  0.00  0.00    -0.244 NA
ATOM     15  C   UNL     1      -3.788  -1.531  24.317  0.00  0.00    +0.081 A 
ATOM     16  C   UNL     1      -3.095  -1.767  24.698  0.00  0.00    +0.016 A 
ATOM     17  C   UNL     1      -2.894  -2.567  24.732  0.00  0.00    +0.001 A 
ATOM     18  C   UNL     1      -3.386  -3.130  24.386  0.00  0.00    +0.000 A 
ATOM     19  C   UNL     1      -4.078  -2.895  24.005  0.00  0.00    +0.002 A 
ATOM     20  C   UNL     1      -4.279  -2.096  23.971  0.00  0.00    +0.019 A 
ENDBRANCH  11  12
ENDBRANCH  10  11
ENDBRANCH   5   7
BRANCH   2   1
ATOM      1  C   UNL     1      -1.348   3.644  25.243  0.00  0.00    +0.099 C 
BRANCH   1  22
ATOM     22  C   UNL     1      -2.149   3.769  25.400  0.00  0.00    -0.003 A 
ATOM     23  C   UNL     1      -2.386   4.031  26.146  0.00  0.00    +0.000 A 
ATOM     24  C   UNL     1      -3.186   4.156  26.303  0.00  0.00    +0.040 A 
ATOM     25  C   UNL     1      -3.749   4.019  25.715  0.00  0.00    +0.176 A 
ATOM     26  O   UNL     1      -4.570   4.093  25.709  0.00  0.00    -0.435 OA
ATOM     27  C   UNL     1      -4.840   3.877  24.960  0.00  0.00    +0.429 C 
ATOM     28  O   UNL     1      -4.185   3.669  24.503  0.00  0.00    -0.435 OA
ATOM     29  C   UNL     1      -3.511   3.757  24.970  0.00  0.00    +0.176 A 
ATOM     30  C   UNL     1      -2.710   3.632  24.812  0.00  0.00    +0.037 A 
ENDBRANCH   1  22
ENDBRANCH   2   1
TORSDOF 5
ENDMDL
MODEL 6
REMARK VINA RESULT:     -12.1      1.488      2.288
REMARK  Name = 
REMARK  5 active torsions:
REMARK  status: ('A' for Active; 'I' for Inactive)
REMARK    1  A    between atoms: C_1  and  N_2
REMARK    2  A    between atoms: C_1  and  C_22
REMARK    3  A    between atoms: C_5  and  C_7
REMARK    4  A    between atoms: C_10  and  C_11
REMARK    5  A    between atoms: C_11  and  C_12
REMARK                            x       y       z     vdW  Elec       q    Type
REMARK                         _______ _______ _______ _____ _____    ______ ____
ROOT
ATOM      2  N   UNL     1      -4.650   2.586  24.779  0.00  0.00    -0.268 NA
ATOM      3  C   UNL     1      -5.376   2.399  25.122  0.00  0.00    +0.073 C 
ATOM      4  C   UNL     1      -5.416   1.579  25.203  0.00  0.00    +0.028 C 
ATOM      5  C   UNL     1      -4.714   1.260  24.910  0.00  0.00    +0.096 C 
ATOM      6  C   UNL     1      -4.241   1.882  24.648  0.00  0.00    +0.082 C 
ENDROOT
BRANCH   5   7
ATOM      7  C   UNL     1      -4.520   0.458  24.884  0.00  0.00    +0.227 A 
ATOM      8  N   UNL     1      -4.829  -0.099  24.360  0.00  0.00    -0.112 NA
ATOM      9  N   UNL     1      -4.482  -0.829  24.529  0.00  0.00    -0.111 NA
ATOM     10  C   UNL     1      -3.959  -0.722  25.159  0.00  0.00    +0.231 A 
ATOM     21  O   UNL     1      -3.983   0.073  25.377  0.00  0.00    -0.423 OA
BRANCH  10  11
ATOM     11  C   UNL     1      -3.495  -1.308  25.507  0.00  0.00    +0.115 C 
BRANCH  11  12
ATOM     12  C   UNL     1      -2.891  -1.668  25.074  0.00  0.00    +0.008 A 
ATOM     13  C   UNL     1      -2.994  -2.194  24.447  0.00  0.00    +0.095 A 
ATOM     14  N   UNL     1      -2.247  -2.417  24.176  0.00  0.00    -0.244 NA
ATOM     15  C   UNL     1      -1.683  -2.028  24.636  0.00  0.00    +0.081 A 
ATOM     16  C   UNL     1      -2.081  -1.566  25.191  0.00  0.00    +0.016 A 
ATOM     17  C   UNL     1      -1.655  -1.111  25.731  0.00  0.00    +0.001 A 
ATOM     18  C   UNL     1      -0.831  -1.118  25.717  0.00  0.00    +0.000 A 
ATOM     19  C   UNL     1      -0.432  -1.581  25.163  0.00  0.00    +0.002 A 
ATOM     20  C   UNL     1      -0.858  -2.036  24.622  0.00  0.00    +0.019 A 
ENDBRANCH  11  12
ENDBRANCH  10  11
ENDBRANCH   5   7
BRANCH   2   1
ATOM      1  C   UNL     1      -4.380   3.344  24.599  0.00  0.00    +0.099 C 
BRANCH   1  22
ATOM     22  C   UNL     1      -3.679   3.624  24.933  0.00  0.00    -0.003 A 
ATOM     23  C   UNL     1      -3.679   3.920  25.703  0.00  0.00    +0.000 A 
ATOM     24  C   UNL     1      -2.979   4.199  26.037  0.00  0.00    +0.040 A 
ATOM     25  C   UNL     1      -2.278   4.182  25.602  0.00  0.00    +0.176 A 
ATOM     26  O   UNL     1      -1.509   4.418  25.784  0.00  0.00    -0.435 OA
ATOM     27  C   UNL     1      -1.033   4.267  25.127  0.00  0.00    +0.429 C 
ATOM     28  O   UNL     1      -1.509   3.938  24.539  0.00  0.00    -0.435 OA
ATOM     29  C   UNL     1      -2.278   3.886  24.833  0.00  0.00    +0.176 A 
ATOM     30  C   UNL     1      -2.979   3.606  24.498  0.00  0.00    +0.037 A 
ENDBRANCH   1  22
ENDBRANCH   2   1
TORSDOF 5
ENDMDL
