MODEL 1
REMARK VINA RESULT:      -8.3      0.000      0.000
REMARK  Name = 
REMARK  8 active torsions:
REMARK  status: ('A' for Active; 'I' for Inactive)
REMARK    1  A    between atoms: O_2  and  C_3
REMARK    2  A    between atoms: C_3  and  C_4
REMARK    3  A    between atoms: C_4  and  N_5
REMARK    4  A    between atoms: N_5  and  C_6
REMARK    5  A    between atoms: C_9  and  C_12
REMARK    6  A    between atoms: C_15  and  C_17
REMARK    7  A    between atoms: N_21  and  C_22
REMARK    8  A    between atoms: C_22  and  C_23
REMARK                            x       y       z     vdW  Elec       q    Type
REMARK                         _______ _______ _______ _____ _____    ______ ____
ROOT
ATOM     12  C   UNL     1      -1.157   0.155  24.534  0.00  0.00    +0.205 A 
ATOM     13  N   UNL     1      -1.205   0.086  25.354  0.00  0.00    -0.056 NA
ATOM     14  O   UNL     1      -1.998   0.158  25.571  0.00  0.00    -0.336 OA
ATOM     15  C   UNL     1      -2.440   0.272  24.884  0.00  0.00    +0.251 A 
ATOM     16  N   UNL     1      -1.921   0.270  24.243  0.00  0.00    -0.190 NA
ENDROOT
BRANCH  12   9
ATOM      6  C   UNL     1       0.912   0.037  23.181  0.00  0.00    +0.148 A 
ATOM      7  C   UNL     1       0.562   0.767  23.335  0.00  0.00    +0.036 A 
ATOM      8  C   UNL     1      -0.128   0.806  23.786  0.00  0.00    +0.008 A 
ATOM      9  C   UNL     1      -0.467   0.115  24.083  0.00  0.00    +0.058 A 
ATOM     10  C   UNL     1      -0.116  -0.616  23.928  0.00  0.00    +0.103 A 
ATOM     11  N   UNL     1       0.574  -0.655  23.477  0.00  0.00    -0.228 NA
BRANCH   6   5
ATOM      5  N   UNL     1       1.602  -0.002  22.730  0.00  0.00    -0.218 NA
BRANCH   5   4
ATOM      4  C   UNL     1       2.292   0.363  22.998  0.00  0.00    +0.146 C 
BRANCH   4   3
ATOM      3  C   UNL     1       2.998   0.267  22.583  0.00  0.00    +0.166 C 
BRANCH   3   2
ATOM      1  C   UNL     1       4.386   0.545  22.774  0.00  0.00    +0.174 C 
ATOM      2  O   UNL     1       3.611   0.811  22.680  0.00  0.00    -0.349 OA
ENDBRANCH   3   2
ENDBRANCH   4   3
ENDBRANCH   5   4
ENDBRANCH   6   5
ENDBRANCH  12   9
BRANCH  15  17
ATOM     17  C   UNL     1      -3.258   0.370  24.845  0.00  0.00    +0.138 C 
ATOM     18  C   UNL     1      -3.815  -0.232  24.760  0.00  0.00    +0.027 C 
ATOM     19  C   UNL     1      -4.564   0.114  24.747  0.00  0.00    +0.019 C 
ATOM     20  C   UNL     1      -4.470   0.930  24.823  0.00  0.00    +0.073 C 
ATOM     21  N   UNL     1      -3.663   1.088  24.884  0.00  0.00    -0.262 NA
BRANCH  21  22
ATOM     22  C   UNL     1      -3.321   1.834  24.969  0.00  0.00    +0.106 C 
BRANCH  22  23
ATOM     23  C   UNL     1      -3.773   2.512  24.845  0.00  0.00    +0.023 A 
ATOM     24  C   UNL     1      -3.906   2.882  24.120  0.00  0.00    +0.004 A 
ATOM     25  C   UNL     1      -4.387   3.538  24.251  0.00  0.00    +0.007 A 
ATOM     26  C   UNL     1      -4.553   3.575  25.059  0.00  0.00    +0.035 A 
ATOM     27  S   UNL     1      -4.173   2.941  25.426  0.00  0.00    -0.089 S 
ENDBRANCH  22  23
ENDBRANCH  21  22
ENDBRANCH  15  17
TORSDOF 8
ENDMDL
MODEL 2
REMARK VINA RESULT:      -7.6      3.564      4.733
REMARK  Name = 
REMARK  8 active torsions:
REMARK  status: ('A' for Active; 'I' for Inactive)
REMARK    1  A    between atoms: O_2  and  C_3
REMARK    2  A    between atoms: C_3  and  C_4
REMARK    3  A    between atoms: C_4  and  N_5
REMARK    4  A    between atoms: N_5  and  C_6
REMARK    5  A    between atoms: C_9  and  C_12
REMARK    6  A    between atoms: C_15  and  C_17
REMARK    7  A    between atoms: N_21  and  C_22
REMARK    8  A    between atoms: C_22  and  C_23
REMARK                            x       y       z     vdW  Elec       q    Type
REMARK                         _______ _______ _______ _____ _____    ______ ____
ROOT
ATOM     12  C   UNL     1      -4.195   1.845  24.624  0.00  0.00    +0.205 A 
ATOM     13  N   UNL     1      -4.624   2.414  24.208  0.00  0.00    -0.056 NA
ATOM     14  O   UNL     1      -4.460   3.151  24.540  0.00  0.00    -0.336 OA
ATOM     15  C   UNL     1      -3.929   3.039  25.162  0.00  0.00    +0.251 A 
ATOM     16  N   UNL     1      -3.765   2.231  25.214  0.00  0.00    -0.190 NA
ENDROOT
BRANCH  12   9
ATOM      6  C   UNL     1      -4.195  -0.590  24.183  0.00  0.00    +0.148 A 
ATOM      7  C   UNL     1      -4.685  -0.277  24.767  0.00  0.00    +0.036 A 
ATOM      8  C   UNL     1      -4.685   0.535  24.914  0.00  0.00    +0.008 A 
ATOM      9  C   UNL     1      -4.195   1.034  24.477  0.00  0.00    +0.058 A 
ATOM     10  C   UNL     1      -3.704   0.720  23.892  0.00  0.00    +0.103 A 
ATOM     11  N   UNL     1      -3.704  -0.092  23.745  0.00  0.00    -0.228 NA
BRANCH   6   5
ATOM      5  N   UNL     1      -4.195  -1.402  24.036  0.00  0.00    -0.218 NA
BRANCH   5   4
ATOM      4  C   UNL     1      -3.616  -1.883  24.375  0.00  0.00    +0.146 C 
BRANCH   4   3
ATOM      3  C   UNL     1      -3.568  -2.680  24.166  0.00  0.00    +0.166 C 
BRANCH   3   2
ATOM      1  C   UNL     1      -2.246  -3.164  24.412  0.00  0.00    +0.174 C 
ATOM      2  O   UNL     1      -3.055  -3.182  24.574  0.00  0.00    -0.349 OA
ENDBRANCH   3   2
ENDBRANCH   4   3
ENDBRANCH   5   4
ENDBRANCH   6   5
ENDBRANCH  12   9
BRANCH  15  17
ATOM     17  C   UNL     1      -3.618   3.629  25.646  0.00  0.00    +0.138 C 
ATOM     18  C   UNL     1      -3.954   3.910  26.344  0.00  0.00    +0.027 C 
ATOM     19  C   UNL     1      -3.458   4.497  26.647  0.00  0.00    +0.019 C 
ATOM     20  C   UNL     1      -2.816   4.577  26.136  0.00  0.00    +0.073 C 
ATOM     21  N   UNL     1      -2.914   4.041  25.518  0.00  0.00    -0.262 NA
BRANCH  21  22
ATOM     22  C   UNL     1      -2.400   3.935  24.882  0.00  0.00    +0.106 C 
BRANCH  22  23
ATOM     23  C   UNL     1      -1.643   4.262  24.905  0.00  0.00    +0.023 A 
ATOM     24  C   UNL     1      -1.459   5.063  24.831  0.00  0.00    +0.004 A 
ATOM     25  C   UNL     1      -0.640   5.143  24.886  0.00  0.00    +0.007 A 
ATOM     26  C   UNL     1      -0.317   4.391  24.993  0.00  0.00    +0.035 A 
ATOM     27  S   UNL     1      -0.938   3.847  25.005  0.00  0.00    -0.089 S 
ENDBRANCH  22  23
ENDBRANCH  21  22
ENDBRANCH  15  17
TORSDOF 8
ENDMDL
MODEL 3
REMARK VINA RESULT:      -7.6      2.475      3.797
REMARK  Name = 
REMARK  8 active torsions:
REMARK  status: ('A' for Active; 'I' for Inactive)
REMARK    1  A    between atoms: O_2  and  C_3
REMARK    2  A    between atoms: C_3  and  C_4
REMARK    3  A    between atoms: C_4  and  N_5
REMARK    4  A    between atoms: N_5  and  C_6
REMARK    5  A    between atoms: C_9  and  C_12
REMARK    6  A    between atoms: C_15  and  C_17
REMARK    7  A    between atoms: N_21  and  C_22
REMARK    8  A    between atoms: C_22  and  C_23
REMARK                            x       y       z     vdW  Elec       q    Type
REMARK                         _______ _______ _______ _____ _____    ______ ____
ROOT
ATOM     12  C   UNL     1      -0.722   1.606  25.428  0.00  0.00    +0.205 A 
ATOM     13  N   UNL     1      -0.160   1.924  25.942  0.00  0.00    -0.056 NA
ATOM     14  O   UNL     1      -0.273   2.741  25.969  0.00  0.00    -0.336 OA
ATOM     15  C   UNL     1      -0.904   2.929  25.473  0.00  0.00    +0.251 A 
ATOM     16  N   UNL     1      -1.182   2.227  25.138  0.00  0.00    -0.190 NA
ENDROOT
BRANCH  12   9
ATOM      6  C   UNL     1      -0.983  -0.788  24.858  0.00  0.00    +0.148 A 
ATOM      7  C   UNL     1      -1.205  -0.515  25.604  0.00  0.00    +0.036 A 
ATOM      8  C   UNL     1      -1.118   0.283  25.794  0.00  0.00    +0.008 A 
ATOM      9  C   UNL     1      -0.809   0.808  25.238  0.00  0.00    +0.058 A 
ATOM     10  C   UNL     1      -0.587   0.535  24.492  0.00  0.00    +0.103 A 
ATOM     11  N   UNL     1      -0.674  -0.263  24.301  0.00  0.00    -0.228 NA
BRANCH   6   5
ATOM      5  N   UNL     1      -1.070  -1.586  24.668  0.00  0.00    -0.218 NA
BRANCH   5   4
ATOM      4  C   UNL     1      -1.780  -1.974  24.831  0.00  0.00    +0.146 C 
BRANCH   4   3
ATOM      3  C   UNL     1      -2.056  -2.562  24.323  0.00  0.00    +0.166 C 
BRANCH   3   2
ATOM      1  C   UNL     1      -3.441  -2.907  24.253  0.00  0.00    +0.174 C 
ATOM      2  O   UNL     1      -2.684  -3.045  24.552  0.00  0.00    -0.349 OA
ENDBRANCH   3   2
ENDBRANCH   4   3
ENDBRANCH   5   4
ENDBRANCH   6   5
ENDBRANCH  12   9
BRANCH  15  17
ATOM     17  C   UNL     1      -1.205   3.684  25.335  0.00  0.00    +0.138 C 
ATOM     18  C   UNL     1      -0.774   4.337  25.078  0.00  0.00    +0.027 C 
ATOM     19  C   UNL     1      -1.293   4.976  25.013  0.00  0.00    +0.019 C 
ATOM     20  C   UNL     1      -2.045   4.716  25.231  0.00  0.00    +0.073 C 
ATOM     21  N   UNL     1      -1.991   3.918  25.429  0.00  0.00    -0.262 NA
BRANCH  21  22
ATOM     22  C   UNL     1      -2.613   3.438  25.678  0.00  0.00    +0.106 C 
BRANCH  22  23
ATOM     23  C   UNL     1      -3.385   3.609  25.445  0.00  0.00    +0.023 A 
ATOM     24  C   UNL     1      -3.687   3.542  24.680  0.00  0.00    +0.004 A 
ATOM     25  C   UNL     1      -4.480   3.768  24.697  0.00  0.00    +0.007 A 
ATOM     26  C   UNL     1      -4.669   3.976  25.474  0.00  0.00    +0.035 A 
ATOM     27  S   UNL     1      -3.992   3.877  25.935  0.00  0.00    -0.089 S 
ENDBRANCH  22  23
ENDBRANCH  21  22
ENDBRANCH  15  17
TORSDOF 8
ENDMDL
MODEL 4
REMARK VINA RESULT:      -7.4      1.517      2.527
REMARK  Name = 
REMARK  8 active torsions:
REMARK  status: ('A' for Active; 'I' for Inactive)
REMARK    1  A    between atoms: O_2  and  C_3
REMARK    2  A    between atoms: C_3  and  C_4
REMARK    3  A    between atoms: C_4  and  N_5
REMARK    4  A    between atoms: N_5  and  C_6
REMARK    5  A    between atoms: C_9  and  C_12
REMARK    6  A    between atoms: C_15  and  C_17
REMARK    7  A    between atoms: N_21  and  C_22
REMARK    8  A    between atoms: C_22  and  C_23
REMARK                            x       y       z     vdW  Elec       q    Type
REMARK                         _______ _______ _______ _____ _____    ______ ____
ROOT
ATOM     12  C   UNL     1      -0.700   0.550  24.453  0.00  0.00    +0.205 A 
ATOM     13  N   UNL     1      -0.752   0.675  25.266  0.00  0.00    -0.056 NA
ATOM     14  O   UNL     1      -1.549   0.659  25.477  0.00  0.00    -0.336 OA
ATOM     15  C   UNL     1      -1.991   0.524  24.794  0.00  0.00    +0.251 A 
ATOM     16  N   UNL     1      -1.466   0.456  24.160  0.00  0.00    -0.190 NA
ENDROOT
BRANCH  12   9
ATOM      6  C   UNL     1       1.385   0.467  23.122  0.00  0.00    +0.148 A 
ATOM      7  C   UNL     1       0.904  -0.200  23.175  0.00  0.00    +0.036 A 
ATOM      8  C   UNL     1       0.209  -0.172  23.619  0.00  0.00    +0.008 A 
ATOM      9  C   UNL     1      -0.005   0.522  24.009  0.00  0.00    +0.058 A 
ATOM     10  C   UNL     1       0.477   1.190  23.955  0.00  0.00    +0.103 A 
ATOM     11  N   UNL     1       1.172   1.163  23.512  0.00  0.00    -0.228 NA
BRANCH   6   5
ATOM      5  N   UNL     1       2.080   0.440  22.678  0.00  0.00    -0.218 NA
BRANCH   5   4
ATOM      4  C   UNL     1       2.807   0.589  23.040  0.00  0.00    +0.146 C 
BRANCH   4   3
ATOM      3  C   UNL     1       3.508   0.470  22.622  0.00  0.00    +0.166 C 
BRANCH   3   2
ATOM      1  C   UNL     1       4.867   0.350  23.046  0.00  0.00    +0.174 C 
ATOM      2  O   UNL     1       4.208   0.819  22.883  0.00  0.00    -0.349 OA
ENDBRANCH   3   2
ENDBRANCH   4   3
ENDBRANCH   5   4
ENDBRANCH   6   5
ENDBRANCH  12   9
BRANCH  15  17
ATOM     17  C   UNL     1      -2.813   0.467  24.751  0.00  0.00    +0.138 C 
ATOM     18  C   UNL     1      -3.341   1.099  24.723  0.00  0.00    +0.027 C 
ATOM     19  C   UNL     1      -4.106   0.789  24.683  0.00  0.00    +0.019 C 
ATOM     20  C   UNL     1      -4.048  -0.033  24.686  0.00  0.00    +0.073 C 
ATOM     21  N   UNL     1      -3.250  -0.233  24.728  0.00  0.00    -0.262 NA
BRANCH  21  22
ATOM     22  C   UNL     1      -2.942  -0.998  24.744  0.00  0.00    +0.106 C 
BRANCH  22  23
ATOM     23  C   UNL     1      -3.406  -1.635  24.501  0.00  0.00    +0.023 A 
ATOM     24  C   UNL     1      -3.897  -1.652  23.839  0.00  0.00    +0.004 A 
ATOM     25  C   UNL     1      -4.256  -2.394  23.805  0.00  0.00    +0.007 A 
ATOM     26  C   UNL     1      -3.985  -2.836  24.448  0.00  0.00    +0.035 A 
ATOM     27  S   UNL     1      -3.460  -2.366  24.877  0.00  0.00    -0.089 S 
ENDBRANCH  22  23
ENDBRANCH  21  22
ENDBRANCH  15  17
TORSDOF 8
ENDMDL
MODEL 5
REMARK VINA RESULT:      -7.3      1.380      2.107
REMARK  Name = 
REMARK  8 active torsions:
REMARK  status: ('A' for Active; 'I' for Inactive)
REMARK    1  A    between atoms: O_2  and  C_3
REMARK    2  A    between atoms: C_3  and  C_4
REMARK    3  A    between atoms: C_4  and  N_5
REMARK    4  A    between atoms: N_5  and  C_6
REMARK    5  A    between atoms: C_9  and  C_12
REMARK    6  A    between atoms: C_15  and  C_17
REMARK    7  A    between atoms: N_21  and  C_22
REMARK    8  A    between atoms: C_22  and  C_23
REMARK                            x       y       z     vdW  Elec       q    Type
REMARK                         _______ _______ _______ _____ _____    ______ ____
ROOT
ATOM     12  C   UNL     1      -1.368   1.923  24.791  0.00  0.00    +0.205 A 
ATOM     13  N   UNL     1      -1.429   2.045  25.604  0.00  0.00    -0.056 NA
ATOM     14  O   UNL     1      -2.068   2.550  25.740  0.00  0.00    -0.336 OA
ATOM     15  C   UNL     1      -2.401   2.740  25.010  0.00  0.00    +0.251 A 
ATOM     16  N   UNL     1      -1.969   2.353  24.423  0.00  0.00    -0.190 NA
ENDROOT
BRANCH  12   9
ATOM      6  C   UNL     1       0.320   0.516  23.652  0.00  0.00    +0.148 A 
ATOM      7  C   UNL     1      -0.426   0.209  23.822  0.00  0.00    +0.036 A 
ATOM      8  C   UNL     1      -0.989   0.678  24.201  0.00  0.00    +0.008 A 
ATOM      9  C   UNL     1      -0.806   1.454  24.411  0.00  0.00    +0.058 A 
ATOM     10  C   UNL     1      -0.058   1.762  24.241  0.00  0.00    +0.103 A 
ATOM     11  N   UNL     1       0.504   1.293  23.862  0.00  0.00    -0.228 NA
BRANCH   6   5
ATOM      5  N   UNL     1       0.882   0.047  23.273  0.00  0.00    -0.218 NA
BRANCH   5   4
ATOM      4  C   UNL     1       1.575   0.389  22.979  0.00  0.00    +0.146 C 
BRANCH   4   3
ATOM      3  C   UNL     1       2.181  -0.091  22.690  0.00  0.00    +0.166 C 
BRANCH   3   2
ATOM      1  C   UNL     1       3.527   0.284  22.395  0.00  0.00    +0.174 C 
ATOM      2  O   UNL     1       2.737   0.220  22.166  0.00  0.00    -0.349 OA
ENDBRANCH   3   2
ENDBRANCH   4   3
ENDBRANCH   5   4
ENDBRANCH   6   5
ENDBRANCH  12   9
BRANCH  15  17
ATOM     17  C   UNL     1      -3.053   3.232  24.887  0.00  0.00    +0.138 C 
ATOM     18  C   UNL     1      -3.026   4.019  24.644  0.00  0.00    +0.027 C 
ATOM     19  C   UNL     1      -3.802   4.296  24.593  0.00  0.00    +0.019 C 
ATOM     20  C   UNL     1      -4.307   3.679  24.805  0.00  0.00    +0.073 C 
ATOM     21  N   UNL     1      -3.844   3.022  24.986  0.00  0.00    -0.262 NA
BRANCH  21  22
ATOM     22  C   UNL     1      -4.124   2.284  25.225  0.00  0.00    +0.106 C 
BRANCH  22  23
ATOM     23  C   UNL     1      -4.934   2.132  25.232  0.00  0.00    +0.023 A 
ATOM     24  C   UNL     1      -5.356   1.726  24.651  0.00  0.00    +0.004 A 
ATOM     25  C   UNL     1      -6.149   1.702  24.880  0.00  0.00    +0.007 A 
ATOM     26  C   UNL     1      -6.216   2.094  25.603  0.00  0.00    +0.035 A 
ATOM     27  S   UNL     1      -5.466   2.359  25.820  0.00  0.00    -0.089 S 
ENDBRANCH  22  23
ENDBRANCH  21  22
ENDBRANCH  15  17
TORSDOF 8
ENDMDL
MODEL 6
REMARK VINA RESULT:      -7.2      3.106      4.839
REMARK  Name = 
REMARK  8 active torsions:
REMARK  status: ('A' for Active; 'I' for Inactive)
REMARK    1  A    between atoms: O_2  and  C_3
REMARK    2  A    between atoms: C_3  and  C_4
REMARK    3  A    between atoms: C_4  and  N_5
REMARK    4  A    between atoms: N_5  and  C_6
REMARK    5  A    between atoms: C_9  and  C_12
REMARK    6  A    between atoms: C_15  and  C_17
REMARK    7  A    between atoms: N_21  and  C_22
REMARK    8  A    between atoms: C_22  and  C_23
REMARK                            x       y       z     vdW  Elec       q    Type
REMARK                         _______ _______ _______ _____ _____    ______ ____
ROOT
ATOM     12  C   UNL     1      -4.141   1.046  24.763  0.00  0.00    +0.205 A 
ATOM     13  N   UNL     1      -4.834   0.770  25.116  0.00  0.00    -0.056 NA
ATOM     14  O   UNL     1      -4.873  -0.046  24.998  0.00  0.00    -0.336 OA
ATOM     15  C   UNL     1      -4.204  -0.274  24.572  0.00  0.00    +0.251 A 
ATOM     16  N   UNL     1      -3.752   0.401  24.426  0.00  0.00    -0.190 NA
ENDROOT
BRANCH  12   9
ATOM      6  C   UNL     1      -3.366   3.396  24.720  0.00  0.00    +0.148 A 
ATOM      7  C   UNL     1      -3.504   2.994  24.013  0.00  0.00    +0.036 A 
ATOM      8  C   UNL     1      -3.762   2.211  24.027  0.00  0.00    +0.008 A 
ATOM      9  C   UNL     1      -3.883   1.829  24.748  0.00  0.00    +0.058 A 
ATOM     10  C   UNL     1      -3.746   2.232  25.456  0.00  0.00    +0.103 A 
ATOM     11  N   UNL     1      -3.487   3.015  25.442  0.00  0.00    -0.228 NA
BRANCH   6   5
ATOM      5  N   UNL     1      -3.108   4.180  24.705  0.00  0.00    -0.218 NA
BRANCH   5   4
ATOM      4  C   UNL     1      -2.390   4.384  25.058  0.00  0.00    +0.146 C 
BRANCH   4   3
ATOM      3  C   UNL     1      -2.046   5.117  24.898  0.00  0.00    +0.166 C 
BRANCH   3   2
ATOM      1  C   UNL     1      -0.636   5.312  24.776  0.00  0.00    +0.174 C 
ATOM      2  O   UNL     1      -1.320   5.314  25.237  0.00  0.00    -0.349 OA
ENDBRANCH   3   2
ENDBRANCH   4   3
ENDBRANCH   5   4
ENDBRANCH   6   5
ENDBRANCH  12   9
BRANCH  15  17
ATOM     17  C   UNL     1      -4.020  -1.042  24.333  0.00  0.00    +0.138 C 
ATOM     18  C   UNL     1      -4.470  -1.513  23.829  0.00  0.00    +0.027 C 
ATOM     19  C   UNL     1      -4.081  -2.236  23.740  0.00  0.00    +0.019 C 
ATOM     20  C   UNL     1      -3.391  -2.210  24.191  0.00  0.00    +0.073 C 
ATOM     21  N   UNL     1      -3.352  -1.473  24.557  0.00  0.00    -0.262 NA
BRANCH  21  22
ATOM     22  C   UNL     1      -2.752  -1.211  25.059  0.00  0.00    +0.106 C 
BRANCH  22  23
ATOM     23  C   UNL     1      -1.998  -1.541  25.007  0.00  0.00    +0.023 A 
ATOM     24  C   UNL     1      -1.796  -2.320  25.188  0.00  0.00    +0.004 A 
ATOM     25  C   UNL     1      -0.986  -2.411  25.058  0.00  0.00    +0.007 A 
ATOM     26  C   UNL     1      -0.688  -1.687  24.796  0.00  0.00    +0.035 A 
ATOM     27  S   UNL     1      -1.314  -1.150  24.765  0.00  0.00    -0.089 S 
ENDBRANCH  22  23
ENDBRANCH  21  22
ENDBRANCH  15  17
TORSDOF 8
ENDMDL
