REMARK  Name = 
REMARK  2 active torsions:
REMARK  status: ('A' for Active; 'I' for Inactive)
REMARK    1  A    between atoms: C_2  and  N_4
REMARK    2  A    between atoms: C_10  and  C_12
REMARK                            x       y       z     vdW  Elec       q    Type
REMARK                         _______ _______ _______ _____ _____    ______ ____
ROOT
ATOM      4  N   UNL     1      -4.144  -1.260   0.000  0.00  0.00    -0.190 NA
ATOM      5  C   UNL     1      -3.390  -1.595   0.000  0.00  0.00    +0.323 C 
ATOM      6  O   UNL     1      -3.304  -2.416   0.000  0.00  0.00    -0.251 OA
ATOM      7  N   UNL     1      -2.723  -1.110   0.000  0.00  0.00    -0.262 N 
ATOM      8  C   UNL     1      -2.723  -0.285   0.000  0.00  0.00    +0.096 C 
ATOM      9  C   UNL     1      -1.938  -0.030   0.000  0.00  0.00    +0.031 C 
ATOM     10  C   UNL     1      -1.453  -0.698   0.000  0.00  0.00    +0.080 C 
ATOM     11  C   UNL     1      -1.938  -1.365   0.000  0.00  0.00    +0.103 C 
ENDROOT
BRANCH  10  12
ATOM     12  C   UNL     1      -0.628  -0.698   0.000  0.00  0.00    +0.140 A 
ATOM     13  N   UNL     1      -0.143  -1.365   0.000  0.00  0.00    -0.229 NA
ATOM     14  C   UNL     1       0.641  -1.110   0.000  0.00  0.00    +0.100 A 
ATOM     15  C   UNL     1       0.641  -0.285   0.000  0.00  0.00    +0.100 A 
ATOM     16  N   UNL     1      -0.143  -0.030   0.000  0.00  0.00    -0.229 NA
ATOM     17  C   UNL     1       1.356   0.127   0.000  0.00  0.00    +0.020 A 
ATOM     18  C   UNL     1       2.070  -0.285   0.000  0.00  0.00    -0.003 A 
ATOM     19  C   UNL     1       2.070  -1.110   0.000  0.00  0.00    -0.020 A 
ATOM     20  C   UNL     1       2.784  -1.523   0.000  0.00  0.00    +0.031 C 
ATOM     21  C   UNL     1       1.356  -1.523   0.000  0.00  0.00    +0.016 A 
ENDBRANCH  10  12
BRANCH   4   2
ATOM      1  C   UNL     1      -5.565  -1.409   0.000  0.00  0.00    +0.023 C 
ATOM      2  C   UNL     1      -4.811  -1.745   0.000  0.00  0.00    +0.097 C 
ATOM      3  C   UNL     1      -4.725  -2.565   0.000  0.00  0.00    +0.023 C 
ENDBRANCH   4   2
TORSDOF 2
