MODEL 1
REMARK VINA RESULT:     -11.7      0.000      0.000
REMARK  Name = 
REMARK  7 active torsions:
REMARK  status: ('A' for Active; 'I' for Inactive)
REMARK    1  A    between atoms: C_2  and  C_4
REMARK    2  A    between atoms: C_4  and  C_5
REMARK    3  A    between atoms: C_7  and  C_25
REMARK    4  A    between atoms: N_11  and  C_12
REMARK    5  A    between atoms: C_12  and  C_13
REMARK    6  A    between atoms: N_27  and  C_28
REMARK    7  A    between atoms: C_28  and  C_29
REMARK                            x       y       z     vdW  Elec       q    Type
REMARK                         _______ _______ _______ _____ _____    ______ ____
ROOT
ATOM      5  C   UNL     1      -4.760   2.349  24.967  0.00  0.00    +0.095 C 
ATOM      6  N   UNL     1      -4.667   1.624  24.585  0.00  0.00    -0.207 NA
ATOM      7  C   UNL     1      -3.968   1.250  24.354  0.00  0.00    +0.155 C 
ATOM      8  C   UNL     1      -3.191   1.509  24.448  0.00  0.00    +0.055 C 
ATOM      9  C   UNL     1      -2.920   2.207  24.796  0.00  0.00    -0.002 A 
ATOM     10  C   UNL     1      -2.121   2.404  24.856  0.00  0.00    +0.072 A 
ATOM     11  N   UNL     1      -2.066   3.136  25.233  0.00  0.00    -0.322 N 
ATOM     19  C   UNL     1      -2.831   3.391  25.406  0.00  0.00    +0.060 A 
ATOM     20  C   UNL     1      -3.359   2.817  25.136  0.00  0.00    +0.011 A 
ATOM     21  C   UNL     1      -4.179   2.880  25.212  0.00  0.00    -0.005 A 
ATOM     22  C   UNL     1      -4.456   3.604  25.602  0.00  0.00    -0.003 A 
ATOM     23  C   UNL     1      -3.929   4.179  25.873  0.00  0.00    +0.001 A 
ATOM     24  C   UNL     1      -3.116   4.072  25.774  0.00  0.00    +0.017 A 
ENDROOT
BRANCH   7  25
ATOM     25  C   UNL     1      -4.060   0.520  23.980  0.00  0.00    +0.258 C 
ATOM     26  O   UNL     1      -4.197   0.487  23.168  0.00  0.00    -0.272 OA
ATOM     27  N   UNL     1      -4.015  -0.177  24.420  0.00  0.00    -0.198 NA
BRANCH  27  28
ATOM     28  C   UNL     1      -4.106  -0.906  24.047  0.00  0.00    +0.161 C 
BRANCH  28  29
ATOM     29  C   UNL     1      -3.854  -1.597  24.422  0.00  0.00    +0.081 A 
ATOM     30  N   UNL     1      -3.629  -1.575  25.216  0.00  0.00    -0.246 NA
ATOM     31  C   UNL     1      -3.377  -2.266  25.592  0.00  0.00    +0.099 A 
ATOM     32  C   UNL     1      -3.349  -2.976  25.174  0.00  0.00    +0.021 A 
ATOM     33  C   UNL     1      -3.573  -2.997  24.380  0.00  0.00    +0.003 A 
ATOM     34  C   UNL     1      -3.825  -2.307  24.004  0.00  0.00    +0.017 A 
ENDBRANCH  28  29
ENDBRANCH  27  28
ENDBRANCH   7  25
BRANCH   5   4
ATOM      4  C   UNL     1      -5.538   2.573  25.124  0.00  0.00    +0.022 C 
BRANCH   4   2
ATOM      1  C   UNL     1      -6.098   1.697  26.105  0.00  0.00    +0.000 C 
ATOM      2  C   UNL     1      -6.096   2.003  25.339  0.00  0.00    +0.002 C 
ATOM      3  C   UNL     1      -6.651   1.740  24.787  0.00  0.00    +0.000 C 
ENDBRANCH   4   2
ENDBRANCH   5   4
BRANCH  11  12
ATOM     12  C   UNL     1      -1.370   3.541  25.407  0.00  0.00    +0.133 C 
BRANCH  12  13
ATOM     13  C   UNL     1      -0.670   3.124  25.536  0.00  0.00    +0.003 A 
ATOM     14  C   UNL     1      -0.174   2.947  24.901  0.00  0.00    +0.018 A 
ATOM     15  C   UNL     1       0.527   2.529  25.030  0.00  0.00    +0.099 A 
ATOM     16  N   UNL     1       0.730   2.290  25.793  0.00  0.00    -0.242 NA
ATOM     17  C   UNL     1       0.233   2.469  26.428  0.00  0.00    +0.099 A 
ATOM     18  C   UNL     1      -0.467   2.886  26.299  0.00  0.00    +0.018 A 
ENDBRANCH  12  13
ENDBRANCH  11  12
TORSDOF 7
ENDMDL
MODEL 2
REMARK VINA RESULT:     -11.6      1.740      4.604
REMARK  Name = 
REMARK  7 active torsions:
REMARK  status: ('A' for Active; 'I' for Inactive)
REMARK    1  A    between atoms: C_2  and  C_4
REMARK    2  A    between atoms: C_4  and  C_5
REMARK    3  A    between atoms: C_7  and  C_25
REMARK    4  A    between atoms: N_11  and  C_12
REMARK    5  A    between atoms: C_12  and  C_13
REMARK    6  A    between atoms: N_27  and  C_28
REMARK    7  A    between atoms: C_28  and  C_29
REMARK                            x       y       z     vdW  Elec       q    Type
REMARK                         _______ _______ _______ _____ _____    ______ ____
ROOT
ATOM      5  C   UNL     1      -2.561   2.737  24.819  0.00  0.00    +0.095 C 
ATOM      6  N   UNL     1      -1.767   2.517  24.856  0.00  0.00    -0.207 NA
ATOM      7  C   UNL     1      -1.444   1.759  24.895  0.00  0.00    +0.155 C 
ATOM      8  C   UNL     1      -1.836   1.033  24.906  0.00  0.00    +0.055 C 
ATOM      9  C   UNL     1      -2.647   0.886  24.880  0.00  0.00    -0.002 A 
ATOM     10  C   UNL     1      -2.973   0.128  24.895  0.00  0.00    +0.072 A 
ATOM     11  N   UNL     1      -3.794   0.202  24.861  0.00  0.00    -0.322 N 
ATOM     19  C   UNL     1      -3.976   1.006  24.826  0.00  0.00    +0.060 A 
ATOM     20  C   UNL     1      -3.267   1.429  24.838  0.00  0.00    +0.011 A 
ATOM     21  C   UNL     1      -3.228   2.253  24.810  0.00  0.00    -0.005 A 
ATOM     22  C   UNL     1      -3.997   2.655  24.767  0.00  0.00    -0.003 A 
ATOM     23  C   UNL     1      -4.706   2.233  24.755  0.00  0.00    +0.001 A 
ATOM     24  C   UNL     1      -4.695   1.408  24.785  0.00  0.00    +0.017 A 
ENDROOT
BRANCH   7  25
ATOM     25  C   UNL     1      -0.620   1.722  24.928  0.00  0.00    +0.258 C 
ATOM     26  O   UNL     1      -0.223   1.958  25.611  0.00  0.00    -0.272 OA
ATOM     27  N   UNL     1      -0.194   1.448  24.276  0.00  0.00    -0.198 NA
BRANCH  27  28
ATOM     28  C   UNL     1       0.629   1.411  24.308  0.00  0.00    +0.161 C 
BRANCH  28  29
ATOM     29  C   UNL     1       1.045   0.978  23.741  0.00  0.00    +0.081 A 
ATOM     30  N   UNL     1       1.820   1.188  23.550  0.00  0.00    -0.246 NA
ATOM     31  C   UNL     1       2.236   0.755  22.983  0.00  0.00    +0.099 A 
ATOM     32  C   UNL     1       1.877   0.114  22.608  0.00  0.00    +0.021 A 
ATOM     33  C   UNL     1       1.102  -0.095  22.800  0.00  0.00    +0.003 A 
ATOM     34  C   UNL     1       0.686   0.337  23.366  0.00  0.00    +0.017 A 
ENDBRANCH  28  29
ENDBRANCH  27  28
ENDBRANCH   7  25
BRANCH   5   4
ATOM      4  C   UNL     1      -2.706   3.548  24.785  0.00  0.00    +0.022 C 
BRANCH   4   2
ATOM      1  C   UNL     1      -1.675   4.523  24.955  0.00  0.00    +0.000 C 
ATOM      2  C   UNL     1      -2.283   4.063  25.271  0.00  0.00    +0.002 C 
ATOM      3  C   UNL     1      -2.468   4.119  26.074  0.00  0.00    +0.000 C 
ENDBRANCH   4   2
ENDBRANCH   5   4
BRANCH  11  12
ATOM     12  C   UNL     1      -4.338  -0.418  24.862  0.00  0.00    +0.133 C 
BRANCH  12  13
ATOM     13  C   UNL     1      -4.087  -1.187  24.701  0.00  0.00    +0.003 A 
ATOM     14  C   UNL     1      -3.719  -1.632  25.289  0.00  0.00    +0.018 A 
ATOM     15  C   UNL     1      -3.468  -2.402  25.128  0.00  0.00    +0.099 A 
ATOM     16  N   UNL     1      -3.587  -2.726  24.378  0.00  0.00    -0.242 NA
ATOM     17  C   UNL     1      -3.956  -2.280  23.790  0.00  0.00    +0.099 A 
ATOM     18  C   UNL     1      -4.206  -1.510  23.951  0.00  0.00    +0.018 A 
ENDBRANCH  12  13
ENDBRANCH  11  12
TORSDOF 7
ENDMDL
MODEL 3
REMARK VINA RESULT:     -11.4      2.073      3.754
REMARK  Name = 
REMARK  7 active torsions:
REMARK  status: ('A' for Active; 'I' for Inactive)
REMARK    1  A    between atoms: C_2  and  C_4
REMARK    2  A    between atoms: C_4  and  C_5
REMARK    3  A    between atoms: C_7  and  C_25
REMARK    4  A    between atoms: N_11  and  C_12
REMARK    5  A    between atoms: C_12  and  C_13
REMARK    6  A    between atoms: N_27  and  C_28
REMARK    7  A    between atoms: C_28  and  C_29
REMARK                            x       y       z     vdW  Elec       q    Type
REMARK                         _______ _______ _______ _____ _____    ______ ____
ROOT
ATOM      5  C   UNL     1      -3.491  -0.477  24.895  0.00  0.00    +0.095 C 
ATOM      6  N   UNL     1      -2.681  -0.628  24.874  0.00  0.00    -0.207 NA
ATOM      7  C   UNL     1      -2.057  -0.088  24.847  0.00  0.00    +0.155 C 
ATOM      8  C   UNL     1      -2.091   0.736  24.835  0.00  0.00    +0.055 C 
ATOM      9  C   UNL     1      -2.757   1.224  24.847  0.00  0.00    -0.002 A 
ATOM     10  C   UNL     1      -2.717   2.048  24.832  0.00  0.00    +0.072 A 
ATOM     11  N   UNL     1      -3.488   2.341  24.850  0.00  0.00    -0.322 N 
ATOM     19  C   UNL     1      -4.005   1.698  24.875  0.00  0.00    +0.060 A 
ATOM     20  C   UNL     1      -3.553   1.007  24.873  0.00  0.00    +0.011 A 
ATOM     21  C   UNL     1      -3.879   0.250  24.895  0.00  0.00    -0.005 A 
ATOM     22  C   UNL     1      -4.747   0.225  24.921  0.00  0.00    -0.003 A 
ATOM     23  C   UNL     1      -5.199   0.915  24.923  0.00  0.00    +0.001 A 
ATOM     24  C   UNL     1      -4.827   1.652  24.900  0.00  0.00    +0.017 A 
ENDROOT
BRANCH   7  25
ATOM     25  C   UNL     1      -1.300  -0.416  24.830  0.00  0.00    +0.258 C 
ATOM     26  O   UNL     1      -1.033  -0.870  25.465  0.00  0.00    -0.272 OA
ATOM     27  N   UNL     1      -0.810  -0.289  24.178  0.00  0.00    -0.198 NA
BRANCH  27  28
ATOM     28  C   UNL     1      -0.054  -0.616  24.161  0.00  0.00    +0.161 C 
BRANCH  28  29
ATOM     29  C   UNL     1       0.485  -0.378  23.583  0.00  0.00    +0.081 A 
ATOM     30  N   UNL     1       1.076   0.167  23.770  0.00  0.00    -0.246 NA
ATOM     31  C   UNL     1       1.615   0.405  23.192  0.00  0.00    +0.099 A 
ATOM     32  C   UNL     1       1.564   0.097  22.428  0.00  0.00    +0.021 A 
ATOM     33  C   UNL     1       0.973  -0.448  22.242  0.00  0.00    +0.003 A 
ATOM     34  C   UNL     1       0.434  -0.686  22.819  0.00  0.00    +0.017 A 
ENDBRANCH  28  29
ENDBRANCH  27  28
ENDBRANCH   7  25
BRANCH   5   4
ATOM      4  C   UNL     1      -3.978  -1.143  24.920  0.00  0.00    +0.022 C 
BRANCH   4   2
ATOM      1  C   UNL     1      -3.931  -1.817  23.661  0.00  0.00    +0.000 C 
ATOM      2  C   UNL     1      -3.787  -1.810  24.473  0.00  0.00    +0.002 C 
ATOM      3  C   UNL     1      -3.452  -2.470  24.839  0.00  0.00    +0.000 C 
ENDBRANCH   4   2
ENDBRANCH   5   4
BRANCH  11  12
ATOM     12  C   UNL     1      -3.705   3.137  24.844  0.00  0.00    +0.133 C 
BRANCH  12  13
ATOM     13  C   UNL     1      -3.202   3.705  25.167  0.00  0.00    +0.003 A 
ATOM     14  C   UNL     1      -3.262   3.900  25.966  0.00  0.00    +0.018 A 
ATOM     15  C   UNL     1      -2.759   4.469  26.290  0.00  0.00    +0.099 A 
ATOM     16  N   UNL     1      -2.196   4.841  25.815  0.00  0.00    -0.242 NA
ATOM     17  C   UNL     1      -2.137   4.644  25.015  0.00  0.00    +0.099 A 
ATOM     18  C   UNL     1      -2.640   4.076  24.691  0.00  0.00    +0.018 A 
ENDBRANCH  12  13
ENDBRANCH  11  12
TORSDOF 7
ENDMDL
MODEL 4
REMARK VINA RESULT:     -11.1      1.713      4.297
REMARK  Name = 
REMARK  7 active torsions:
REMARK  status: ('A' for Active; 'I' for Inactive)
REMARK    1  A    between atoms: C_2  and  C_4
REMARK    2  A    between atoms: C_4  and  C_5
REMARK    3  A    between atoms: C_7  and  C_25
REMARK    4  A    between atoms: N_11  and  C_12
REMARK    5  A    between atoms: C_12  and  C_13
REMARK    6  A    between atoms: N_27  and  C_28
REMARK    7  A    between atoms: C_28  and  C_29
REMARK                            x       y       z     vdW  Elec       q    Type
REMARK                         _______ _______ _______ _____ _____    ______ ____
ROOT
ATOM      5  C   UNL     1      -1.209   3.084  24.390  0.00  0.00    +0.095 C 
ATOM      6  N   UNL     1      -2.019   3.101  24.238  0.00  0.00    -0.207 NA
ATOM      7  C   UNL     1      -2.521   2.472  24.052  0.00  0.00    +0.155 C 
ATOM      8  C   UNL     1      -2.335   1.673  23.971  0.00  0.00    +0.055 C 
ATOM      9  C   UNL     1      -1.602   1.304  24.057  0.00  0.00    -0.002 A 
ATOM     10  C   UNL     1      -1.487   0.492  23.962  0.00  0.00    +0.072 A 
ATOM     11  N   UNL     1      -0.688   0.330  24.090  0.00  0.00    -0.322 N 
ATOM     19  C   UNL     1      -0.309   1.042  24.266  0.00  0.00    +0.060 A 
ATOM     20  C   UNL     1      -0.874   1.644  24.245  0.00  0.00    +0.011 A 
ATOM     21  C   UNL     1      -0.699   2.437  24.393  0.00  0.00    -0.005 A 
ATOM     22  C   UNL     1       0.134   2.601  24.576  0.00  0.00    -0.003 A 
ATOM     23  C   UNL     1       0.699   2.000  24.596  0.00  0.00    +0.001 A 
ATOM     24  C   UNL     1       0.477   1.220  24.441  0.00  0.00    +0.017 A 
ENDROOT
BRANCH   7  25
ATOM     25  C   UNL     1      -3.313   2.670  23.930  0.00  0.00    +0.258 C 
ATOM     26  O   UNL     1      -3.545   3.022  23.221  0.00  0.00    -0.272 OA
ATOM     27  N   UNL     1      -3.872   2.514  24.517  0.00  0.00    -0.198 NA
BRANCH  27  28
ATOM     28  C   UNL     1      -4.663   2.712  24.395  0.00  0.00    +0.161 C 
BRANCH  28  29
ATOM     29  C   UNL     1      -5.233   2.490  24.949  0.00  0.00    +0.081 A 
ATOM     30  N   UNL     1      -5.691   1.815  24.821  0.00  0.00    -0.246 NA
ATOM     31  C   UNL     1      -6.262   1.593  25.375  0.00  0.00    +0.099 A 
ATOM     32  C   UNL     1      -6.373   2.045  26.056  0.00  0.00    +0.021 A 
ATOM     33  C   UNL     1      -5.915   2.719  26.183  0.00  0.00    +0.003 A 
ATOM     34  C   UNL     1      -5.345   2.942  25.630  0.00  0.00    +0.017 A 
ENDBRANCH  28  29
ENDBRANCH  27  28
ENDBRANCH   7  25
BRANCH   5   4
ATOM      4  C   UNL     1      -0.863   3.813  24.561  0.00  0.00    +0.022 C 
BRANCH   4   2
ATOM      1  C   UNL     1      -1.495   4.214  25.779  0.00  0.00    +0.000 C 
ATOM      2  C   UNL     1      -1.281   4.375  24.999  0.00  0.00    +0.002 C 
ATOM      3  C   UNL     1      -1.483   5.098  24.655  0.00  0.00    +0.000 C 
ENDBRANCH   4   2
ENDBRANCH   5   4
BRANCH  11  12
ATOM     12  C   UNL     1      -0.330  -0.412  24.051  0.00  0.00    +0.133 C 
BRANCH  12  13
ATOM     13  C   UNL     1      -0.712  -1.071  24.367  0.00  0.00    +0.003 A 
ATOM     14  C   UNL     1      -1.209  -1.526  23.892  0.00  0.00    +0.018 A 
ATOM     15  C   UNL     1      -1.591  -2.186  24.208  0.00  0.00    +0.099 A 
ATOM     16  N   UNL     1      -1.474  -2.390  24.999  0.00  0.00    -0.242 NA
ATOM     17  C   UNL     1      -0.976  -1.935  25.474  0.00  0.00    +0.099 A 
ATOM     18  C   UNL     1      -0.595  -1.275  25.158  0.00  0.00    +0.018 A 
ENDBRANCH  12  13
ENDBRANCH  11  12
TORSDOF 7
ENDMDL
MODEL 5
REMARK VINA RESULT:     -11.0      1.533      3.978
REMARK  Name = 
REMARK  7 active torsions:
REMARK  status: ('A' for Active; 'I' for Inactive)
REMARK    1  A    between atoms: C_2  and  C_4
REMARK    2  A    between atoms: C_4  and  C_5
REMARK    3  A    between atoms: C_7  and  C_25
REMARK    4  A    between atoms: N_11  and  C_12
REMARK    5  A    between atoms: C_12  and  C_13
REMARK    6  A    between atoms: N_27  and  C_28
REMARK    7  A    between atoms: C_28  and  C_29
REMARK                            x       y       z     vdW  Elec       q    Type
REMARK                         _______ _______ _______ _____ _____    ______ ____
ROOT
ATOM      5  C   UNL     1      -2.517  -1.369  24.506  0.00  0.00    +0.095 C 
ATOM      6  N   UNL     1      -3.228  -0.955  24.447  0.00  0.00    -0.207 NA
ATOM      7  C   UNL     1      -3.346  -0.138  24.412  0.00  0.00    +0.155 C 
ATOM      8  C   UNL     1      -2.783   0.464  24.427  0.00  0.00    +0.055 C 
ATOM      9  C   UNL     1      -1.962   0.399  24.481  0.00  0.00    -0.002 A 
ATOM     10  C   UNL     1      -1.454   1.049  24.491  0.00  0.00    +0.072 A 
ATOM     11  N   UNL     1      -0.681   0.769  24.550  0.00  0.00    -0.322 N 
ATOM     19  C   UNL     1      -0.710  -0.055  24.576  0.00  0.00    +0.060 A 
ATOM     20  C   UNL     1      -1.502  -0.284  24.533  0.00  0.00    +0.011 A 
ATOM     21  C   UNL     1      -1.750  -1.071  24.544  0.00  0.00    -0.005 A 
ATOM     22  C   UNL     1      -1.110  -1.656  24.604  0.00  0.00    -0.003 A 
ATOM     23  C   UNL     1      -0.318  -1.428  24.647  0.00  0.00    +0.001 A 
ATOM     24  C   UNL     1      -0.119  -0.627  24.632  0.00  0.00    +0.017 A 
ENDROOT
BRANCH   7  25
ATOM     25  C   UNL     1      -4.132   0.107  24.354  0.00  0.00    +0.258 C 
ATOM     26  O   UNL     1      -4.643  -0.268  23.827  0.00  0.00    -0.272 OA
ATOM     27  N   UNL     1      -4.406   0.728  24.825  0.00  0.00    -0.198 NA
BRANCH  27  28
ATOM     28  C   UNL     1      -5.190   0.973  24.767  0.00  0.00    +0.161 C 
BRANCH  28  29
ATOM     29  C   UNL     1      -5.433   1.670  25.137  0.00  0.00    +0.081 A 
ATOM     30  N   UNL     1      -5.214   2.401  24.823  0.00  0.00    -0.246 NA
ATOM     31  C   UNL     1      -5.456   3.098  25.194  0.00  0.00    +0.099 A 
ATOM     32  C   UNL     1      -5.917   3.063  25.877  0.00  0.00    +0.021 A 
ATOM     33  C   UNL     1      -6.136   2.332  26.190  0.00  0.00    +0.003 A 
ATOM     34  C   UNL     1      -5.894   1.635  25.821  0.00  0.00    +0.017 A 
ENDBRANCH  28  29
ENDBRANCH  27  28
ENDBRANCH   7  25
BRANCH   5   4
ATOM      4  C   UNL     1      -2.584  -2.191  24.529  0.00  0.00    +0.022 C 
BRANCH   4   2
ATOM      1  C   UNL     1      -3.825  -2.876  24.347  0.00  0.00    +0.000 C 
ATOM      2  C   UNL     1      -3.261  -2.541  24.847  0.00  0.00    +0.002 C 
ATOM      3  C   UNL     1      -3.373  -2.555  25.665  0.00  0.00    +0.000 C 
ENDBRANCH   4   2
ENDBRANCH   5   4
BRANCH  11  12
ATOM     12  C   UNL     1       0.002   1.230  24.577  0.00  0.00    +0.133 C 
BRANCH  12  13
ATOM     13  C   UNL     1      -0.034   2.005  24.856  0.00  0.00    +0.003 A 
ATOM     14  C   UNL     1       0.040   2.156  25.664  0.00  0.00    +0.018 A 
ATOM     15  C   UNL     1       0.004   2.933  25.943  0.00  0.00    +0.099 A 
ATOM     16  N   UNL     1      -0.106   3.556  25.414  0.00  0.00    -0.242 NA
ATOM     17  C   UNL     1      -0.179   3.404  24.606  0.00  0.00    +0.099 A 
ATOM     18  C   UNL     1      -0.143   2.629  24.327  0.00  0.00    +0.018 A 
ENDBRANCH  12  13
ENDBRANCH  11  12
TORSDOF 7
ENDMDL
MODEL 6
REMARK VINA RESULT:     -10.9      1.236      3.849
REMARK  Name = 
REMARK  7 active torsions:
REMARK  status: ('A' for Active; 'I' for Inactive)
REMARK    1  A    between atoms: C_2  and  C_4
REMARK    2  A    between atoms: C_4  and  C_5
REMARK    3  A    between atoms: C_7  and  C_25
REMARK    4  A    between atoms: N_11  and  C_12
REMARK    5  A    between atoms: C_12  and  C_13
REMARK    6  A    between atoms: N_27  and  C_28
REMARK    7  A    between atoms: C_28  and  C_29
REMARK                            x       y       z     vdW  Elec       q    Type
REMARK                         _______ _______ _______ _____ _____    ______ ____
ROOT
ATOM      5  C   UNL     1      -1.219   2.537  25.171  0.00  0.00    +0.095 C 
ATOM      6  N   UNL     1      -1.172   1.750  24.928  0.00  0.00    -0.207 NA
ATOM      7  C   UNL     1      -1.785   1.241  24.714  0.00  0.00    +0.155 C 
ATOM      8  C   UNL     1      -2.595   1.393  24.690  0.00  0.00    +0.055 C 
ATOM      9  C   UNL     1      -2.993   2.091  24.874  0.00  0.00    -0.002 A 
ATOM     10  C   UNL     1      -3.813   2.174  24.828  0.00  0.00    +0.072 A 
ATOM     11  N   UNL     1      -4.006   2.944  25.053  0.00  0.00    -0.322 N 
ATOM     19  C   UNL     1      -3.305   3.338  25.239  0.00  0.00    +0.060 A 
ATOM     20  C   UNL     1      -2.679   2.811  25.128  0.00  0.00    +0.011 A 
ATOM     21  C   UNL     1      -1.889   3.009  25.260  0.00  0.00    -0.005 A 
ATOM     22  C   UNL     1      -1.755   3.824  25.528  0.00  0.00    -0.003 A 
ATOM     23  C   UNL     1      -2.380   4.351  25.639  0.00  0.00    +0.001 A 
ATOM     24  C   UNL     1      -3.155   4.107  25.494  0.00  0.00    +0.017 A 
ENDROOT
BRANCH   7  25
ATOM     25  C   UNL     1      -1.557   0.479  24.494  0.00  0.00    +0.258 C 
ATOM     26  O   UNL     1      -0.975   0.372  23.919  0.00  0.00    -0.272 OA
ATOM     27  N   UNL     1      -1.910  -0.177  24.851  0.00  0.00    -0.198 NA
BRANCH  27  28
ATOM     28  C   UNL     1      -1.682  -0.938  24.632  0.00  0.00    +0.161 C 
BRANCH  28  29
ATOM     29  C   UNL     1      -2.207  -1.568  24.724  0.00  0.00    +0.081 A 
ATOM     30  N   UNL     1      -2.165  -2.217  24.215  0.00  0.00    -0.246 NA
ATOM     31  C   UNL     1      -2.691  -2.847  24.307  0.00  0.00    +0.099 A 
ATOM     32  C   UNL     1      -3.257  -2.828  24.906  0.00  0.00    +0.021 A 
ATOM     33  C   UNL     1      -3.299  -2.179  25.414  0.00  0.00    +0.003 A 
ATOM     34  C   UNL     1      -2.774  -1.549  25.323  0.00  0.00    +0.017 A 
ENDBRANCH  28  29
ENDBRANCH  27  28
ENDBRANCH   7  25
BRANCH   5   4
ATOM      4  C   UNL     1      -0.499   2.899  25.348  0.00  0.00    +0.022 C 
BRANCH   4   2
ATOM      1  C   UNL     1       0.711   2.147  25.235  0.00  0.00    +0.000 C 
ATOM      2  C   UNL     1       0.107   2.463  25.700  0.00  0.00    +0.002 C 
ATOM      3  C   UNL     1       0.108   2.342  26.517  0.00  0.00    +0.000 C 
ENDBRANCH   4   2
ENDBRANCH   5   4
BRANCH  11  12
ATOM     12  C   UNL     1      -4.765   3.264  25.087  0.00  0.00    +0.133 C 
BRANCH  12  13
ATOM     13  C   UNL     1      -5.406   2.787  25.291  0.00  0.00    +0.003 A 
ATOM     14  C   UNL     1      -5.639   2.726  26.080  0.00  0.00    +0.018 A 
ATOM     15  C   UNL     1      -6.280   2.248  26.284  0.00  0.00    +0.099 A 
ATOM     16  N   UNL     1      -6.688   1.833  25.699  0.00  0.00    -0.242 NA
ATOM     17  C   UNL     1      -6.455   1.895  24.910  0.00  0.00    +0.099 A 
ATOM     18  C   UNL     1      -5.813   2.372  24.706  0.00  0.00    +0.018 A 
ENDBRANCH  12  13
ENDBRANCH  11  12
TORSDOF 7
ENDMDL
MODEL 7
REMARK VINA RESULT:     -10.6      1.694      3.863
REMARK  Name = 
REMARK  7 active torsions:
REMARK  status: ('A' for Active; 'I' for Inactive)
REMARK    1  A    between atoms: C_2  and  C_4
REMARK    2  A    between atoms: C_4  and  C_5
REMARK    3  A    between atoms: C_7  and  C_25
REMARK    4  A    between atoms: N_11  and  C_12
REMARK    5  A    between atoms: C_12  and  C_13
REMARK    6  A    between atoms: N_27  and  C_28
REMARK    7  A    between atoms: C_28  and  C_29
REMARK                            x       y       z     vdW  Elec       q    Type
REMARK                         _______ _______ _______ _____ _____    ______ ____
ROOT
ATOM      5  C   UNL     1      -0.227   1.056  24.372  0.00  0.00    +0.095 C 
ATOM      6  N   UNL     1      -0.613   0.381  24.649  0.00  0.00    -0.207 NA
ATOM      7  C   UNL     1      -1.332   0.328  25.050  0.00  0.00    +0.155 C 
ATOM      8  C   UNL     1      -1.843   0.937  25.272  0.00  0.00    +0.055 C 
ATOM      9  C   UNL     1      -1.760   1.748  25.149  0.00  0.00    -0.002 A 
ATOM     10  C   UNL     1      -2.315   2.305  25.401  0.00  0.00    +0.072 A 
ATOM     11  N   UNL     1      -2.044   3.053  25.181  0.00  0.00    -0.322 N 
ATOM     19  C   UNL     1      -1.322   2.958  24.792  0.00  0.00    +0.060 A 
ATOM     20  C   UNL     1      -1.147   2.152  24.773  0.00  0.00    +0.011 A 
ATOM     21  C   UNL     1      -0.464   1.843  24.427  0.00  0.00    -0.005 A 
ATOM     22  C   UNL     1       0.069   2.433  24.078  0.00  0.00    -0.003 A 
ATOM     23  C   UNL     1      -0.106   3.239  24.097  0.00  0.00    +0.001 A 
ATOM     24  C   UNL     1      -0.802   3.501  24.454  0.00  0.00    +0.017 A 
ENDROOT
BRANCH   7  25
ATOM     25  C   UNL     1      -1.572  -0.434  25.255  0.00  0.00    +0.258 C 
ATOM     26  O   UNL     1      -1.198  -0.832  25.873  0.00  0.00    -0.272 OA
ATOM     27  N   UNL     1      -2.187  -0.798  24.841  0.00  0.00    -0.198 NA
BRANCH  27  28
ATOM     28  C   UNL     1      -2.427  -1.560  25.045  0.00  0.00    +0.161 C 
BRANCH  28  29
ATOM     29  C   UNL     1      -3.058  -1.914  24.648  0.00  0.00    +0.081 A 
ATOM     30  N   UNL     1      -3.633  -1.445  24.287  0.00  0.00    -0.246 NA
ATOM     31  C   UNL     1      -4.264  -1.799  23.890  0.00  0.00    +0.099 A 
ATOM     32  C   UNL     1      -4.320  -2.621  23.855  0.00  0.00    +0.021 A 
ATOM     33  C   UNL     1      -3.745  -3.090  24.217  0.00  0.00    +0.003 A 
ATOM     34  C   UNL     1      -3.114  -2.737  24.613  0.00  0.00    +0.017 A 
ENDBRANCH  28  29
ENDBRANCH  27  28
ENDBRANCH   7  25
BRANCH   5   4
ATOM      4  C   UNL     1       0.492   0.924  23.989  0.00  0.00    +0.022 C 
BRANCH   4   2
ATOM      1  C   UNL     1       0.211   0.258  22.756  0.00  0.00    +0.000 C 
ATOM      2  C   UNL     1       0.581   0.270  23.493  0.00  0.00    +0.002 C 
ATOM      3  C   UNL     1       1.041  -0.371  23.735  0.00  0.00    +0.000 C 
ENDBRANCH   4   2
ENDBRANCH   5   4
BRANCH  11  12
ATOM     12  C   UNL     1      -2.427   3.769  25.323  0.00  0.00    +0.133 C 
BRANCH  12  13
ATOM     13  C   UNL     1      -3.251   3.800  25.340  0.00  0.00    +0.003 A 
ATOM     14  C   UNL     1      -3.649   3.786  26.063  0.00  0.00    +0.018 A 
ATOM     15  C   UNL     1      -4.474   3.817  26.080  0.00  0.00    +0.099 A 
ATOM     16  N   UNL     1      -4.900   3.863  25.375  0.00  0.00    -0.242 NA
ATOM     17  C   UNL     1      -4.501   3.878  24.652  0.00  0.00    +0.099 A 
ATOM     18  C   UNL     1      -3.677   3.846  24.635  0.00  0.00    +0.018 A 
ENDBRANCH  12  13
ENDBRANCH  11  12
TORSDOF 7
ENDMDL
MODEL 8
REMARK VINA RESULT:     -10.5      2.251      4.882
REMARK  Name = 
REMARK  7 active torsions:
REMARK  status: ('A' for Active; 'I' for Inactive)
REMARK    1  A    between atoms: C_2  and  C_4
REMARK    2  A    between atoms: C_4  and  C_5
REMARK    3  A    between atoms: C_7  and  C_25
REMARK    4  A    between atoms: N_11  and  C_12
REMARK    5  A    between atoms: C_12  and  C_13
REMARK    6  A    between atoms: N_27  and  C_28
REMARK    7  A    between atoms: C_28  and  C_29
REMARK                            x       y       z     vdW  Elec       q    Type
REMARK                         _______ _______ _______ _____ _____    ______ ____
ROOT
ATOM      5  C   UNL     1      -1.928  -0.640  25.154  0.00  0.00    +0.095 C 
ATOM      6  N   UNL     1      -1.254  -0.190  25.004  0.00  0.00    -0.207 NA
ATOM      7  C   UNL     1      -1.205   0.596  24.755  0.00  0.00    +0.155 C 
ATOM      8  C   UNL     1      -1.818   1.123  24.595  0.00  0.00    +0.055 C 
ATOM      9  C   UNL     1      -2.632   0.997  24.644  0.00  0.00    -0.002 A 
ATOM     10  C   UNL     1      -3.194   1.574  24.468  0.00  0.00    +0.072 A 
ATOM     11  N   UNL     1      -3.942   1.246  24.580  0.00  0.00    -0.322 N 
ATOM     19  C   UNL     1      -3.843   0.464  24.826  0.00  0.00    +0.060 A 
ATOM     20  C   UNL     1      -3.033   0.310  24.866  0.00  0.00    +0.011 A 
ATOM     21  C   UNL     1      -2.719  -0.418  25.093  0.00  0.00    -0.005 A 
ATOM     22  C   UNL     1      -3.308  -1.025  25.291  0.00  0.00    -0.003 A 
ATOM     23  C   UNL     1      -4.118  -0.872  25.251  0.00  0.00    +0.001 A 
ATOM     24  C   UNL     1      -4.385  -0.127  25.019  0.00  0.00    +0.017 A 
ENDROOT
BRANCH   7  25
ATOM     25  C   UNL     1      -0.441   0.892  24.653  0.00  0.00    +0.258 C 
ATOM     26  O   UNL     1      -0.105   1.373  25.232  0.00  0.00    -0.272 OA
ATOM     27  N   UNL     1      -0.015   0.707  23.971  0.00  0.00    -0.198 NA
BRANCH  27  28
ATOM     28  C   UNL     1       0.747   1.003  23.869  0.00  0.00    +0.161 C 
BRANCH  28  29
ATOM     29  C   UNL     1       1.258   0.649  23.325  0.00  0.00    +0.081 A 
ATOM     30  N   UNL     1       2.061   0.838  23.330  0.00  0.00    -0.246 NA
ATOM     31  C   UNL     1       2.571   0.484  22.786  0.00  0.00    +0.099 A 
ATOM     32  C   UNL     1       2.278  -0.058  22.238  0.00  0.00    +0.021 A 
ATOM     33  C   UNL     1       1.474  -0.247  22.233  0.00  0.00    +0.003 A 
ATOM     34  C   UNL     1       0.964   0.106  22.777  0.00  0.00    +0.017 A 
ENDBRANCH  28  29
ENDBRANCH  27  28
ENDBRANCH   7  25
BRANCH   5   4
ATOM      4  C   UNL     1      -1.792  -1.417  25.398  0.00  0.00    +0.022 C 
BRANCH   4   2
ATOM      1  C   UNL     1      -0.475  -1.973  25.413  0.00  0.00    +0.000 C 
ATOM      2  C   UNL     1      -1.201  -1.865  25.035  0.00  0.00    +0.002 C 
ATOM      3  C   UNL     1      -1.336  -2.205  24.295  0.00  0.00    +0.000 C 
ENDBRANCH   4   2
ENDBRANCH   5   4
BRANCH  11  12
ATOM     12  C   UNL     1      -4.663   1.630  24.467  0.00  0.00    +0.133 C 
BRANCH  12  13
ATOM     13  C   UNL     1      -4.794   2.372  24.803  0.00  0.00    +0.003 A 
ATOM     14  C   UNL     1      -5.228   2.437  25.501  0.00  0.00    +0.018 A 
ATOM     15  C   UNL     1      -5.359   3.180  25.837  0.00  0.00    +0.099 A 
ATOM     16  N   UNL     1      -5.054   3.855  25.475  0.00  0.00    -0.242 NA
ATOM     17  C   UNL     1      -4.619   3.789  24.777  0.00  0.00    +0.099 A 
ATOM     18  C   UNL     1      -4.489   3.047  24.441  0.00  0.00    +0.018 A 
ENDBRANCH  12  13
ENDBRANCH  11  12
TORSDOF 7
ENDMDL
MODEL 9
REMARK VINA RESULT:     -10.1      1.698      5.347
REMARK  Name = 
REMARK  7 active torsions:
REMARK  status: ('A' for Active; 'I' for Inactive)
REMARK    1  A    between atoms: C_2  and  C_4
REMARK    2  A    between atoms: C_4  and  C_5
REMARK    3  A    between atoms: C_7  and  C_25
REMARK    4  A    between atoms: N_11  and  C_12
REMARK    5  A    between atoms: C_12  and  C_13
REMARK    6  A    between atoms: N_27  and  C_28
REMARK    7  A    between atoms: C_28  and  C_29
REMARK                            x       y       z     vdW  Elec       q    Type
REMARK                         _______ _______ _______ _____ _____    ______ ____
ROOT
ATOM      5  C   UNL     1      -1.957  -0.520  24.473  0.00  0.00    +0.095 C 
ATOM      6  N   UNL     1      -1.483   0.146  24.362  0.00  0.00    -0.207 NA
ATOM      7  C   UNL     1      -1.710   0.938  24.322  0.00  0.00    +0.155 C 
ATOM      8  C   UNL     1      -2.467   1.259  24.383  0.00  0.00    +0.055 C 
ATOM      9  C   UNL     1      -3.184   0.869  24.499  0.00  0.00    -0.002 A 
ATOM     10  C   UNL     1      -3.910   1.256  24.551  0.00  0.00    +0.072 A 
ATOM     11  N   UNL     1      -4.496   0.687  24.667  0.00  0.00    -0.322 N 
ATOM     19  C   UNL     1      -4.132  -0.053  24.687  0.00  0.00    +0.060 A 
ATOM     20  C   UNL     1      -3.321   0.059  24.583  0.00  0.00    +0.011 A 
ATOM     21  C   UNL     1      -2.774  -0.559  24.571  0.00  0.00    -0.005 A 
ATOM     22  C   UNL     1      -3.114  -1.351  24.677  0.00  0.00    -0.003 A 
ATOM     23  C   UNL     1      -3.924  -1.464  24.781  0.00  0.00    +0.001 A 
ATOM     24  C   UNL     1      -4.434  -0.814  24.786  0.00  0.00    +0.017 A 
ENDROOT
BRANCH   7  25
ATOM     25  C   UNL     1      -1.099   1.480  24.205  0.00  0.00    +0.258 C 
ATOM     26  O   UNL     1      -0.487   1.305  23.680  0.00  0.00    -0.272 OA
ATOM     27  N   UNL     1      -1.100   2.197  24.615  0.00  0.00    -0.198 NA
BRANCH  27  28
ATOM     28  C   UNL     1      -0.489   2.739  24.498  0.00  0.00    +0.161 C 
BRANCH  28  29
ATOM     29  C   UNL     1      -0.616   3.541  24.645  0.00  0.00    +0.081 A 
ATOM     30  N   UNL     1      -0.305   4.108  24.133  0.00  0.00    -0.246 NA
ATOM     31  C   UNL     1      -0.432   4.910  24.280  0.00  0.00    +0.099 A 
ATOM     32  C   UNL     1      -0.869   5.145  24.939  0.00  0.00    +0.021 A 
ATOM     33  C   UNL     1      -1.180   4.577  25.451  0.00  0.00    +0.003 A 
ATOM     34  C   UNL     1      -1.054   3.775  25.304  0.00  0.00    +0.017 A 
ENDBRANCH  28  29
ENDBRANCH  27  28
ENDBRANCH   7  25
BRANCH   5   4
ATOM      4  C   UNL     1      -1.559  -1.243  24.487  0.00  0.00    +0.022 C 
BRANCH   4   2
ATOM      1  C   UNL     1      -0.763  -1.308  25.672  0.00  0.00    +0.000 C 
ATOM      2  C   UNL     1      -0.819  -1.300  24.849  0.00  0.00    +0.002 C 
ATOM      3  C   UNL     1      -0.137  -1.348  24.387  0.00  0.00    +0.000 C 
ENDBRANCH   4   2
ENDBRANCH   5   4
BRANCH  11  12
ATOM     12  C   UNL     1      -5.304   0.831  24.749  0.00  0.00    +0.133 C 
BRANCH  12  13
ATOM     13  C   UNL     1      -5.565   1.499  25.156  0.00  0.00    +0.003 A 
ATOM     14  C   UNL     1      -5.823   1.431  25.936  0.00  0.00    +0.018 A 
ATOM     15  C   UNL     1      -6.084   2.100  26.344  0.00  0.00    +0.099 A 
ATOM     16  N   UNL     1      -6.087   2.836  25.971  0.00  0.00    -0.242 NA
ATOM     17  C   UNL     1      -5.829   2.903  25.190  0.00  0.00    +0.099 A 
ATOM     18  C   UNL     1      -5.568   2.235  24.782  0.00  0.00    +0.018 A 
ENDBRANCH  12  13
ENDBRANCH  11  12
TORSDOF 7
ENDMDL
