REMARK  Name = 
REMARK  5 active torsions:
REMARK  status: ('A' for Active; 'I' for Inactive)
REMARK    1  A    between atoms: O_2  and  C_3
REMARK    2  A    between atoms: C_8  and  C_9
REMARK    3  A    between atoms: C_12  and  C_14
REMARK    4  A    between atoms: N_17  and  C_18
REMARK    5  A    between atoms: C_18  and  C_19
REMARK                            x       y       z     vdW  Elec       q    Type
REMARK                         _______ _______ _______ _____ _____    ______ ____
ROOT
ATOM      9  C   UNL     1       2.751  -0.062   0.000  0.00  0.00    +0.252 A 
ATOM     10  N   UNL     1       3.419  -0.546   0.000  0.00  0.00    -0.107 NA
ATOM     11  N   UNL     1       3.164  -1.331   0.000  0.00  0.00    -0.111 NA
ATOM     12  C   UNL     1       2.339  -1.331   0.000  0.00  0.00    +0.227 A 
ATOM     13  O   UNL     1       2.084  -0.546   0.000  0.00  0.00    -0.419 OA
ENDROOT
BRANCH   9   8
ATOM      3  C   UNL     1       2.037   1.176   0.000  0.00  0.00    +0.143 A 
ATOM      4  C   UNL     1       2.037   2.001   0.000  0.00  0.00    +0.037 A 
ATOM      5  C   UNL     1       2.751   2.413   0.000  0.00  0.00    +0.003 A 
ATOM      6  C   UNL     1       3.466   2.001   0.000  0.00  0.00    +0.000 A 
ATOM      7  C   UNL     1       3.466   1.176   0.000  0.00  0.00    +0.008 A 
ATOM      8  C   UNL     1       2.751   0.763   0.000  0.00  0.00    +0.089 A 
BRANCH   3   2
ATOM      1  C   UNL     1       0.608   1.176   0.000  0.00  0.00    +0.252 C 
ATOM      2  O   UNL     1       1.322   0.763   0.000  0.00  0.00    -0.471 OA
ENDBRANCH   3   2
ENDBRANCH   9   8
BRANCH  12  14
ATOM     14  C   UNL     1       1.854  -1.999   0.000  0.00  0.00    +0.096 C 
ATOM     15  C   UNL     1       2.109  -2.783   0.000  0.00  0.00    +0.028 C 
ATOM     16  C   UNL     1       1.441  -3.268   0.000  0.00  0.00    +0.073 C 
ATOM     17  N   UNL     1       0.774  -2.783   0.000  0.00  0.00    -0.272 NA
ATOM     22  C   UNL     1       1.029  -1.999   0.000  0.00  0.00    +0.081 C 
BRANCH  17  18
ATOM     18  C   UNL     1      -0.011  -3.038   0.000  0.00  0.00    +0.072 C 
BRANCH  18  19
ATOM     19  C   UNL     1      -0.624  -2.486   0.000  0.00  0.00    +0.016 C 
ATOM     20  C   UNL     1      -1.409  -2.741   0.000  0.00  0.00    +0.001 C 
ATOM     21  C   UNL     1      -0.452  -1.679   0.000  0.00  0.00    +0.001 C 
ENDBRANCH  18  19
ENDBRANCH  17  18
ENDBRANCH  12  14
TORSDOF 5
