MODEL 1
REMARK VINA RESULT:      -7.4      0.000      0.000
REMARK  Name = 
REMARK  6 active torsions:
REMARK  status: ('A' for Active; 'I' for Inactive)
REMARK    1  A    between atoms: C_2  and  N_4
REMARK    2  A    between atoms: N_7  and  C_8
REMARK    3  A    between atoms: C_8  and  C_9
REMARK    4  A    between atoms: C_12  and  N_13
REMARK    5  A    between atoms: N_13  and  C_14
REMARK    6  A    between atoms: C_14  and  C_15
REMARK                            x       y       z     vdW  Elec       q    Type
REMARK                         _______ _______ _______ _____ _____    ______ ____
ROOT
ATOM      9  C   UNL     1      -3.600   1.871  24.498  0.00  0.00    +0.169 C 
ATOM     10  O   UNL     1      -4.153   1.695  25.084  0.00  0.00    -0.350 OA
ATOM     11  C   UNL     1      -4.343   0.895  25.022  0.00  0.00    +0.162 C 
ATOM     12  C   UNL     1      -3.908   0.576  24.398  0.00  0.00    +0.136 C 
ATOM     20  C   UNL     1      -3.448   1.180  24.074  0.00  0.00    +0.199 C 
ATOM     21  O   UNL     1      -2.928   1.106  23.439  0.00  0.00    -0.219 OA
ENDROOT
BRANCH   9   8
ATOM      8  C   UNL     1      -3.258   2.609  24.361  0.00  0.00    +0.149 C 
BRANCH   8   7
ATOM      4  N   UNL     1      -1.936   4.027  25.364  0.00  0.00    -0.189 NA
ATOM      5  C   UNL     1      -2.406   3.675  24.784  0.00  0.00    +0.339 C 
ATOM      6  O   UNL     1      -2.494   4.038  24.049  0.00  0.00    -0.249 OA
ATOM      7  N   UNL     1      -2.788   2.961  24.940  0.00  0.00    -0.185 NA
BRANCH   4   2
ATOM      1  C   UNL     1      -1.953   5.455  25.316  0.00  0.00    +0.023 C 
ATOM      2  C   UNL     1      -1.554   4.741  25.208  0.00  0.00    +0.097 C 
ATOM      3  C   UNL     1      -0.773   4.742  24.944  0.00  0.00    +0.023 C 
ENDBRANCH   4   2
ENDBRANCH   8   7
ENDBRANCH   9   8
BRANCH  12  13
ATOM     13  N   UNL     1      -3.928  -0.209  24.142  0.00  0.00    -0.206 NA
BRANCH  13  14
ATOM     14  C   UNL     1      -4.124  -0.809  24.672  0.00  0.00    +0.154 C 
BRANCH  14  15
ATOM     15  C   UNL     1      -3.984  -1.598  24.472  0.00  0.00    +0.157 A 
ATOM     16  N   UNL     1      -4.314  -2.002  23.833  0.00  0.00    -0.226 NA
ATOM     17  C   UNL     1      -4.023  -2.774  23.843  0.00  0.00    +0.121 A 
ATOM     18  C   UNL     1      -3.515  -2.846  24.488  0.00  0.00    +0.121 A 
ATOM     19  N   UNL     1      -3.490  -2.120  24.878  0.00  0.00    -0.226 NA
ENDBRANCH  14  15
ENDBRANCH  13  14
ENDBRANCH  12  13
TORSDOF 6
ENDMDL
MODEL 2
REMARK VINA RESULT:      -7.3      1.239      5.652
REMARK  Name = 
REMARK  6 active torsions:
REMARK  status: ('A' for Active; 'I' for Inactive)
REMARK    1  A    between atoms: C_2  and  N_4
REMARK    2  A    between atoms: N_7  and  C_8
REMARK    3  A    between atoms: C_8  and  C_9
REMARK    4  A    between atoms: C_12  and  N_13
REMARK    5  A    between atoms: N_13  and  C_14
REMARK    6  A    between atoms: C_14  and  C_15
REMARK                            x       y       z     vdW  Elec       q    Type
REMARK                         _______ _______ _______ _____ _____    ______ ____
ROOT
ATOM      9  C   UNL     1      -2.584   0.888  25.029  0.00  0.00    +0.169 C 
ATOM     10  O   UNL     1      -1.778   0.844  25.205  0.00  0.00    -0.350 OA
ATOM     11  C   UNL     1      -1.473   1.610  25.185  0.00  0.00    +0.162 C 
ATOM     12  C   UNL     1      -2.088   2.127  24.998  0.00  0.00    +0.136 C 
ATOM     20  C   UNL     1      -2.774   1.680  24.902  0.00  0.00    +0.199 C 
ATOM     21  O   UNL     1      -3.521   1.974  24.711  0.00  0.00    -0.219 OA
ENDROOT
BRANCH   9   8
ATOM      8  C   UNL     1      -3.106   0.251  24.989  0.00  0.00    +0.149 C 
BRANCH   8   7
ATOM      4  N   UNL     1      -3.125  -1.815  24.281  0.00  0.00    -0.189 NA
ATOM      5  C   UNL     1      -3.351  -1.119  24.664  0.00  0.00    +0.339 C 
ATOM      6  O   UNL     1      -4.049  -1.098  25.103  0.00  0.00    -0.249 OA
ATOM      7  N   UNL     1      -2.880  -0.445  24.607  0.00  0.00    -0.185 NA
BRANCH   4   2
ATOM      1  C   UNL     1      -4.224  -2.599  23.815  0.00  0.00    +0.023 C 
ATOM      2  C   UNL     1      -3.596  -2.489  24.338  0.00  0.00    +0.097 C 
ATOM      3  C   UNL     1      -3.440  -3.053  24.919  0.00  0.00    +0.023 C 
ENDBRANCH   4   2
ENDBRANCH   8   7
ENDBRANCH   9   8
BRANCH  12  13
ATOM     13  N   UNL     1      -2.028   2.947  24.920  0.00  0.00    -0.206 NA
BRANCH  13  14
ATOM     14  C   UNL     1      -1.400   3.348  25.275  0.00  0.00    +0.154 C 
BRANCH  14  15
ATOM     15  C   UNL     1      -1.312   4.160  25.157  0.00  0.00    +0.157 A 
ATOM     16  N   UNL     1      -0.671   4.531  24.792  0.00  0.00    -0.226 NA
ATOM     17  C   UNL     1      -0.812   5.344  24.793  0.00  0.00    +0.121 A 
ATOM     18  C   UNL     1      -1.540   5.475  25.159  0.00  0.00    +0.121 A 
ATOM     19  N   UNL     1      -1.849   4.744  25.384  0.00  0.00    -0.226 NA
ENDBRANCH  14  15
ENDBRANCH  13  14
ENDBRANCH  12  13
TORSDOF 6
ENDMDL
MODEL 3
REMARK VINA RESULT:      -6.7      3.187      4.166
REMARK  Name = 
REMARK  6 active torsions:
REMARK  status: ('A' for Active; 'I' for Inactive)
REMARK    1  A    between atoms: C_2  and  N_4
REMARK    2  A    between atoms: N_7  and  C_8
REMARK    3  A    between atoms: C_8  and  C_9
REMARK    4  A    between atoms: C_12  and  N_13
REMARK    5  A    between atoms: N_13  and  C_14
REMARK    6  A    between atoms: C_14  and  C_15
REMARK                            x       y       z     vdW  Elec       q    Type
REMARK                         _______ _______ _______ _____ _____    ______ ____
ROOT
ATOM      9  C   UNL     1      -2.285   1.297  24.200  0.00  0.00    +0.169 C 
ATOM     10  O   UNL     1      -2.048   0.710  24.731  0.00  0.00    -0.350 OA
ATOM     11  C   UNL     1      -1.282   0.479  24.529  0.00  0.00    +0.162 C 
ATOM     12  C   UNL     1      -1.045   0.922  23.874  0.00  0.00    +0.136 C 
ATOM     20  C   UNL     1      -1.665   1.427  23.671  0.00  0.00    +0.199 C 
ATOM     21  O   UNL     1      -1.666   1.968  23.049  0.00  0.00    -0.219 OA
ENDROOT
BRANCH   9   8
ATOM      8  C   UNL     1      -3.012   1.684  24.200  0.00  0.00    +0.149 C 
BRANCH   8   7
ATOM      4  N   UNL     1      -4.842   1.761  25.388  0.00  0.00    -0.189 NA
ATOM      5  C   UNL     1      -4.287   1.923  24.799  0.00  0.00    +0.339 C 
ATOM      6  O   UNL     1      -4.454   2.486  24.220  0.00  0.00    -0.249 OA
ATOM      7  N   UNL     1      -3.567   1.522  24.789  0.00  0.00    -0.185 NA
BRANCH   4   2
ATOM      1  C   UNL     1      -5.624   2.891  25.778  0.00  0.00    +0.023 C 
ATOM      2  C   UNL     1      -5.563   2.161  25.398  0.00  0.00    +0.097 C 
ATOM      3  C   UNL     1      -6.223   1.832  25.029  0.00  0.00    +0.023 C 
ENDBRANCH   4   2
ENDBRANCH   8   7
ENDBRANCH   9   8
BRANCH  12  13
ATOM     13  N   UNL     1      -0.317   0.869  23.489  0.00  0.00    -0.206 NA
BRANCH  13  14
ATOM     14  C   UNL     1       0.168   0.213  23.614  0.00  0.00    +0.154 C 
BRANCH  14  15
ATOM     15  C   UNL     1       0.871   0.133  23.189  0.00  0.00    +0.157 A 
ATOM     16  N   UNL     1       1.581   0.520  23.349  0.00  0.00    -0.226 NA
ATOM     17  C   UNL     1       2.136   0.277  22.787  0.00  0.00    +0.121 A 
ATOM     18  C   UNL     1       1.767  -0.259  22.281  0.00  0.00    +0.121 A 
ATOM     19  N   UNL     1       0.985  -0.349  22.529  0.00  0.00    -0.226 NA
ENDBRANCH  14  15
ENDBRANCH  13  14
ENDBRANCH  12  13
TORSDOF 6
ENDMDL
MODEL 4
REMARK VINA RESULT:      -6.7      1.655      1.760
REMARK  Name = 
REMARK  6 active torsions:
REMARK  status: ('A' for Active; 'I' for Inactive)
REMARK    1  A    between atoms: C_2  and  N_4
REMARK    2  A    between atoms: N_7  and  C_8
REMARK    3  A    between atoms: C_8  and  C_9
REMARK    4  A    between atoms: C_12  and  N_13
REMARK    5  A    between atoms: N_13  and  C_14
REMARK    6  A    between atoms: C_14  and  C_15
REMARK                            x       y       z     vdW  Elec       q    Type
REMARK                         _______ _______ _______ _____ _____    ______ ____
ROOT
ATOM      9  C   UNL     1      -1.178   1.138  24.928  0.00  0.00    +0.169 C 
ATOM     10  O   UNL     1      -1.032   0.799  25.667  0.00  0.00    -0.350 OA
ATOM     11  C   UNL     1      -1.305   0.021  25.649  0.00  0.00    +0.162 C 
ATOM     12  C   UNL     1      -1.619  -0.122  24.900  0.00  0.00    +0.136 C 
ATOM     20  C   UNL     1      -1.541   0.568  24.455  0.00  0.00    +0.199 C 
ATOM     21  O   UNL     1      -1.782   0.671  23.673  0.00  0.00    -0.219 OA
ENDROOT
BRANCH   9   8
ATOM      8  C   UNL     1      -0.993   1.909  24.704  0.00  0.00    +0.149 C 
BRANCH   8   7
ATOM      4  N   UNL     1      -1.253   3.936  25.474  0.00  0.00    -0.189 NA
ATOM      5  C   UNL     1      -1.123   3.311  24.951  0.00  0.00    +0.339 C 
ATOM      6  O   UNL     1      -0.992   3.464  24.151  0.00  0.00    -0.249 OA
ATOM      7  N   UNL     1      -1.123   2.534  25.227  0.00  0.00    -0.185 NA
BRANCH   4   2
ATOM      1  C   UNL     1      -1.949   5.155  25.209  0.00  0.00    +0.023 C 
ATOM      2  C   UNL     1      -1.253   4.712  25.197  0.00  0.00    +0.097 C 
ATOM      3  C   UNL     1      -0.556   5.047  24.909  0.00  0.00    +0.023 C 
ENDBRANCH   4   2
ENDBRANCH   8   7
ENDBRANCH   9   8
BRANCH  12  13
ATOM     13  N   UNL     1      -1.954  -0.831  24.640  0.00  0.00    -0.206 NA
BRANCH  13  14
ATOM     14  C   UNL     1      -2.469  -1.247  25.133  0.00  0.00    +0.154 C 
BRANCH  14  15
ATOM     15  C   UNL     1      -2.920  -1.867  24.827  0.00  0.00    +0.157 A 
ATOM     16  N   UNL     1      -3.726  -1.842  24.656  0.00  0.00    -0.226 NA
ATOM     17  C   UNL     1      -3.948  -2.581  24.362  0.00  0.00    +0.121 A 
ATOM     18  C   UNL     1      -3.278  -3.062  24.353  0.00  0.00    +0.121 A 
ATOM     19  N   UNL     1      -2.642  -2.622  24.641  0.00  0.00    -0.226 NA
ENDBRANCH  14  15
ENDBRANCH  13  14
ENDBRANCH  12  13
TORSDOF 6
ENDMDL
MODEL 5
REMARK VINA RESULT:      -6.4     17.730     19.689
REMARK  Name = 
REMARK  6 active torsions:
REMARK  status: ('A' for Active; 'I' for Inactive)
REMARK    1  A    between atoms: C_2  and  N_4
REMARK    2  A    between atoms: N_7  and  C_8
REMARK    3  A    between atoms: C_8  and  C_9
REMARK    4  A    between atoms: C_12  and  N_13
REMARK    5  A    between atoms: N_13  and  C_14
REMARK    6  A    between atoms: C_14  and  C_15
REMARK                            x       y       z     vdW  Elec       q    Type
REMARK                         _______ _______ _______ _____ _____    ______ ____
ROOT
ATOM      9  C   UNL     1      14.271   7.589  18.610  0.00  0.00    +0.169 C 
ATOM     10  O   UNL     1      14.557   8.150  18.077  0.00  0.00    -0.350 OA
ATOM     11  C   UNL     1      13.940   8.358  17.571  0.00  0.00    +0.162 C 
ATOM     12  C   UNL     1      13.272   7.927  17.790  0.00  0.00    +0.136 C 
ATOM     20  C   UNL     1      13.477   7.451  18.433  0.00  0.00    +0.199 C 
ATOM     21  O   UNL     1      12.976   6.929  18.829  0.00  0.00    -0.219 OA
ENDROOT
BRANCH   9   8
ATOM      8  C   UNL     1      14.702   7.230  19.214  0.00  0.00    +0.149 C 
BRANCH   8   7
ATOM      4  N   UNL     1      16.759   7.150  19.943  0.00  0.00    -0.189 NA
ATOM      5  C   UNL     1      15.940   7.054  19.906  0.00  0.00    +0.339 C 
ATOM      6  O   UNL     1      15.540   6.686  20.527  0.00  0.00    -0.249 OA
ATOM      7  N   UNL     1      15.521   7.326  19.250  0.00  0.00    -0.185 NA
BRANCH   4   2
ATOM      1  C   UNL     1      17.405   6.088  20.644  0.00  0.00    +0.023 C 
ATOM      2  C   UNL     1      17.177   6.879  20.598  0.00  0.00    +0.097 C 
ATOM      3  C   UNL     1      17.369   7.399  21.210  0.00  0.00    +0.023 C 
ENDBRANCH   4   2
ENDBRANCH   8   7
ENDBRANCH   9   8
BRANCH  12  13
ATOM     13  N   UNL     1      12.530   7.963  17.431  0.00  0.00    -0.206 NA
BRANCH  13  14
ATOM     14  C   UNL     1      12.232   8.689  17.176  0.00  0.00    +0.154 C 
BRANCH  14  15
ATOM     15  C   UNL     1      11.541   8.716  16.725  0.00  0.00    +0.157 A 
ATOM     16  N   UNL     1      10.803   8.423  16.950  0.00  0.00    -0.226 NA
ATOM     17  C   UNL     1      10.273   8.566  16.334  0.00  0.00    +0.121 A 
ATOM     18  C   UNL     1      10.684   8.947  15.729  0.00  0.00    +0.121 A 
ATOM     19  N   UNL     1      11.468   9.040  15.970  0.00  0.00    -0.226 NA
ENDBRANCH  14  15
ENDBRANCH  13  14
ENDBRANCH  12  13
TORSDOF 6
ENDMDL
MODEL 6
REMARK VINA RESULT:      -5.5     16.125     18.780
REMARK  Name = 
REMARK  6 active torsions:
REMARK  status: ('A' for Active; 'I' for Inactive)
REMARK    1  A    between atoms: C_2  and  N_4
REMARK    2  A    between atoms: N_7  and  C_8
REMARK    3  A    between atoms: C_8  and  C_9
REMARK    4  A    between atoms: C_12  and  N_13
REMARK    5  A    between atoms: N_13  and  C_14
REMARK    6  A    between atoms: C_14  and  C_15
REMARK                            x       y       z     vdW  Elec       q    Type
REMARK                         _______ _______ _______ _____ _____    ______ ____
ROOT
ATOM      9  C   UNL     1      13.799   7.378  19.580  0.00  0.00    +0.169 C 
ATOM     10  O   UNL     1      13.146   7.037  19.207  0.00  0.00    -0.350 OA
ATOM     11  C   UNL     1      12.480   7.190  19.668  0.00  0.00    +0.162 C 
ATOM     12  C   UNL     1      12.720   7.626  20.326  0.00  0.00    +0.136 C 
ATOM     20  C   UNL     1      13.535   7.742  20.272  0.00  0.00    +0.199 C 
ATOM     21  O   UNL     1      14.004   8.150  20.813  0.00  0.00    -0.219 OA
ENDROOT
BRANCH   9   8
ATOM      8  C   UNL     1      14.577   7.358  19.309  0.00  0.00    +0.149 C 
BRANCH   8   7
ATOM      4  N   UNL     1      16.141   5.863  19.016  0.00  0.00    -0.189 NA
ATOM      5  C   UNL     1      15.770   6.587  19.156  0.00  0.00    +0.339 C 
ATOM      6  O   UNL     1      16.224   7.264  19.284  0.00  0.00    -0.249 OA
ATOM      7  N   UNL     1      14.948   6.634  19.169  0.00  0.00    -0.185 NA
BRANCH   4   2
ATOM      1  C   UNL     1      17.351   5.542  18.330  0.00  0.00    +0.023 C 
ATOM      2  C   UNL     1      16.964   5.816  19.004  0.00  0.00    +0.097 C 
ATOM      3  C   UNL     1      17.400   6.043  19.666  0.00  0.00    +0.023 C 
ENDBRANCH   4   2
ENDBRANCH   8   7
ENDBRANCH   9   8
BRANCH  12  13
ATOM     13  N   UNL     1      12.231   7.899  20.933  0.00  0.00    -0.206 NA
BRANCH  13  14
ATOM     14  C   UNL     1      11.411   7.864  20.848  0.00  0.00    +0.154 C 
BRANCH  14  15
ATOM     15  C   UNL     1      10.922   8.082  21.475  0.00  0.00    +0.157 A 
ATOM     16  N   UNL     1      10.673   8.848  21.653  0.00  0.00    -0.226 NA
ATOM     17  C   UNL     1      10.192   8.812  22.323  0.00  0.00    +0.121 A 
ATOM     18  C   UNL     1      10.145   8.023  22.559  0.00  0.00    +0.121 A 
ATOM     19  N   UNL     1      10.595   7.571  22.035  0.00  0.00    -0.226 NA
ENDBRANCH  14  15
ENDBRANCH  13  14
ENDBRANCH  12  13
TORSDOF 6
ENDMDL
MODEL 7
REMARK VINA RESULT:      -5.4     15.780     18.517
REMARK  Name = 
REMARK  6 active torsions:
REMARK  status: ('A' for Active; 'I' for Inactive)
REMARK    1  A    between atoms: C_2  and  N_4
REMARK    2  A    between atoms: N_7  and  C_8
REMARK    3  A    between atoms: C_8  and  C_9
REMARK    4  A    between atoms: C_12  and  N_13
REMARK    5  A    between atoms: N_13  and  C_14
REMARK    6  A    between atoms: C_14  and  C_15
REMARK                            x       y       z     vdW  Elec       q    Type
REMARK                         _______ _______ _______ _____ _____    ______ ____
ROOT
ATOM      9  C   UNL     1      12.055   7.722  18.850  0.00  0.00    +0.169 C 
ATOM     10  O   UNL     1      11.468   7.934  18.310  0.00  0.00    -0.350 OA
ATOM     11  C   UNL     1      11.833   8.093  17.587  0.00  0.00    +0.162 C 
ATOM     12  C   UNL     1      12.644   7.979  17.680  0.00  0.00    +0.136 C 
ATOM     20  C   UNL     1      12.782   7.750  18.460  0.00  0.00    +0.199 C 
ATOM     21  O   UNL     1      13.517   7.579  18.794  0.00  0.00    -0.219 OA
ENDROOT
BRANCH   9   8
ATOM      8  C   UNL     1      11.936   7.519  19.640  0.00  0.00    +0.149 C 
BRANCH   8   7
ATOM      4  N   UNL     1      10.698   8.139  21.328  0.00  0.00    -0.189 NA
ATOM      5  C   UNL     1      11.216   7.697  20.861  0.00  0.00    +0.339 C 
ATOM      6  O   UNL     1      11.530   6.991  21.150  0.00  0.00    -0.249 OA
ATOM      7  N   UNL     1      11.418   7.961  20.107  0.00  0.00    -0.185 NA
BRANCH   4   2
ATOM      1  C   UNL     1      10.583   8.376  22.732  0.00  0.00    +0.023 C 
ATOM      2  C   UNL     1      10.496   7.875  22.083  0.00  0.00    +0.097 C 
ATOM      3  C   UNL     1      10.205   7.110  22.188  0.00  0.00    +0.023 C 
ENDBRANCH   4   2
ENDBRANCH   8   7
ENDBRANCH   9   8
BRANCH  12  13
ATOM     13  N   UNL     1      13.219   8.077  17.095  0.00  0.00    -0.206 NA
BRANCH  13  14
ATOM     14  C   UNL     1      13.165   8.709  16.567  0.00  0.00    +0.154 C 
BRANCH  14  15
ATOM     15  C   UNL     1      13.742   8.811  15.986  0.00  0.00    +0.157 A 
ATOM     16  N   UNL     1      14.514   9.074  16.110  0.00  0.00    -0.226 NA
ATOM     17  C   UNL     1      14.897   9.093  15.379  0.00  0.00    +0.121 A 
ATOM     18  C   UNL     1      14.361   8.842  14.804  0.00  0.00    +0.121 A 
ATOM     19  N   UNL     1      13.647   8.667  15.179  0.00  0.00    -0.226 NA
ENDBRANCH  14  15
ENDBRANCH  13  14
ENDBRANCH  12  13
TORSDOF 6
ENDMDL
MODEL 8
REMARK VINA RESULT:      -4.9     16.269     18.864
REMARK  Name = 
REMARK  6 active torsions:
REMARK  status: ('A' for Active; 'I' for Inactive)
REMARK    1  A    between atoms: C_2  and  N_4
REMARK    2  A    between atoms: N_7  and  C_8
REMARK    3  A    between atoms: C_8  and  C_9
REMARK    4  A    between atoms: C_12  and  N_13
REMARK    5  A    between atoms: N_13  and  C_14
REMARK    6  A    between atoms: C_14  and  C_15
REMARK                            x       y       z     vdW  Elec       q    Type
REMARK                         _______ _______ _______ _____ _____    ______ ____
ROOT
ATOM      9  C   UNL     1      13.455   7.770  20.369  0.00  0.00    +0.169 C 
ATOM     10  O   UNL     1      13.220   7.586  19.599  0.00  0.00    -0.350 OA
ATOM     11  C   UNL     1      13.885   7.334  19.183  0.00  0.00    +0.162 C 
ATOM     12  C   UNL     1      14.532   7.361  19.693  0.00  0.00    +0.136 C 
ATOM     20  C   UNL     1      14.267   7.631  20.426  0.00  0.00    +0.199 C 
ATOM     21  O   UNL     1      14.730   7.742  21.100  0.00  0.00    -0.219 OA
ENDROOT
BRANCH   9   8
ATOM      8  C   UNL     1      12.966   8.044  20.973  0.00  0.00    +0.149 C 
BRANCH   8   7
ATOM      4  N   UNL     1      10.843   7.973  21.475  0.00  0.00    -0.189 NA
ATOM      5  C   UNL     1      11.663   8.012  21.558  0.00  0.00    +0.339 C 
ATOM      6  O   UNL     1      11.999   8.057  22.310  0.00  0.00    -0.249 OA
ATOM      7  N   UNL     1      12.146   8.005  20.890  0.00  0.00    -0.185 NA
BRANCH   4   2
ATOM      1  C   UNL     1      10.271   8.671  22.581  0.00  0.00    +0.023 C 
ATOM      2  C   UNL     1      10.359   7.979  22.143  0.00  0.00    +0.097 C 
ATOM      3  C   UNL     1       9.965   7.292  22.373  0.00  0.00    +0.023 C 
ENDBRANCH   4   2
ENDBRANCH   8   7
ENDBRANCH   9   8
BRANCH  12  13
ATOM     13  N   UNL     1      15.310   7.155  19.505  0.00  0.00    -0.206 NA
BRANCH  13  14
ATOM     14  C   UNL     1      15.455   6.562  18.951  0.00  0.00    +0.154 C 
BRANCH  14  15
ATOM     15  C   UNL     1      16.199   6.208  18.912  0.00  0.00    +0.157 A 
ATOM     16  N   UNL     1      16.539   5.865  18.243  0.00  0.00    -0.226 NA
ATOM     17  C   UNL     1      17.285   5.580  18.453  0.00  0.00    +0.121 A 
ATOM     18  C   UNL     1      17.404   5.746  19.252  0.00  0.00    +0.121 A 
ATOM     19  N   UNL     1      16.734   6.134  19.536  0.00  0.00    -0.226 NA
ENDBRANCH  14  15
ENDBRANCH  13  14
ENDBRANCH  12  13
TORSDOF 6
ENDMDL
MODEL 9
REMARK VINA RESULT:      -4.8     15.729     18.376
REMARK  Name = 
REMARK  6 active torsions:
REMARK  status: ('A' for Active; 'I' for Inactive)
REMARK    1  A    between atoms: C_2  and  N_4
REMARK    2  A    between atoms: N_7  and  C_8
REMARK    3  A    between atoms: C_8  and  C_9
REMARK    4  A    between atoms: C_12  and  N_13
REMARK    5  A    between atoms: N_13  and  C_14
REMARK    6  A    between atoms: C_14  and  C_15
REMARK                            x       y       z     vdW  Elec       q    Type
REMARK                         _______ _______ _______ _____ _____    ______ ____
ROOT
ATOM      9  C   UNL     1      13.366   7.328  19.077  0.00  0.00    +0.169 C 
ATOM     10  O   UNL     1      13.958   7.337  19.652  0.00  0.00    -0.350 OA
ATOM     11  C   UNL     1      13.594   7.294  20.391  0.00  0.00    +0.162 C 
ATOM     12  C   UNL     1      12.779   7.258  20.274  0.00  0.00    +0.136 C 
ATOM     20  C   UNL     1      12.638   7.280  19.461  0.00  0.00    +0.199 C 
ATOM     21  O   UNL     1      11.898   7.257  19.097  0.00  0.00    -0.219 OA
ENDROOT
BRANCH   9   8
ATOM      8  C   UNL     1      13.483   7.362  18.262  0.00  0.00    +0.149 C 
BRANCH   8   7
ATOM      4  N   UNL     1      14.015   8.838  16.743  0.00  0.00    -0.189 NA
ATOM      5  C   UNL     1      13.739   8.143  17.093  0.00  0.00    +0.339 C 
ATOM      6  O   UNL     1      13.441   7.535  16.621  0.00  0.00    -0.249 OA
ATOM      7  N   UNL     1      13.760   8.056  17.912  0.00  0.00    -0.185 NA
BRANCH   4   2
ATOM      1  C   UNL     1      14.686   8.842  15.482  0.00  0.00    +0.023 C 
ATOM      2  C   UNL     1      13.994   8.924  15.924  0.00  0.00    +0.097 C 
ATOM      3  C   UNL     1      13.281   9.093  15.545  0.00  0.00    +0.023 C 
ENDBRANCH   4   2
ENDBRANCH   8   7
ENDBRANCH   9   8
BRANCH  12  13
ATOM     13  N   UNL     1      12.204   7.210  20.865  0.00  0.00    -0.206 NA
BRANCH  13  14
ATOM     14  C   UNL     1      12.081   7.850  21.371  0.00  0.00    +0.154 C 
BRANCH  14  15
ATOM     15  C   UNL     1      11.414   7.867  21.858  0.00  0.00    +0.157 A 
ATOM     16  N   UNL     1      11.239   8.445  22.420  0.00  0.00    -0.226 NA
ATOM     17  C   UNL     1      10.522   8.245  22.777  0.00  0.00    +0.121 A 
ATOM     18  C   UNL     1      10.255   7.544  22.435  0.00  0.00    +0.121 A 
ATOM     19  N   UNL     1      10.806   7.310  21.867  0.00  0.00    -0.226 NA
ENDBRANCH  14  15
ENDBRANCH  13  14
ENDBRANCH  12  13
TORSDOF 6
ENDMDL
MODEL 10
REMARK VINA RESULT:      -4.6     20.498     21.285
REMARK  Name = 
REMARK  6 active torsions:
REMARK  status: ('A' for Active; 'I' for Inactive)
REMARK    1  A    between atoms: C_2  and  N_4
REMARK    2  A    between atoms: N_7  and  C_8
REMARK    3  A    between atoms: C_8  and  C_9
REMARK    4  A    between atoms: C_12  and  N_13
REMARK    5  A    between atoms: N_13  and  C_14
REMARK    6  A    between atoms: C_14  and  C_15
REMARK                            x       y       z     vdW  Elec       q    Type
REMARK                         _______ _______ _______ _____ _____    ______ ____
ROOT
ATOM      9  C   UNL     1      17.167  -4.994  24.517  0.00  0.00    +0.169 C 
ATOM     10  O   UNL     1      17.059  -4.973  25.335  0.00  0.00    -0.350 OA
ATOM     11  C   UNL     1      17.022  -5.752  25.606  0.00  0.00    +0.162 C 
ATOM     12  C   UNL     1      17.107  -6.253  24.957  0.00  0.00    +0.136 C 
ATOM     20  C   UNL     1      17.196  -5.785  24.284  0.00  0.00    +0.199 C 
ATOM     21  O   UNL     1      17.298  -6.059  23.512  0.00  0.00    -0.219 OA
ENDROOT
BRANCH   9   8
ATOM      8  C   UNL     1      17.233  -4.339  24.021  0.00  0.00    +0.149 C 
BRANCH   8   7
ATOM      4  N   UNL     1      16.659  -2.233  23.981  0.00  0.00    -0.189 NA
ATOM      5  C   UNL     1      16.989  -2.956  23.758  0.00  0.00    +0.339 C 
ATOM      6  O   UNL     1      17.405  -3.017  23.049  0.00  0.00    -0.249 OA
ATOM      7  N   UNL     1      16.903  -3.616  24.244  0.00  0.00    -0.185 NA
BRANCH   4   2
ATOM      1  C   UNL     1      16.224  -1.451  22.868  0.00  0.00    +0.023 C 
ATOM      2  C   UNL     1      16.744  -1.573  23.496  0.00  0.00    +0.097 C 
ATOM      3  C   UNL     1      17.352  -1.032  23.638  0.00  0.00    +0.023 C 
ENDBRANCH   4   2
ENDBRANCH   8   7
ENDBRANCH   9   8
BRANCH  12  13
ATOM     13  N   UNL     1      17.103  -7.079  24.976  0.00  0.00    -0.206 NA
BRANCH  13  14
ATOM     14  C   UNL     1      16.807  -7.473  25.638  0.00  0.00    +0.154 C 
BRANCH  14  15
ATOM     15  C   UNL     1      16.770  -8.298  25.643  0.00  0.00    +0.157 A 
ATOM     16  N   UNL     1      17.372  -8.808  25.884  0.00  0.00    -0.226 NA
ATOM     17  C   UNL     1      17.098  -9.582  25.799  0.00  0.00    +0.121 A 
ATOM     18  C   UNL     1      16.328  -9.549  25.506  0.00  0.00    +0.121 A 
ATOM     19  N   UNL     1      16.125  -8.755  25.410  0.00  0.00    -0.226 NA
ENDBRANCH  14  15
ENDBRANCH  13  14
ENDBRANCH  12  13
TORSDOF 6
ENDMDL
