MODEL 1
REMARK VINA RESULT:     -16.6      0.000      0.000
REMARK  Name = 
REMARK  3 active torsions:
REMARK  status: ('A' for Active; 'I' for Inactive)
REMARK    1  A    between atoms: N_9  and  C_10
REMARK    2  A    between atoms: C_10  and  C_11
REMARK    3  A    between atoms: C_21  and  C_22
REMARK                            x       y       z     vdW  Elec       q    Type
REMARK                         _______ _______ _______ _____ _____    ______ ____
ROOT
ATOM      1  O   UNL     1      -2.826   0.921  24.809  0.00  0.00    -0.267 OA
ATOM      2  C   UNL     1      -3.595   1.196  24.924  0.00  0.00    +0.261 A 
ATOM      3  N   UNL     1      -3.733   2.002  25.035  0.00  0.00    -0.299 N 
ATOM      4  C   UNL     1      -4.503   1.683  25.080  0.00  0.00    +0.110 C 
ATOM      5  C   UNL     1      -5.017   2.513  25.234  0.00  0.00    +0.039 C 
ATOM      6  C   UNL     1      -5.575   3.092  25.362  0.00  0.00    +0.011 C 
ATOM      7  C   UNL     1      -4.879   3.051  25.283  0.00  0.00    +0.054 C 
ATOM      8  C   UNL     1      -4.123   3.573  25.263  0.00  0.00    +0.078 C 
ATOM      9  N   UNL     1      -3.570   2.993  25.135  0.00  0.00    -0.267 NA
ATOM     17  C   UNL     1      -4.222   3.051  25.212  0.00  0.00    +0.074 C 
ATOM     18  C   UNL     1      -4.501   2.277  25.150  0.00  0.00    +0.041 A 
ATOM     19  C   UNL     1      -5.132   1.747  25.155  0.00  0.00    +0.013 A 
ATOM     20  C   UNL     1      -4.996   0.942  25.045  0.00  0.00    +0.006 A 
ATOM     21  C   UNL     1      -4.227   0.666  24.930  0.00  0.00    +0.062 A 
ENDROOT
BRANCH  21  22
ATOM     22  C   UNL     1      -4.090  -0.140  24.819  0.00  0.00    +0.034 A 
ATOM     23  C   UNL     1      -4.270  -0.575  24.142  0.00  0.00    +0.007 A 
ATOM     24  C   UNL     1      -4.040  -1.357  24.271  0.00  0.00    +0.006 A 
ATOM     25  C   UNL     1      -3.717  -1.405  25.029  0.00  0.00    +0.029 A 
ATOM     26  S   UNL     1      -3.748  -0.653  25.368  0.00  0.00    -0.087 S 
ATOM     27  C   UNL     1      -3.437  -2.127  25.312  0.00  0.00    +0.006 A 
ATOM     28  C   UNL     1      -3.480  -2.801  24.837  0.00  0.00    +0.001 A 
ATOM     29  C   UNL     1      -3.802  -2.753  24.080  0.00  0.00    +0.000 A 
ATOM     30  C   UNL     1      -4.082  -2.030  23.797  0.00  0.00    +0.001 A 
ENDBRANCH  21  22
BRANCH   9  10
ATOM     10  C   UNL     1      -2.835   2.640  25.014  0.00  0.00    +0.119 C 
BRANCH  10  11
ATOM     11  C   UNL     1      -2.152   3.102  25.004  0.00  0.00    +0.075 A 
ATOM     12  N   UNL     1      -1.838   3.359  24.286  0.00  0.00    -0.247 NA
ATOM     13  C   UNL     1      -1.154   3.822  24.276  0.00  0.00    +0.098 A 
ATOM     14  C   UNL     1      -0.785   4.026  24.984  0.00  0.00    +0.021 A 
ATOM     15  C   UNL     1      -1.099   3.769  25.703  0.00  0.00    +0.003 A 
ATOM     16  C   UNL     1      -1.782   3.306  25.713  0.00  0.00    +0.016 A 
ENDBRANCH  10  11
ENDBRANCH   9  10
TORSDOF 3
ENDMDL
MODEL 2
REMARK VINA RESULT:     -14.8      1.224      4.391
REMARK  Name = 
REMARK  3 active torsions:
REMARK  status: ('A' for Active; 'I' for Inactive)
REMARK    1  A    between atoms: N_9  and  C_10
REMARK    2  A    between atoms: C_10  and  C_11
REMARK    3  A    between atoms: C_21  and  C_22
REMARK                            x       y       z     vdW  Elec       q    Type
REMARK                         _______ _______ _______ _____ _____    ______ ____
ROOT
ATOM      1  O   UNL     1      -2.713   1.619  24.873  0.00  0.00    -0.267 OA
ATOM      2  C   UNL     1      -3.452   1.983  24.916  0.00  0.00    +0.261 A 
ATOM      3  N   UNL     1      -4.137   1.524  24.942  0.00  0.00    -0.299 N 
ATOM      4  C   UNL     1      -4.443   2.301  24.970  0.00  0.00    +0.110 C 
ATOM      5  C   UNL     1      -5.409   2.098  25.014  0.00  0.00    +0.039 C 
ATOM      6  C   UNL     1      -6.223   2.099  25.054  0.00  0.00    +0.011 C 
ATOM      7  C   UNL     1      -5.706   1.626  25.021  0.00  0.00    +0.054 C 
ATOM      8  C   UNL     1      -5.559   0.719  25.000  0.00  0.00    +0.078 C 
ATOM      9  N   UNL     1      -4.748   0.721  24.960  0.00  0.00    -0.267 NA
ATOM     17  C   UNL     1      -5.246   1.152  24.991  0.00  0.00    +0.074 C 
ATOM     18  C   UNL     1      -4.876   1.888  24.985  0.00  0.00    +0.041 A 
ATOM     19  C   UNL     1      -4.930   2.711  25.000  0.00  0.00    +0.013 A 
ATOM     20  C   UNL     1      -4.245   3.170  24.974  0.00  0.00    +0.006 A 
ATOM     21  C   UNL     1      -3.506   2.806  24.932  0.00  0.00    +0.062 A 
ENDROOT
BRANCH  21  22
ATOM     22  C   UNL     1      -2.821   3.265  24.905  0.00  0.00    +0.034 A 
ATOM     23  C   UNL     1      -2.124   3.074  24.507  0.00  0.00    +0.007 A 
ATOM     24  C   UNL     1      -1.585   3.687  24.628  0.00  0.00    +0.006 A 
ATOM     25  C   UNL     1      -1.948   4.257  25.101  0.00  0.00    +0.029 A 
ATOM     26  S   UNL     1      -2.713   3.996  25.273  0.00  0.00    -0.087 S 
ATOM     27  C   UNL     1      -1.537   4.938  25.315  0.00  0.00    +0.006 A 
ATOM     28  C   UNL     1      -0.762   5.051  25.055  0.00  0.00    +0.001 A 
ATOM     29  C   UNL     1      -0.398   4.482  24.582  0.00  0.00    +0.000 A 
ATOM     30  C   UNL     1      -0.810   3.799  24.369  0.00  0.00    +0.001 A 
ENDBRANCH  21  22
BRANCH   9  10
ATOM     10  C   UNL     1      -3.976   0.435  24.917  0.00  0.00    +0.119 C 
BRANCH  10  11
ATOM     11  C   UNL     1      -3.838  -0.378  24.894  0.00  0.00    +0.075 A 
ATOM     12  N   UNL     1      -3.649  -0.783  25.587  0.00  0.00    -0.247 NA
ATOM     13  C   UNL     1      -3.510  -1.597  25.565  0.00  0.00    +0.098 A 
ATOM     14  C   UNL     1      -3.561  -2.004  24.850  0.00  0.00    +0.021 A 
ATOM     15  C   UNL     1      -3.751  -1.598  24.156  0.00  0.00    +0.003 A 
ATOM     16  C   UNL     1      -3.889  -0.785  24.178  0.00  0.00    +0.016 A 
ENDBRANCH  10  11
ENDBRANCH   9  10
TORSDOF 3
ENDMDL
MODEL 3
REMARK VINA RESULT:     -14.2      1.923      4.325
REMARK  Name = 
REMARK  3 active torsions:
REMARK  status: ('A' for Active; 'I' for Inactive)
REMARK    1  A    between atoms: N_9  and  C_10
REMARK    2  A    between atoms: C_10  and  C_11
REMARK    3  A    between atoms: C_21  and  C_22
REMARK                            x       y       z     vdW  Elec       q    Type
REMARK                         _______ _______ _______ _____ _____    ______ ____
ROOT
ATOM      1  O   UNL     1      -2.901   0.566  25.011  0.00  0.00    -0.267 OA
ATOM      2  C   UNL     1      -3.473   0.040  24.733  0.00  0.00    +0.261 A 
ATOM      3  N   UNL     1      -3.269  -0.742  24.566  0.00  0.00    -0.299 N 
ATOM      4  C   UNL     1      -4.083  -0.728  24.380  0.00  0.00    +0.110 C 
ATOM      5  C   UNL     1      -4.204  -1.666  24.094  0.00  0.00    +0.039 C 
ATOM      6  C   UNL     1      -4.465  -2.392  23.833  0.00  0.00    +0.011 C 
ATOM      7  C   UNL     1      -3.863  -2.105  24.052  0.00  0.00    +0.054 C 
ATOM      8  C   UNL     1      -2.979  -2.310  24.202  0.00  0.00    +0.078 C 
ATOM      9  N   UNL     1      -2.723  -1.584  24.461  0.00  0.00    -0.267 NA
ATOM     17  C   UNL     1      -3.279  -1.870  24.253  0.00  0.00    +0.074 C 
ATOM     18  C   UNL     1      -3.840  -1.267  24.288  0.00  0.00    +0.041 A 
ATOM     19  C   UNL     1      -4.616  -1.011  24.177  0.00  0.00    +0.013 A 
ATOM     20  C   UNL     1      -4.821  -0.230  24.344  0.00  0.00    +0.006 A 
ATOM     21  C   UNL     1      -4.249   0.296  24.622  0.00  0.00    +0.062 A 
ENDROOT
BRANCH  21  22
ATOM     22  C   UNL     1      -4.454   1.077  24.790  0.00  0.00    +0.034 A 
ATOM     23  C   UNL     1      -4.983   1.326  25.371  0.00  0.00    +0.007 A 
ATOM     24  C   UNL     1      -5.021   2.150  25.346  0.00  0.00    +0.006 A 
ATOM     25  C   UNL     1      -4.515   2.411  24.748  0.00  0.00    +0.029 A 
ATOM     26  S   UNL     1      -4.165   1.747  24.404  0.00  0.00    -0.087 S 
ATOM     27  C   UNL     1      -4.440   3.217  24.594  0.00  0.00    +0.006 A 
ATOM     28  C   UNL     1      -4.870   3.764  25.038  0.00  0.00    +0.001 A 
ATOM     29  C   UNL     1      -5.375   3.504  25.635  0.00  0.00    +0.000 A 
ATOM     30  C   UNL     1      -5.451   2.697  25.789  0.00  0.00    +0.001 A 
ENDBRANCH  21  22
BRANCH   9  10
ATOM     10  C   UNL     1      -2.213  -1.000  24.741  0.00  0.00    +0.119 C 
BRANCH  10  11
ATOM     11  C   UNL     1      -1.403  -1.150  24.793  0.00  0.00    +0.075 A 
ATOM     12  N   UNL     1      -0.898  -0.907  24.188  0.00  0.00    -0.247 NA
ATOM     13  C   UNL     1      -0.089  -1.056  24.240  0.00  0.00    +0.098 A 
ATOM     14  C   UNL     1       0.216  -1.450  24.898  0.00  0.00    +0.021 A 
ATOM     15  C   UNL     1      -0.289  -1.693  25.504  0.00  0.00    +0.003 A 
ATOM     16  C   UNL     1      -1.099  -1.544  25.451  0.00  0.00    +0.016 A 
ENDBRANCH  10  11
ENDBRANCH   9  10
TORSDOF 3
ENDMDL
MODEL 4
REMARK VINA RESULT:     -13.3      1.429      2.766
REMARK  Name = 
REMARK  3 active torsions:
REMARK  status: ('A' for Active; 'I' for Inactive)
REMARK    1  A    between atoms: N_9  and  C_10
REMARK    2  A    between atoms: C_10  and  C_11
REMARK    3  A    between atoms: C_21  and  C_22
REMARK                            x       y       z     vdW  Elec       q    Type
REMARK                         _______ _______ _______ _____ _____    ______ ____
ROOT
ATOM      1  O   UNL     1      -3.064   0.786  24.850  0.00  0.00    -0.267 OA
ATOM      2  C   UNL     1      -2.285   0.889  25.101  0.00  0.00    +0.261 A 
ATOM      3  N   UNL     1      -1.988   1.649  25.224  0.00  0.00    -0.299 N 
ATOM      4  C   UNL     1      -1.332   1.170  25.415  0.00  0.00    +0.110 C 
ATOM      5  C   UNL     1      -0.677   1.872  25.650  0.00  0.00    +0.039 C 
ATOM      6  C   UNL     1      -0.033   2.319  25.871  0.00  0.00    +0.011 C 
ATOM      7  C   UNL     1      -0.695   2.429  25.665  0.00  0.00    +0.054 C 
ATOM      8  C   UNL     1      -1.295   3.104  25.499  0.00  0.00    +0.078 C 
ATOM      9  N   UNL     1      -1.935   2.656  25.279  0.00  0.00    -0.267 NA
ATOM     17  C   UNL     1      -1.311   2.571  25.474  0.00  0.00    +0.074 C 
ATOM     18  C   UNL     1      -1.210   1.753  25.476  0.00  0.00    +0.041 A 
ATOM     19  C   UNL     1      -0.728   1.096  25.604  0.00  0.00    +0.013 A 
ATOM     20  C   UNL     1      -1.024   0.337  25.482  0.00  0.00    +0.006 A 
ATOM     21  C   UNL     1      -1.803   0.233  25.230  0.00  0.00    +0.062 A 
ENDROOT
BRANCH  21  22
ATOM     22  C   UNL     1      -2.099  -0.527  25.107  0.00  0.00    +0.034 A 
ATOM     23  C   UNL     1      -2.756  -0.858  25.480  0.00  0.00    +0.007 A 
ATOM     24  C   UNL     1      -2.853  -1.625  25.193  0.00  0.00    +0.006 A 
ATOM     25  C   UNL     1      -2.256  -1.770  24.643  0.00  0.00    +0.029 A 
ATOM     26  S   UNL     1      -1.789  -1.090  24.590  0.00  0.00    -0.087 S 
ATOM     27  C   UNL     1      -2.214  -2.499  24.262  0.00  0.00    +0.006 A 
ATOM     28  C   UNL     1      -2.769  -3.086  24.431  0.00  0.00    +0.001 A 
ATOM     29  C   UNL     1      -3.367  -2.942  24.980  0.00  0.00    +0.000 A 
ATOM     30  C   UNL     1      -3.409  -2.211  25.362  0.00  0.00    +0.001 A 
ENDBRANCH  21  22
BRANCH   9  10
ATOM     10  C   UNL     1      -2.698   2.468  25.029  0.00  0.00    +0.119 C 
BRANCH  10  11
ATOM     11  C   UNL     1      -3.259   3.066  24.936  0.00  0.00    +0.075 A 
ATOM     12  N   UNL     1      -3.693   3.330  25.586  0.00  0.00    -0.247 NA
ATOM     13  C   UNL     1      -4.255   3.928  25.492  0.00  0.00    +0.098 A 
ATOM     14  C   UNL     1      -4.382   4.260  24.749  0.00  0.00    +0.021 A 
ATOM     15  C   UNL     1      -3.949   3.996  24.098  0.00  0.00    +0.003 A 
ATOM     16  C   UNL     1      -3.387   3.398  24.191  0.00  0.00    +0.016 A 
ENDBRANCH  10  11
ENDBRANCH   9  10
TORSDOF 3
ENDMDL
MODEL 5
REMARK VINA RESULT:     -13.0      2.195      3.441
REMARK  Name = 
REMARK  3 active torsions:
REMARK  status: ('A' for Active; 'I' for Inactive)
REMARK    1  A    between atoms: N_9  and  C_10
REMARK    2  A    between atoms: C_10  and  C_11
REMARK    3  A    between atoms: C_21  and  C_22
REMARK                            x       y       z     vdW  Elec       q    Type
REMARK                         _______ _______ _______ _____ _____    ______ ____
ROOT
ATOM      1  O   UNL     1      -2.475   1.595  25.099  0.00  0.00    -0.267 OA
ATOM      2  C   UNL     1      -1.851   2.135  25.085  0.00  0.00    +0.261 A 
ATOM      3  N   UNL     1      -2.005   2.945  25.131  0.00  0.00    -0.299 N 
ATOM      4  C   UNL     1      -1.171   2.926  25.080  0.00  0.00    +0.110 C 
ATOM      5  C   UNL     1      -0.981   3.895  25.112  0.00  0.00    +0.039 C 
ATOM      6  C   UNL     1      -0.662   4.644  25.126  0.00  0.00    +0.011 C 
ATOM      7  C   UNL     1      -1.300   4.351  25.152  0.00  0.00    +0.054 C 
ATOM      8  C   UNL     1      -2.190   4.567  25.215  0.00  0.00    +0.078 C 
ATOM      9  N   UNL     1      -2.505   3.819  25.200  0.00  0.00    -0.267 NA
ATOM     17  C   UNL     1      -1.914   4.111  25.178  0.00  0.00    +0.074 C 
ATOM     18  C   UNL     1      -1.382   3.484  25.118  0.00  0.00    +0.041 A 
ATOM     19  C   UNL     1      -0.605   3.215  25.059  0.00  0.00    +0.013 A 
ATOM     20  C   UNL     1      -0.450   2.407  25.014  0.00  0.00    +0.006 A 
ATOM     21  C   UNL     1      -1.073   1.867  25.027  0.00  0.00    +0.062 A 
ENDROOT
BRANCH  21  22
ATOM     22  C   UNL     1      -0.919   1.057  24.981  0.00  0.00    +0.034 A 
ATOM     23  C   UNL     1      -1.044   0.505  25.581  0.00  0.00    +0.007 A 
ATOM     24  C   UNL     1      -0.815  -0.235  25.298  0.00  0.00    +0.006 A 
ATOM     25  C   UNL     1      -0.547  -0.141  24.523  0.00  0.00    +0.029 A 
ATOM     26  S   UNL     1      -0.612   0.659  24.327  0.00  0.00    -0.087 S 
ATOM     27  C   UNL     1      -0.280  -0.794  24.097  0.00  0.00    +0.006 A 
ATOM     28  C   UNL     1      -0.280  -1.542  24.445  0.00  0.00    +0.001 A 
ATOM     29  C   UNL     1      -0.548  -1.637  25.219  0.00  0.00    +0.000 A 
ATOM     30  C   UNL     1      -0.815  -0.983  25.646  0.00  0.00    +0.001 A 
ENDBRANCH  21  22
BRANCH   9  10
ATOM     10  C   UNL     1      -3.069   3.218  25.207  0.00  0.00    +0.119 C 
BRANCH  10  11
ATOM     11  C   UNL     1      -3.869   3.403  25.287  0.00  0.00    +0.075 A 
ATOM     12  N   UNL     1      -4.199   3.489  26.038  0.00  0.00    -0.247 NA
ATOM     13  C   UNL     1      -4.999   3.675  26.119  0.00  0.00    +0.098 A 
ATOM     14  C   UNL     1      -5.468   3.775  25.448  0.00  0.00    +0.021 A 
ATOM     15  C   UNL     1      -5.138   3.689  24.696  0.00  0.00    +0.003 A 
ATOM     16  C   UNL     1      -4.338   3.503  24.616  0.00  0.00    +0.016 A 
ENDBRANCH  10  11
ENDBRANCH   9  10
TORSDOF 3
ENDMDL
MODEL 6
REMARK VINA RESULT:     -12.9      1.454      2.450
REMARK  Name = 
REMARK  3 active torsions:
REMARK  status: ('A' for Active; 'I' for Inactive)
REMARK    1  A    between atoms: N_9  and  C_10
REMARK    2  A    between atoms: C_10  and  C_11
REMARK    3  A    between atoms: C_21  and  C_22
REMARK                            x       y       z     vdW  Elec       q    Type
REMARK                         _______ _______ _______ _____ _____    ______ ____
ROOT
ATOM      1  O   UNL     1      -4.163   0.584  24.915  0.00  0.00    -0.267 OA
ATOM      2  C   UNL     1      -3.707   0.794  24.260  0.00  0.00    +0.261 A 
ATOM      3  N   UNL     1      -3.657   1.585  24.030  0.00  0.00    -0.299 N 
ATOM      4  C   UNL     1      -3.176   1.204  23.463  0.00  0.00    +0.110 C 
ATOM      5  C   UNL     1      -2.897   1.987  22.928  0.00  0.00    +0.039 C 
ATOM      6  C   UNL     1      -2.582   2.517  22.396  0.00  0.00    +0.011 C 
ATOM      7  C   UNL     1      -3.003   2.533  22.958  0.00  0.00    +0.054 C 
ATOM      8  C   UNL     1      -3.483   3.116  23.482  0.00  0.00    +0.078 C 
ATOM      9  N   UNL     1      -3.796   2.584  24.011  0.00  0.00    -0.267 NA
ATOM     17  C   UNL     1      -3.402   2.588  23.482  0.00  0.00    +0.074 C 
ATOM     18  C   UNL     1      -3.201   1.795  23.376  0.00  0.00    +0.041 A 
ATOM     19  C   UNL     1      -2.796   1.215  22.951  0.00  0.00    +0.013 A 
ATOM     20  C   UNL     1      -2.847   0.425  23.181  0.00  0.00    +0.006 A 
ATOM     21  C   UNL     1      -3.302   0.214  23.836  0.00  0.00    +0.062 A 
ENDROOT
BRANCH  21  22
ATOM     22  C   UNL     1      -3.353  -0.576  24.066  0.00  0.00    +0.034 A 
ATOM     23  C   UNL     1      -3.897  -1.129  23.786  0.00  0.00    +0.007 A 
ATOM     24  C   UNL     1      -3.749  -1.848  24.164  0.00  0.00    +0.006 A 
ATOM     25  C   UNL     1      -3.112  -1.739  24.678  0.00  0.00    +0.029 A 
ATOM     26  S   UNL     1      -2.868  -0.952  24.617  0.00  0.00    -0.087 S 
ATOM     27  C   UNL     1      -2.838  -2.368  25.134  0.00  0.00    +0.006 A 
ATOM     28  C   UNL     1      -3.200  -3.108  25.077  0.00  0.00    +0.001 A 
ATOM     29  C   UNL     1      -3.836  -3.217  24.563  0.00  0.00    +0.000 A 
ATOM     30  C   UNL     1      -4.110  -2.586  24.107  0.00  0.00    +0.001 A 
ENDBRANCH  21  22
BRANCH   9  10
ATOM     10  C   UNL     1      -4.227   2.293  24.650  0.00  0.00    +0.119 C 
BRANCH  10  11
ATOM     11  C   UNL     1      -4.652   2.812  25.130  0.00  0.00    +0.075 A 
ATOM     12  N   UNL     1      -4.254   3.318  25.646  0.00  0.00    -0.247 NA
ATOM     13  C   UNL     1      -4.679   3.837  26.126  0.00  0.00    +0.098 A 
ATOM     14  C   UNL     1      -5.502   3.849  26.092  0.00  0.00    +0.021 A 
ATOM     15  C   UNL     1      -5.902   3.343  25.576  0.00  0.00    +0.003 A 
ATOM     16  C   UNL     1      -5.477   2.824  25.096  0.00  0.00    +0.016 A 
ENDBRANCH  10  11
ENDBRANCH   9  10
TORSDOF 3
ENDMDL
