MODEL 1
REMARK VINA RESULT:     -11.9      0.000      0.000
REMARK  Name = 
REMARK  6 active torsions:
REMARK  status: ('A' for Active; 'I' for Inactive)
REMARK    1  A    between atoms: O_2  and  C_3
REMARK    2  A    between atoms: C_6  and  C_9
REMARK    3  A    between atoms: N_11  and  C_12
REMARK    4  A    between atoms: C_14  and  C_17
REMARK    5  A    between atoms: N_20  and  C_21
REMARK    6  A    between atoms: C_21  and  C_22
REMARK                            x       y       z     vdW  Elec       q    Type
REMARK                         _______ _______ _______ _____ _____    ______ ____
ROOT
ATOM     12  C   UNL     1      -4.579   1.053  24.946  0.00  0.00    +0.118 C 
ATOM     13  C   UNL     1      -3.959   1.597  24.910  0.00  0.00    +0.035 C 
ATOM     14  C   UNL     1      -4.285   2.355  24.911  0.00  0.00    +0.048 C 
ATOM     15  C   UNL     1      -5.106   2.280  24.947  0.00  0.00    -0.025 C 
ATOM     16  C   UNL     1      -5.287   1.475  24.969  0.00  0.00    -0.009 C 
ENDROOT
BRANCH  14  17
ATOM     17  C   UNL     1      -3.864   3.063  24.880  0.00  0.00    +0.010 A 
ATOM     18  C   UNL     1      -3.386   3.370  25.479  0.00  0.00    +0.054 A 
ATOM     19  C   UNL     1      -3.246   3.023  26.214  0.00  0.00    +0.051 C 
ATOM     20  N   UNL     1      -3.074   4.086  25.213  0.00  0.00    -0.251 N 
ATOM     28  N   UNL     1      -3.358   4.222  24.451  0.00  0.00    -0.174 NA
ATOM     29  C   UNL     1      -3.846   3.590  24.245  0.00  0.00    +0.076 A 
ATOM     30  C   UNL     1      -4.247   3.500  23.529  0.00  0.00    +0.054 C 
BRANCH  20  21
ATOM     21  C   UNL     1      -2.566   4.580  25.637  0.00  0.00    +0.153 C 
BRANCH  21  22
ATOM     22  C   UNL     1      -1.833   4.788  25.320  0.00  0.00    +0.002 A 
ATOM     23  C   UNL     1      -1.228   4.229  25.281  0.00  0.00    -0.002 A 
ATOM     24  C   UNL     1      -0.495   4.437  24.964  0.00  0.00    -0.000 A 
ATOM     25  C   UNL     1      -0.368   5.203  24.687  0.00  0.00    -0.000 A 
ATOM     26  C   UNL     1      -0.974   5.762  24.727  0.00  0.00    -0.000 A 
ATOM     27  C   UNL     1      -1.706   5.554  25.043  0.00  0.00    -0.002 A 
ENDBRANCH  21  22
ENDBRANCH  20  21
ENDBRANCH  14  17
BRANCH  12  11
ATOM      9  C   UNL     1      -4.028  -0.146  24.400  0.00  0.00    +0.265 C 
ATOM     10  O   UNL     1      -3.628   0.297  23.830  0.00  0.00    -0.268 OA
ATOM     11  N   UNL     1      -4.503   0.231  24.958  0.00  0.00    -0.199 NA
BRANCH   9   6
ATOM      3  C   UNL     1      -3.800  -2.611  24.434  0.00  0.00    +0.139 A 
ATOM      4  C   UNL     1      -3.461  -2.157  25.033  0.00  0.00    +0.037 A 
ATOM      5  C   UNL     1      -3.537  -1.336  25.022  0.00  0.00    +0.008 A 
ATOM      6  C   UNL     1      -3.952  -0.969  24.411  0.00  0.00    +0.055 A 
ATOM      7  C   UNL     1      -4.291  -1.422  23.811  0.00  0.00    +0.008 A 
ATOM      8  C   UNL     1      -4.215  -2.243  23.822  0.00  0.00    +0.037 A 
BRANCH   3   2
ATOM      1  C   UNL     1      -3.013  -3.784  24.216  0.00  0.00    +0.252 C 
ATOM      2  O   UNL     1      -3.724  -3.432  24.445  0.00  0.00    -0.471 OA
ENDBRANCH   3   2
ENDBRANCH   9   6
ENDBRANCH  12  11
TORSDOF 6
ENDMDL
MODEL 2
REMARK VINA RESULT:     -10.2      3.607      5.118
REMARK  Name = 
REMARK  6 active torsions:
REMARK  status: ('A' for Active; 'I' for Inactive)
REMARK    1  A    between atoms: O_2  and  C_3
REMARK    2  A    between atoms: C_6  and  C_9
REMARK    3  A    between atoms: N_11  and  C_12
REMARK    4  A    between atoms: C_14  and  C_17
REMARK    5  A    between atoms: N_20  and  C_21
REMARK    6  A    between atoms: C_21  and  C_22
REMARK                            x       y       z     vdW  Elec       q    Type
REMARK                         _______ _______ _______ _____ _____    ______ ____
ROOT
ATOM     12  C   UNL     1      -0.533   0.765  24.270  0.00  0.00    +0.118 C 
ATOM     13  C   UNL     1      -1.258   1.024  23.972  0.00  0.00    +0.035 C 
ATOM     14  C   UNL     1      -1.841   0.846  24.529  0.00  0.00    +0.048 C 
ATOM     15  C   UNL     1      -1.476   0.477  25.171  0.00  0.00    -0.025 C 
ATOM     16  C   UNL     1      -0.668   0.427  25.010  0.00  0.00    -0.009 C 
ENDROOT
BRANCH  14  17
ATOM     17  C   UNL     1      -2.646   1.008  24.457  0.00  0.00    +0.010 A 
ATOM     18  C   UNL     1      -2.991   1.758  24.444  0.00  0.00    +0.054 A 
ATOM     19  C   UNL     1      -2.591   2.477  24.502  0.00  0.00    +0.051 C 
ATOM     20  N   UNL     1      -3.806   1.661  24.364  0.00  0.00    -0.251 N 
ATOM     28  N   UNL     1      -3.966   0.853  24.327  0.00  0.00    -0.174 NA
ATOM     29  C   UNL     1      -3.249   0.449  24.384  0.00  0.00    +0.076 A 
ATOM     30  C   UNL     1      -3.152  -0.370  24.371  0.00  0.00    +0.054 C 
BRANCH  20  21
ATOM     21  C   UNL     1      -4.365   2.268  24.327  0.00  0.00    +0.153 C 
BRANCH  21  22
ATOM     22  C   UNL     1      -5.011   2.266  24.841  0.00  0.00    +0.002 A 
ATOM     23  C   UNL     1      -5.685   1.831  24.653  0.00  0.00    -0.002 A 
ATOM     24  C   UNL     1      -6.331   1.829  25.166  0.00  0.00    -0.000 A 
ATOM     25  C   UNL     1      -6.301   2.263  25.867  0.00  0.00    -0.000 A 
ATOM     26  C   UNL     1      -5.626   2.699  26.054  0.00  0.00    -0.000 A 
ATOM     27  C   UNL     1      -4.981   2.701  25.541  0.00  0.00    -0.002 A 
ENDBRANCH  21  22
ENDBRANCH  20  21
ENDBRANCH  14  17
BRANCH  12  11
ATOM      9  C   UNL     1       0.556   0.165  23.569  0.00  0.00    +0.265 C 
ATOM     10  O   UNL     1       0.186  -0.571  23.620  0.00  0.00    -0.268 OA
ATOM     11  N   UNL     1       0.197   0.832  23.893  0.00  0.00    -0.199 NA
BRANCH   9   6
ATOM      3  C   UNL     1       2.750   0.366  22.437  0.00  0.00    +0.139 A 
ATOM      4  C   UNL     1       2.587   0.819  23.107  0.00  0.00    +0.037 A 
ATOM      5  C   UNL     1       1.856   0.752  23.484  0.00  0.00    +0.008 A 
ATOM      6  C   UNL     1       1.288   0.232  23.191  0.00  0.00    +0.055 A 
ATOM      7  C   UNL     1       1.449  -0.222  22.521  0.00  0.00    +0.008 A 
ATOM      8  C   UNL     1       2.180  -0.154  22.144  0.00  0.00    +0.037 A 
BRANCH   3   2
ATOM      1  C   UNL     1       4.137   0.705  22.480  0.00  0.00    +0.252 C 
ATOM      2  O   UNL     1       3.479   0.434  22.061  0.00  0.00    -0.471 OA
ENDBRANCH   3   2
ENDBRANCH   9   6
ENDBRANCH  12  11
TORSDOF 6
ENDMDL
MODEL 3
REMARK VINA RESULT:      -9.9      2.382      6.497
REMARK  Name = 
REMARK  6 active torsions:
REMARK  status: ('A' for Active; 'I' for Inactive)
REMARK    1  A    between atoms: O_2  and  C_3
REMARK    2  A    between atoms: C_6  and  C_9
REMARK    3  A    between atoms: N_11  and  C_12
REMARK    4  A    between atoms: C_14  and  C_17
REMARK    5  A    between atoms: N_20  and  C_21
REMARK    6  A    between atoms: C_21  and  C_22
REMARK                            x       y       z     vdW  Elec       q    Type
REMARK                         _______ _______ _______ _____ _____    ______ ____
ROOT
ATOM     12  C   UNL     1      -0.980   1.560  25.238  0.00  0.00    +0.118 C 
ATOM     13  C   UNL     1      -1.469   0.961  24.952  0.00  0.00    +0.035 C 
ATOM     14  C   UNL     1      -1.233   0.251  25.300  0.00  0.00    +0.048 C 
ATOM     15  C   UNL     1      -0.598   0.411  25.801  0.00  0.00    -0.025 C 
ATOM     16  C   UNL     1      -0.441   1.221  25.763  0.00  0.00    -0.009 C 
ENDROOT
BRANCH  14  17
ATOM     17  C   UNL     1      -1.573  -0.490  25.169  0.00  0.00    +0.010 A 
ATOM     18  C   UNL     1      -2.304  -0.745  25.453  0.00  0.00    +0.054 A 
ATOM     19  C   UNL     1      -2.824  -0.305  25.917  0.00  0.00    +0.051 C 
ATOM     20  N   UNL     1      -2.423  -1.518  25.190  0.00  0.00    -0.251 N 
ATOM     28  N   UNL     1      -1.766  -1.741  24.744  0.00  0.00    -0.174 NA
ATOM     29  C   UNL     1      -1.240  -1.105  24.731  0.00  0.00    +0.076 A 
ATOM     30  C   UNL     1      -0.510  -1.088  24.347  0.00  0.00    +0.054 C 
BRANCH  20  21
ATOM     21  C   UNL     1      -3.084  -1.986  25.346  0.00  0.00    +0.153 C 
BRANCH  21  22
ATOM     22  C   UNL     1      -3.533  -2.288  24.723  0.00  0.00    +0.002 A 
ATOM     23  C   UNL     1      -3.456  -3.080  24.506  0.00  0.00    -0.002 A 
ATOM     24  C   UNL     1      -3.904  -3.382  23.883  0.00  0.00    -0.000 A 
ATOM     25  C   UNL     1      -4.429  -2.892  23.478  0.00  0.00    -0.000 A 
ATOM     26  C   UNL     1      -4.506  -2.099  23.695  0.00  0.00    -0.000 A 
ATOM     27  C   UNL     1      -4.058  -1.798  24.318  0.00  0.00    -0.002 A 
ENDBRANCH  21  22
ENDBRANCH  20  21
ENDBRANCH  14  17
BRANCH  12  11
ATOM      9  C   UNL     1      -1.161   2.925  25.618  0.00  0.00    +0.265 C 
ATOM     10  O   UNL     1      -1.259   2.694  26.404  0.00  0.00    -0.268 OA
ATOM     11  N   UNL     1      -1.022   2.359  25.035  0.00  0.00    -0.199 NA
BRANCH   9   6
ATOM      3  C   UNL     1      -1.287   5.322  25.009  0.00  0.00    +0.139 A 
ATOM      4  C   UNL     1      -0.619   4.880  24.811  0.00  0.00    +0.037 A 
ATOM      5  C   UNL     1      -0.577   4.082  25.014  0.00  0.00    +0.008 A 
ATOM      6  C   UNL     1      -1.203   3.725  25.415  0.00  0.00    +0.055 A 
ATOM      7  C   UNL     1      -1.872   4.166  25.613  0.00  0.00    +0.008 A 
ATOM      8  C   UNL     1      -1.914   4.964  25.410  0.00  0.00    +0.037 A 
BRANCH   3   2
ATOM      1  C   UNL     1      -2.061   6.468  24.652  0.00  0.00    +0.252 C 
ATOM      2  O   UNL     1      -1.329   6.119  24.806  0.00  0.00    -0.471 OA
ENDBRANCH   3   2
ENDBRANCH   9   6
ENDBRANCH  12  11
TORSDOF 6
ENDMDL
MODEL 4
REMARK VINA RESULT:      -9.6      4.071      6.252
REMARK  Name = 
REMARK  6 active torsions:
REMARK  status: ('A' for Active; 'I' for Inactive)
REMARK    1  A    between atoms: O_2  and  C_3
REMARK    2  A    between atoms: C_6  and  C_9
REMARK    3  A    between atoms: N_11  and  C_12
REMARK    4  A    between atoms: C_14  and  C_17
REMARK    5  A    between atoms: N_20  and  C_21
REMARK    6  A    between atoms: C_21  and  C_22
REMARK                            x       y       z     vdW  Elec       q    Type
REMARK                         _______ _______ _______ _____ _____    ______ ____
ROOT
ATOM     12  C   UNL     1       0.586   1.324  24.092  0.00  0.00    +0.118 C 
ATOM     13  C   UNL     1      -0.013   0.755  24.097  0.00  0.00    +0.035 C 
ATOM     14  C   UNL     1      -0.724   1.136  24.269  0.00  0.00    +0.048 C 
ATOM     15  C   UNL     1      -0.566   1.939  24.371  0.00  0.00    -0.025 C 
ATOM     16  C   UNL     1       0.244   2.055  24.261  0.00  0.00    -0.009 C 
ENDROOT
BRANCH  14  17
ATOM     17  C   UNL     1      -1.464   0.777  24.330  0.00  0.00    +0.010 A 
ATOM     18  C   UNL     1      -1.690   0.224  24.899  0.00  0.00    +0.054 A 
ATOM     19  C   UNL     1      -1.215  -0.067  25.508  0.00  0.00    +0.051 C 
ATOM     20  N   UNL     1      -2.474   0.013  24.752  0.00  0.00    -0.251 N 
ATOM     28  N   UNL     1      -2.733   0.435  24.092  0.00  0.00    -0.174 NA
ATOM     29  C   UNL     1      -2.109   0.907  23.831  0.00  0.00    +0.076 A 
ATOM     30  C   UNL     1      -2.126   1.420  23.185  0.00  0.00    +0.054 C 
BRANCH  20  21
ATOM     21  C   UNL     1      -2.921  -0.526  25.189  0.00  0.00    +0.153 C 
BRANCH  21  22
ATOM     22  C   UNL     1      -3.312  -1.144  24.806  0.00  0.00    +0.002 A 
ATOM     23  C   UNL     1      -2.977  -1.897  24.791  0.00  0.00    -0.002 A 
ATOM     24  C   UNL     1      -3.369  -2.514  24.408  0.00  0.00    -0.000 A 
ATOM     25  C   UNL     1      -4.095  -2.378  24.041  0.00  0.00    -0.000 A 
ATOM     26  C   UNL     1      -4.429  -1.623  24.057  0.00  0.00    -0.000 A 
ATOM     27  C   UNL     1      -4.038  -1.007  24.439  0.00  0.00    -0.002 A 
ENDBRANCH  21  22
ENDBRANCH  20  21
ENDBRANCH  14  17
BRANCH  12  11
ATOM      9  C   UNL     1       1.614   0.787  23.258  0.00  0.00    +0.265 C 
ATOM     10  O   UNL     1       1.044   0.529  22.720  0.00  0.00    -0.268 OA
ATOM     11  N   UNL     1       1.385   1.184  23.943  0.00  0.00    -0.199 NA
BRANCH   9   6
ATOM      3  C   UNL     1       4.014   0.369  22.813  0.00  0.00    +0.139 A 
ATOM      4  C   UNL     1       3.718   1.139  22.794  0.00  0.00    +0.037 A 
ATOM      5  C   UNL     1       2.919   1.278  22.942  0.00  0.00    +0.008 A 
ATOM      6  C   UNL     1       2.415   0.648  23.109  0.00  0.00    +0.055 A 
ATOM      7  C   UNL     1       2.709  -0.123  23.128  0.00  0.00    +0.008 A 
ATOM      8  C   UNL     1       3.508  -0.262  22.980  0.00  0.00    +0.037 A 
BRANCH   3   2
ATOM      1  C   UNL     1       5.333   0.106  23.293  0.00  0.00    +0.252 C 
ATOM      2  O   UNL     1       4.812   0.230  22.664  0.00  0.00    -0.471 OA
ENDBRANCH   3   2
ENDBRANCH   9   6
ENDBRANCH  12  11
TORSDOF 6
ENDMDL
MODEL 5
REMARK VINA RESULT:      -9.6      2.851      4.650
REMARK  Name = 
REMARK  6 active torsions:
REMARK  status: ('A' for Active; 'I' for Inactive)
REMARK    1  A    between atoms: O_2  and  C_3
REMARK    2  A    between atoms: C_6  and  C_9
REMARK    3  A    between atoms: N_11  and  C_12
REMARK    4  A    between atoms: C_14  and  C_17
REMARK    5  A    between atoms: N_20  and  C_21
REMARK    6  A    between atoms: C_21  and  C_22
REMARK                            x       y       z     vdW  Elec       q    Type
REMARK                         _______ _______ _______ _____ _____    ______ ____
ROOT
ATOM     12  C   UNL     1      -0.800   2.887  24.279  0.00  0.00    +0.118 C 
ATOM     13  C   UNL     1      -1.596   2.731  24.434  0.00  0.00    +0.035 C 
ATOM     14  C   UNL     1      -1.908   3.378  24.840  0.00  0.00    +0.048 C 
ATOM     15  C   UNL     1      -1.305   3.934  24.936  0.00  0.00    -0.025 C 
ATOM     16  C   UNL     1      -0.621   3.630  24.589  0.00  0.00    -0.009 C 
ENDROOT
BRANCH  14  17
ATOM     17  C   UNL     1      -2.686   3.456  25.104  0.00  0.00    +0.010 A 
ATOM     18  C   UNL     1      -3.365   3.369  24.644  0.00  0.00    +0.054 A 
ATOM     19  C   UNL     1      -3.386   3.188  23.840  0.00  0.00    +0.051 C 
ATOM     20  N   UNL     1      -4.019   3.494  25.131  0.00  0.00    -0.251 N 
ATOM     28  N   UNL     1      -3.745   3.658  25.891  0.00  0.00    -0.174 NA
ATOM     29  C   UNL     1      -2.921   3.635  25.875  0.00  0.00    +0.076 A 
ATOM     30  C   UNL     1      -2.419   3.767  26.516  0.00  0.00    +0.054 C 
BRANCH  20  21
ATOM     21  C   UNL     1      -4.810   3.460  24.898  0.00  0.00    +0.153 C 
BRANCH  21  22
ATOM     22  C   UNL     1      -5.303   2.869  25.195  0.00  0.00    +0.002 A 
ATOM     23  C   UNL     1      -5.692   2.980  25.913  0.00  0.00    -0.002 A 
ATOM     24  C   UNL     1      -6.186   2.390  26.211  0.00  0.00    -0.000 A 
ATOM     25  C   UNL     1      -6.289   1.688  25.789  0.00  0.00    -0.000 A 
ATOM     26  C   UNL     1      -5.899   1.577  25.070  0.00  0.00    -0.000 A 
ATOM     27  C   UNL     1      -5.407   2.168  24.774  0.00  0.00    -0.002 A 
ENDBRANCH  21  22
ENDBRANCH  20  21
ENDBRANCH  14  17
BRANCH  12  11
ATOM      9  C   UNL     1      -0.003   1.702  24.251  0.00  0.00    +0.265 C 
ATOM     10  O   UNL     1      -0.252   1.516  25.016  0.00  0.00    -0.268 OA
ATOM     11  N   UNL     1      -0.277   2.387  23.883  0.00  0.00    -0.199 NA
BRANCH   9   6
ATOM      3  C   UNL     1       1.568   0.202  23.063  0.00  0.00    +0.139 A 
ATOM      4  C   UNL     1       1.838   0.913  23.383  0.00  0.00    +0.037 A 
ATOM      5  C   UNL     1       1.315   1.413  23.779  0.00  0.00    +0.008 A 
ATOM      6  C   UNL     1       0.521   1.202  23.855  0.00  0.00    +0.055 A 
ATOM      7  C   UNL     1       0.250   0.491  23.535  0.00  0.00    +0.008 A 
ATOM      8  C   UNL     1       0.774  -0.009  23.139  0.00  0.00    +0.037 A 
BRANCH   3   2
ATOM      1  C   UNL     1       2.743   0.019  22.271  0.00  0.00    +0.252 C 
ATOM      2  O   UNL     1       2.091  -0.297  22.668  0.00  0.00    -0.471 OA
ENDBRANCH   3   2
ENDBRANCH   9   6
ENDBRANCH  12  11
TORSDOF 6
ENDMDL
MODEL 6
REMARK VINA RESULT:      -9.5      3.966      5.184
REMARK  Name = 
REMARK  6 active torsions:
REMARK  status: ('A' for Active; 'I' for Inactive)
REMARK    1  A    between atoms: O_2  and  C_3
REMARK    2  A    between atoms: C_6  and  C_9
REMARK    3  A    between atoms: N_11  and  C_12
REMARK    4  A    between atoms: C_14  and  C_17
REMARK    5  A    between atoms: N_20  and  C_21
REMARK    6  A    between atoms: C_21  and  C_22
REMARK                            x       y       z     vdW  Elec       q    Type
REMARK                         _______ _______ _______ _____ _____    ______ ____
ROOT
ATOM     12  C   UNL     1      -1.675   0.649  24.748  0.00  0.00    +0.118 C 
ATOM     13  C   UNL     1      -1.071   1.003  24.311  0.00  0.00    +0.035 C 
ATOM     14  C   UNL     1      -0.431   0.482  24.292  0.00  0.00    +0.048 C 
ATOM     15  C   UNL     1      -0.639  -0.193  24.717  0.00  0.00    -0.025 C 
ATOM     16  C   UNL     1      -1.408  -0.089  24.999  0.00  0.00    -0.009 C 
ENDROOT
BRANCH  14  17
ATOM     17  C   UNL     1       0.290   0.614  23.914  0.00  0.00    +0.010 A 
ATOM     18  C   UNL     1       0.660   0.102  23.383  0.00  0.00    +0.054 A 
ATOM     19  C   UNL     1       0.374  -0.631  23.137  0.00  0.00    +0.051 C 
ATOM     20  N   UNL     1       1.367   0.454  23.142  0.00  0.00    -0.251 N 
ATOM     28  N   UNL     1       1.434   1.182  23.523  0.00  0.00    -0.174 NA
ATOM     29  C   UNL     1       0.769   1.281  24.000  0.00  0.00    +0.076 A 
ATOM     30  C   UNL     1       0.609   1.934  24.480  0.00  0.00    +0.054 C 
BRANCH  20  21
ATOM     21  C   UNL     1       1.911   0.132  22.611  0.00  0.00    +0.153 C 
BRANCH  21  22
ATOM     22  C   UNL     1       2.721   0.219  22.747  0.00  0.00    +0.002 A 
ATOM     23  C   UNL     1       3.133  -0.359  23.165  0.00  0.00    -0.002 A 
ATOM     24  C   UNL     1       3.942  -0.272  23.300  0.00  0.00    -0.000 A 
ATOM     25  C   UNL     1       4.338   0.394  23.017  0.00  0.00    -0.000 A 
ATOM     26  C   UNL     1       3.924   0.973  22.599  0.00  0.00    -0.000 A 
ATOM     27  C   UNL     1       3.116   0.886  22.464  0.00  0.00    -0.002 A 
ENDBRANCH  21  22
ENDBRANCH  20  21
ENDBRANCH  14  17
BRANCH  12  11
ATOM      9  C   UNL     1      -3.051   0.819  24.406  0.00  0.00    +0.265 C 
ATOM     10  O   UNL     1      -2.948   0.333  23.748  0.00  0.00    -0.268 OA
ATOM     11  N   UNL     1      -2.415   0.978  24.906  0.00  0.00    -0.199 NA
BRANCH   9   6
ATOM      3  C   UNL     1      -5.272   1.804  24.881  0.00  0.00    +0.139 A 
ATOM      4  C   UNL     1      -5.093   1.044  25.145  0.00  0.00    +0.037 A 
ATOM      5  C   UNL     1      -4.352   0.716  24.987  0.00  0.00    +0.008 A 
ATOM      6  C   UNL     1      -3.792   1.148  24.565  0.00  0.00    +0.055 A 
ATOM      7  C   UNL     1      -3.971   1.909  24.299  0.00  0.00    +0.008 A 
ATOM      8  C   UNL     1      -4.711   2.237  24.457  0.00  0.00    +0.037 A 
BRANCH   3   2
ATOM      1  C   UNL     1      -6.114   2.623  25.694  0.00  0.00    +0.252 C 
ATOM      2  O   UNL     1      -6.012   2.132  25.039  0.00  0.00    -0.471 OA
ENDBRANCH   3   2
ENDBRANCH   9   6
ENDBRANCH  12  11
TORSDOF 6
ENDMDL
