REMARK  Name = 
REMARK  1 active torsions:
REMARK  status: ('A' for Active; 'I' for Inactive)
REMARK    1  A    between atoms: C_14  and  C_15
REMARK                            x       y       z     vdW  Elec       q    Type
REMARK                         _______ _______ _______ _____ _____    ______ ____
ROOT
ATOM      1  O   UNL     1       0.679  -3.514   0.000  0.00  0.00    -0.267 OA
ATOM      2  C   UNL     1       1.157  -2.841   0.000  0.00  0.00    +0.261 A 
ATOM      3  N   UNL     1       0.813  -2.091   0.000  0.00  0.00    -0.299 N 
ATOM      4  C   UNL     1       1.629  -1.912   0.000  0.00  0.00    +0.110 C 
ATOM      5  C   UNL     1       1.582  -0.925   0.000  0.00  0.00    +0.041 C 
ATOM      6  C   UNL     1       0.622  -0.936   0.000  0.00  0.00    +0.091 C 
ATOM      7  N   UNL     1       0.117  -1.360   0.000  0.00  0.00    -0.218 NA
ATOM      8  C   UNL     1       0.244  -0.558   0.000  0.00  0.00    +0.094 C 
ATOM      9  C   UNL     1       1.163  -0.557   0.000  0.00  0.00    +0.056 C 
ATOM     10  C   UNL     1       1.713  -0.121   0.000  0.00  0.00    +0.011 C 
ATOM     11  C   UNL     1       1.290  -1.419   0.000  0.00  0.00    +0.041 A 
ATOM     12  C   UNL     1       2.111  -1.496   0.000  0.00  0.00    +0.013 A 
ATOM     13  C   UNL     1       2.455  -2.245   0.000  0.00  0.00    +0.006 A 
ATOM     14  C   UNL     1       1.978  -2.918   0.000  0.00  0.00    +0.062 A 
ENDROOT
BRANCH  14  15
ATOM     15  C   UNL     1       2.322  -3.668   0.000  0.00  0.00    +0.034 A 
ATOM     16  C   UNL     1       3.131  -3.830   0.000  0.00  0.00    +0.007 A 
ATOM     17  C   UNL     1       3.227  -4.650   0.000  0.00  0.00    +0.007 A 
ATOM     18  C   UNL     1       2.477  -4.994   0.000  0.00  0.00    +0.035 A 
ATOM     19  S   UNL     1       1.918  -4.387   0.000  0.00  0.00    -0.086 S 
ENDBRANCH  14  15
TORSDOF 1
