MODEL 1
REMARK VINA RESULT:      -9.1      0.000      0.000
REMARK  Name = 
REMARK  8 active torsions:
REMARK  status: ('A' for Active; 'I' for Inactive)
REMARK    1  A    between atoms: O_2  and  C_3
REMARK    2  A    between atoms: C_3  and  C_4
REMARK    3  A    between atoms: C_4  and  O_5
REMARK    4  A    between atoms: O_5  and  C_6
REMARK    5  A    between atoms: C_8  and  C_12
REMARK    6  A    between atoms: C_15  and  C_17
REMARK    7  A    between atoms: N_21  and  C_22
REMARK    8  A    between atoms: C_22  and  C_23
REMARK                            x       y       z     vdW  Elec       q    Type
REMARK                         _______ _______ _______ _____ _____    ______ ____
ROOT
ATOM     12  C   UNL     1      -3.959   1.182  24.408  0.00  0.00    +0.221 A 
ATOM     13  N   UNL     1      -3.725   1.082  23.624  0.00  0.00    -0.054 NA
ATOM     14  O   UNL     1      -3.534   0.286  23.514  0.00  0.00    -0.336 OA
ATOM     15  C   UNL     1      -3.650  -0.104  24.231  0.00  0.00    +0.251 A 
ATOM     16  N   UNL     1      -3.913   0.450  24.784  0.00  0.00    -0.188 NA
ENDROOT
BRANCH  12   8
ATOM      6  C   UNL     1      -3.873   3.111  25.427  0.00  0.00    +0.142 A 
ATOM      7  C   UNL     1      -3.635   2.401  25.079  0.00  0.00    +0.059 A 
ATOM      8  C   UNL     1      -4.197   1.892  24.756  0.00  0.00    +0.123 A 
ATOM      9  N   UNL     1      -4.996   2.092  24.780  0.00  0.00    -0.240 NA
ATOM     10  C   UNL     1      -5.235   2.801  25.128  0.00  0.00    +0.102 A 
ATOM     11  C   UNL     1      -4.672   3.311  25.451  0.00  0.00    +0.058 A 
BRANCH   6   5
ATOM      5  O   UNL     1      -3.310   3.621  25.751  0.00  0.00    -0.473 OA
BRANCH   5   4
ATOM      4  C   UNL     1      -2.810   4.051  25.254  0.00  0.00    +0.237 C 
BRANCH   4   3
ATOM      3  C   UNL     1      -2.143   4.424  25.565  0.00  0.00    +0.189 C 
BRANCH   3   2
ATOM      1  C   UNL     1      -0.961   5.016  25.024  0.00  0.00    +0.174 C 
ATOM      2  O   UNL     1      -1.778   5.031  25.143  0.00  0.00    -0.347 OA
ENDBRANCH   3   2
ENDBRANCH   4   3
ENDBRANCH   5   4
ENDBRANCH   6   5
ENDBRANCH  12   8
BRANCH  15  17
ATOM     17  C   UNL     1      -3.526  -0.908  24.372  0.00  0.00    +0.138 C 
ATOM     18  C   UNL     1      -4.095  -1.502  24.318  0.00  0.00    +0.027 C 
ATOM     19  C   UNL     1      -3.733  -2.220  24.504  0.00  0.00    +0.019 C 
ATOM     20  C   UNL     1      -2.940  -2.068  24.674  0.00  0.00    +0.073 C 
ATOM     21  N   UNL     1      -2.813  -1.258  24.593  0.00  0.00    -0.266 NA
BRANCH  21  22
ATOM     22  C   UNL     1      -2.096  -0.865  24.711  0.00  0.00    +0.072 C 
BRANCH  22  23
ATOM     23  C   UNL     1      -1.439  -1.281  24.984  0.00  0.00    +0.016 C 
ATOM     24  C   UNL     1      -1.238  -1.258  25.783  0.00  0.00    +0.001 C 
ATOM     25  C   UNL     1      -0.981  -1.720  24.456  0.00  0.00    +0.001 C 
ENDBRANCH  22  23
ENDBRANCH  21  22
ENDBRANCH  15  17
TORSDOF 8
ENDMDL
MODEL 2
REMARK VINA RESULT:      -9.0      1.763      4.584
REMARK  Name = 
REMARK  8 active torsions:
REMARK  status: ('A' for Active; 'I' for Inactive)
REMARK    1  A    between atoms: O_2  and  C_3
REMARK    2  A    between atoms: C_3  and  C_4
REMARK    3  A    between atoms: C_4  and  O_5
REMARK    4  A    between atoms: O_5  and  C_6
REMARK    5  A    between atoms: C_8  and  C_12
REMARK    6  A    between atoms: C_15  and  C_17
REMARK    7  A    between atoms: N_21  and  C_22
REMARK    8  A    between atoms: C_22  and  C_23
REMARK                            x       y       z     vdW  Elec       q    Type
REMARK                         _______ _______ _______ _____ _____    ______ ____
ROOT
ATOM     12  C   UNL     1      -3.759   3.272  25.589  0.00  0.00    +0.221 A 
ATOM     13  N   UNL     1      -3.701   3.699  26.292  0.00  0.00    -0.054 NA
ATOM     14  O   UNL     1      -2.980   4.100  26.287  0.00  0.00    -0.336 OA
ATOM     15  C   UNL     1      -2.593   3.921  25.582  0.00  0.00    +0.251 A 
ATOM     16  N   UNL     1      -3.075   3.409  25.149  0.00  0.00    -0.188 NA
ENDROOT
BRANCH  12   8
ATOM      6  C   UNL     1      -4.882   1.586  24.775  0.00  0.00    +0.142 A 
ATOM      7  C   UNL     1      -4.249   2.066  25.000  0.00  0.00    +0.059 A 
ATOM      8  C   UNL     1      -4.392   2.792  25.364  0.00  0.00    +0.123 A 
ATOM      9  N   UNL     1      -5.166   3.038  25.503  0.00  0.00    -0.240 NA
ATOM     10  C   UNL     1      -5.799   2.559  25.279  0.00  0.00    +0.102 A 
ATOM     11  C   UNL     1      -5.656   1.832  24.914  0.00  0.00    +0.058 A 
BRANCH   6   5
ATOM      5  O   UNL     1      -4.739   0.860  24.410  0.00  0.00    -0.473 OA
BRANCH   5   4
ATOM      4  C   UNL     1      -4.436   0.230  24.851  0.00  0.00    +0.237 C 
BRANCH   4   3
ATOM      3  C   UNL     1      -4.263  -0.486  24.480  0.00  0.00    +0.189 C 
BRANCH   3   2
ATOM      1  C   UNL     1      -3.735  -1.810  24.574  0.00  0.00    +0.174 C 
ATOM      2  O   UNL     1      -4.072  -1.148  24.933  0.00  0.00    -0.347 OA
ENDBRANCH   3   2
ENDBRANCH   4   3
ENDBRANCH   5   4
ENDBRANCH   6   5
ENDBRANCH  12   8
BRANCH  15  17
ATOM     17  C   UNL     1      -1.854   4.203  25.348  0.00  0.00    +0.138 C 
ATOM     18  C   UNL     1      -1.697   4.953  25.040  0.00  0.00    +0.027 C 
ATOM     19  C   UNL     1      -0.888   5.000  24.882  0.00  0.00    +0.019 C 
ATOM     20  C   UNL     1      -0.546   4.278  25.093  0.00  0.00    +0.073 C 
ATOM     21  N   UNL     1      -1.142   3.788  25.380  0.00  0.00    -0.266 NA
BRANCH  21  22
ATOM     22  C   UNL     1      -1.045   3.014  25.652  0.00  0.00    +0.072 C 
BRANCH  22  23
ATOM     23  C   UNL     1      -0.295   2.672  25.659  0.00  0.00    +0.016 C 
ATOM     24  C   UNL     1       0.007   2.325  24.975  0.00  0.00    +0.001 C 
ATOM     25  C   UNL     1       0.154   2.676  26.352  0.00  0.00    +0.001 C 
ENDBRANCH  22  23
ENDBRANCH  21  22
ENDBRANCH  15  17
TORSDOF 8
ENDMDL
MODEL 3
REMARK VINA RESULT:      -8.9      2.103      5.581
REMARK  Name = 
REMARK  8 active torsions:
REMARK  status: ('A' for Active; 'I' for Inactive)
REMARK    1  A    between atoms: O_2  and  C_3
REMARK    2  A    between atoms: C_3  and  C_4
REMARK    3  A    between atoms: C_4  and  O_5
REMARK    4  A    between atoms: O_5  and  C_6
REMARK    5  A    between atoms: C_8  and  C_12
REMARK    6  A    between atoms: C_15  and  C_17
REMARK    7  A    between atoms: N_21  and  C_22
REMARK    8  A    between atoms: C_22  and  C_23
REMARK                            x       y       z     vdW  Elec       q    Type
REMARK                         _______ _______ _______ _____ _____    ______ ____
ROOT
ATOM     12  C   UNL     1      -0.656   1.544  25.160  0.00  0.00    +0.221 A 
ATOM     13  N   UNL     1      -0.527   1.704  25.959  0.00  0.00    -0.054 NA
ATOM     14  O   UNL     1      -0.756   2.483  26.103  0.00  0.00    -0.336 OA
ATOM     15  C   UNL     1      -1.026   2.804  25.394  0.00  0.00    +0.251 A 
ATOM     16  N   UNL     1      -0.964   2.224  24.810  0.00  0.00    -0.188 NA
ENDROOT
BRANCH  12   8
ATOM      6  C   UNL     1      -0.732  -0.575  24.641  0.00  0.00    +0.142 A 
ATOM      7  C   UNL     1      -0.885   0.140  25.023  0.00  0.00    +0.059 A 
ATOM      8  C   UNL     1      -0.503   0.828  24.778  0.00  0.00    +0.123 A 
ATOM      9  N   UNL     1       0.032   0.802  24.151  0.00  0.00    -0.240 NA
ATOM     10  C   UNL     1       0.186   0.087  23.769  0.00  0.00    +0.102 A 
ATOM     11  C   UNL     1      -0.197  -0.602  24.014  0.00  0.00    +0.058 A 
BRANCH   6   5
ATOM      5  O   UNL     1      -1.115  -1.264  24.886  0.00  0.00    -0.473 OA
BRANCH   5   4
ATOM      4  C   UNL     1      -1.770  -1.542  24.468  0.00  0.00    +0.237 C 
BRANCH   4   3
ATOM      3  C   UNL     1      -2.227  -2.154  24.779  0.00  0.00    +0.189 C 
BRANCH   3   2
ATOM      1  C   UNL     1      -3.504  -2.787  24.667  0.00  0.00    +0.174 C 
ATOM      2  O   UNL     1      -2.810  -2.509  24.316  0.00  0.00    -0.347 OA
ENDBRANCH   3   2
ENDBRANCH   4   3
ENDBRANCH   5   4
ENDBRANCH   6   5
ENDBRANCH  12   8
BRANCH  15  17
ATOM     17  C   UNL     1      -1.309   3.572  25.285  0.00  0.00    +0.138 C 
ATOM     18  C   UNL     1      -0.847   4.247  25.176  0.00  0.00    +0.027 C 
ATOM     19  C   UNL     1      -1.354   4.892  25.090  0.00  0.00    +0.019 C 
ATOM     20  C   UNL     1      -2.130   4.615  25.144  0.00  0.00    +0.073 C 
ATOM     21  N   UNL     1      -2.101   3.800  25.265  0.00  0.00    -0.266 NA
BRANCH  21  22
ATOM     22  C   UNL     1      -2.752   3.299  25.351  0.00  0.00    +0.072 C 
BRANCH  22  23
ATOM     23  C   UNL     1      -3.516   3.603  25.294  0.00  0.00    +0.016 C 
ATOM     24  C   UNL     1      -3.903   3.875  25.969  0.00  0.00    +0.001 C 
ATOM     25  C   UNL     1      -3.894   3.634  24.561  0.00  0.00    +0.001 C 
ENDBRANCH  22  23
ENDBRANCH  21  22
ENDBRANCH  15  17
TORSDOF 8
ENDMDL
MODEL 4
REMARK VINA RESULT:      -8.6      1.509      2.701
REMARK  Name = 
REMARK  8 active torsions:
REMARK  status: ('A' for Active; 'I' for Inactive)
REMARK    1  A    between atoms: O_2  and  C_3
REMARK    2  A    between atoms: C_3  and  C_4
REMARK    3  A    between atoms: C_4  and  O_5
REMARK    4  A    between atoms: O_5  and  C_6
REMARK    5  A    between atoms: C_8  and  C_12
REMARK    6  A    between atoms: C_15  and  C_17
REMARK    7  A    between atoms: N_21  and  C_22
REMARK    8  A    between atoms: C_22  and  C_23
REMARK                            x       y       z     vdW  Elec       q    Type
REMARK                         _______ _______ _______ _____ _____    ______ ____
ROOT
ATOM     12  C   UNL     1      -1.536   1.705  24.600  0.00  0.00    +0.221 A 
ATOM     13  N   UNL     1      -1.394   1.506  23.812  0.00  0.00    -0.054 NA
ATOM     14  O   UNL     1      -1.267   0.692  23.773  0.00  0.00    -0.336 OA
ATOM     15  C   UNL     1      -1.331   0.388  24.536  0.00  0.00    +0.251 A 
ATOM     16  N   UNL     1      -1.497   1.014  25.048  0.00  0.00    -0.188 NA
ENDROOT
BRANCH  12   8
ATOM      6  C   UNL     1      -2.611   3.525  25.145  0.00  0.00    +0.142 A 
ATOM      7  C   UNL     1      -2.456   2.767  24.856  0.00  0.00    +0.059 A 
ATOM      8  C   UNL     1      -1.691   2.462  24.889  0.00  0.00    +0.123 A 
ATOM      9  N   UNL     1      -1.081   2.913  25.211  0.00  0.00    -0.240 NA
ATOM     10  C   UNL     1      -1.235   3.670  25.500  0.00  0.00    +0.102 A 
ATOM     11  C   UNL     1      -2.001   3.976  25.467  0.00  0.00    +0.058 A 
BRANCH   6   5
ATOM      5  O   UNL     1      -3.377   3.830  25.112  0.00  0.00    -0.473 OA
BRANCH   5   4
ATOM      4  C   UNL     1      -3.971   3.504  25.582  0.00  0.00    +0.237 C 
BRANCH   4   3
ATOM      3  C   UNL     1      -4.762   3.685  25.432  0.00  0.00    +0.189 C 
BRANCH   3   2
ATOM      1  C   UNL     1      -5.918   2.917  25.772  0.00  0.00    +0.174 C 
ATOM      2  O   UNL     1      -5.343   3.473  25.977  0.00  0.00    -0.347 OA
ENDBRANCH   3   2
ENDBRANCH   4   3
ENDBRANCH   5   4
ENDBRANCH   6   5
ENDBRANCH  12   8
BRANCH  15  17
ATOM     17  C   UNL     1      -1.243  -0.404  24.752  0.00  0.00    +0.138 C 
ATOM     18  C   UNL     1      -0.533  -0.779  24.944  0.00  0.00    +0.027 C 
ATOM     19  C   UNL     1      -0.700  -1.566  25.125  0.00  0.00    +0.019 C 
ATOM     20  C   UNL     1      -1.515  -1.678  25.045  0.00  0.00    +0.073 C 
ATOM     21  N   UNL     1      -1.849  -0.961  24.815  0.00  0.00    -0.266 NA
BRANCH  21  22
ATOM     22  C   UNL     1      -2.650  -0.822  24.673  0.00  0.00    +0.072 C 
BRANCH  22  23
ATOM     23  C   UNL     1      -3.204  -1.413  24.829  0.00  0.00    +0.016 C 
ATOM     24  C   UNL     1      -3.523  -1.489  25.585  0.00  0.00    +0.001 C 
ATOM     25  C   UNL     1      -3.439  -1.927  24.228  0.00  0.00    +0.001 C 
ENDBRANCH  22  23
ENDBRANCH  21  22
ENDBRANCH  15  17
TORSDOF 8
ENDMDL
MODEL 5
REMARK VINA RESULT:      -8.5      1.681      4.506
REMARK  Name = 
REMARK  8 active torsions:
REMARK  status: ('A' for Active; 'I' for Inactive)
REMARK    1  A    between atoms: O_2  and  C_3
REMARK    2  A    between atoms: C_3  and  C_4
REMARK    3  A    between atoms: C_4  and  O_5
REMARK    4  A    between atoms: O_5  and  C_6
REMARK    5  A    between atoms: C_8  and  C_12
REMARK    6  A    between atoms: C_15  and  C_17
REMARK    7  A    between atoms: N_21  and  C_22
REMARK    8  A    between atoms: C_22  and  C_23
REMARK                            x       y       z     vdW  Elec       q    Type
REMARK                         _______ _______ _______ _____ _____    ______ ____
ROOT
ATOM     12  C   UNL     1      -3.062   0.122  24.461  0.00  0.00    +0.221 A 
ATOM     13  N   UNL     1      -3.433   0.253  23.736  0.00  0.00    -0.054 NA
ATOM     14  O   UNL     1      -4.035   0.805  23.854  0.00  0.00    -0.336 OA
ATOM     15  C   UNL     1      -4.035   1.015  24.651  0.00  0.00    +0.251 A 
ATOM     16  N   UNL     1      -3.434   0.592  25.027  0.00  0.00    -0.188 NA
ENDROOT
BRANCH  12   8
ATOM      6  C   UNL     1      -1.025  -0.654  24.583  0.00  0.00    +0.142 A 
ATOM      7  C   UNL     1      -1.658  -0.141  24.448  0.00  0.00    +0.059 A 
ATOM      8  C   UNL     1      -2.429  -0.391  24.597  0.00  0.00    +0.123 A 
ATOM      9  N   UNL     1      -2.569  -1.152  24.880  0.00  0.00    -0.240 NA
ATOM     10  C   UNL     1      -1.937  -1.664  25.016  0.00  0.00    +0.102 A 
ATOM     11  C   UNL     1      -1.164  -1.415  24.867  0.00  0.00    +0.058 A 
BRANCH   6   5
ATOM      5  O   UNL     1      -0.253  -0.404  24.434  0.00  0.00    -0.473 OA
BRANCH   5   4
ATOM      4  C   UNL     1       0.062  -0.470  23.674  0.00  0.00    +0.237 C 
BRANCH   4   3
ATOM      3  C   UNL     1       0.804  -0.150  23.506  0.00  0.00    +0.189 C 
BRANCH   3   2
ATOM      1  C   UNL     1       1.885   0.042  22.592  0.00  0.00    +0.174 C 
ATOM      2  O   UNL     1       1.111  -0.202  22.743  0.00  0.00    -0.347 OA
ENDBRANCH   3   2
ENDBRANCH   4   3
ENDBRANCH   5   4
ENDBRANCH   6   5
ENDBRANCH  12   8
BRANCH  15  17
ATOM     17  C   UNL     1      -4.547   1.553  25.011  0.00  0.00    +0.138 C 
ATOM     18  C   UNL     1      -5.296   1.382  25.313  0.00  0.00    +0.027 C 
ATOM     19  C   UNL     1      -5.612   2.079  25.621  0.00  0.00    +0.019 C 
ATOM     20  C   UNL     1      -5.058   2.680  25.510  0.00  0.00    +0.073 C 
ATOM     21  N   UNL     1      -4.401   2.355  25.133  0.00  0.00    -0.266 NA
BRANCH  21  22
ATOM     22  C   UNL     1      -3.716   2.762  24.916  0.00  0.00    +0.072 C 
BRANCH  22  23
ATOM     23  C   UNL     1      -3.660   3.574  25.049  0.00  0.00    +0.016 C 
ATOM     24  C   UNL     1      -3.883   4.105  24.459  0.00  0.00    +0.001 C 
ATOM     25  C   UNL     1      -3.379   3.855  25.772  0.00  0.00    +0.001 C 
ENDBRANCH  22  23
ENDBRANCH  21  22
ENDBRANCH  15  17
TORSDOF 8
ENDMDL
MODEL 6
REMARK VINA RESULT:      -8.4      1.459      4.554
REMARK  Name = 
REMARK  8 active torsions:
REMARK  status: ('A' for Active; 'I' for Inactive)
REMARK    1  A    between atoms: O_2  and  C_3
REMARK    2  A    between atoms: C_3  and  C_4
REMARK    3  A    between atoms: C_4  and  O_5
REMARK    4  A    between atoms: O_5  and  C_6
REMARK    5  A    between atoms: C_8  and  C_12
REMARK    6  A    between atoms: C_15  and  C_17
REMARK    7  A    between atoms: N_21  and  C_22
REMARK    8  A    between atoms: C_22  and  C_23
REMARK                            x       y       z     vdW  Elec       q    Type
REMARK                         _______ _______ _______ _____ _____    ______ ____
ROOT
ATOM     12  C   UNL     1      -4.151   0.511  24.745  0.00  0.00    +0.221 A 
ATOM     13  N   UNL     1      -4.729   0.786  25.265  0.00  0.00    -0.054 NA
ATOM     14  O   UNL     1      -4.764   1.607  25.196  0.00  0.00    -0.336 OA
ATOM     15  C   UNL     1      -4.207   1.839  24.634  0.00  0.00    +0.251 A 
ATOM     16  N   UNL     1      -3.828   1.161  24.354  0.00  0.00    -0.188 NA
ENDROOT
BRANCH  12   8
ATOM      6  C   UNL     1      -2.984  -1.334  24.793  0.00  0.00    +0.142 A 
ATOM      7  C   UNL     1      -3.201  -0.545  24.904  0.00  0.00    +0.059 A 
ATOM      8  C   UNL     1      -3.934  -0.278  24.635  0.00  0.00    +0.123 A 
ATOM      9  N   UNL     1      -4.449  -0.798  24.256  0.00  0.00    -0.240 NA
ATOM     10  C   UNL     1      -4.232  -1.586  24.145  0.00  0.00    +0.102 A 
ATOM     11  C   UNL     1      -3.499  -1.854  24.414  0.00  0.00    +0.058 A 
BRANCH   6   5
ATOM      5  O   UNL     1      -2.251  -1.601  25.063  0.00  0.00    -0.473 OA
BRANCH   5   4
ATOM      4  C   UNL     1      -1.582  -1.516  24.588  0.00  0.00    +0.237 C 
BRANCH   4   3
ATOM      3  C   UNL     1      -0.841  -1.411  24.935  0.00  0.00    +0.189 C 
BRANCH   3   2
ATOM      1  C   UNL     1       0.191  -0.734  24.215  0.00  0.00    +0.174 C 
ATOM      2  O   UNL     1      -0.161  -1.437  24.469  0.00  0.00    -0.347 OA
ENDBRANCH   3   2
ENDBRANCH   4   3
ENDBRANCH   5   4
ENDBRANCH   6   5
ENDBRANCH  12   8
BRANCH  15  17
ATOM     17  C   UNL     1      -4.055   2.613  24.392  0.00  0.00    +0.138 C 
ATOM     18  C   UNL     1      -4.371   2.983  23.725  0.00  0.00    +0.027 C 
ATOM     19  C   UNL     1      -4.073   3.752  23.694  0.00  0.00    +0.019 C 
ATOM     20  C   UNL     1      -3.572   3.856  24.342  0.00  0.00    +0.073 C 
ATOM     21  N   UNL     1      -3.561   3.153  24.772  0.00  0.00    -0.266 NA
BRANCH  21  22
ATOM     22  C   UNL     1      -3.132   3.014  25.463  0.00  0.00    +0.072 C 
BRANCH  22  23
ATOM     23  C   UNL     1      -2.645   3.604  25.772  0.00  0.00    +0.016 C 
ATOM     24  C   UNL     1      -2.962   4.182  26.267  0.00  0.00    +0.001 C 
ATOM     25  C   UNL     1      -1.841   3.615  25.585  0.00  0.00    +0.001 C 
ENDBRANCH  22  23
ENDBRANCH  21  22
ENDBRANCH  15  17
TORSDOF 8
ENDMDL
MODEL 7
REMARK VINA RESULT:      -8.2      2.186      3.932
REMARK  Name = 
REMARK  8 active torsions:
REMARK  status: ('A' for Active; 'I' for Inactive)
REMARK    1  A    between atoms: O_2  and  C_3
REMARK    2  A    between atoms: C_3  and  C_4
REMARK    3  A    between atoms: C_4  and  O_5
REMARK    4  A    between atoms: O_5  and  C_6
REMARK    5  A    between atoms: C_8  and  C_12
REMARK    6  A    between atoms: C_15  and  C_17
REMARK    7  A    between atoms: N_21  and  C_22
REMARK    8  A    between atoms: C_22  and  C_23
REMARK                            x       y       z     vdW  Elec       q    Type
REMARK                         _______ _______ _______ _____ _____    ______ ____
ROOT
ATOM     12  C   UNL     1      -2.156  -0.238  24.759  0.00  0.00    +0.221 A 
ATOM     13  N   UNL     1      -1.635  -0.674  25.226  0.00  0.00    -0.054 NA
ATOM     14  O   UNL     1      -0.891  -0.319  25.179  0.00  0.00    -0.336 OA
ATOM     15  C   UNL     1      -0.954   0.336  24.682  0.00  0.00    +0.251 A 
ATOM     16  N   UNL     1      -1.736   0.386  24.422  0.00  0.00    -0.188 NA
ENDROOT
BRANCH  12   8
ATOM      6  C   UNL     1      -4.329  -0.064  24.869  0.00  0.00    +0.142 A 
ATOM      7  C   UNL     1      -3.527   0.096  24.980  0.00  0.00    +0.059 A 
ATOM      8  C   UNL     1      -2.958  -0.399  24.648  0.00  0.00    +0.123 A 
ATOM      9  N   UNL     1      -3.189  -1.054  24.204  0.00  0.00    -0.240 NA
ATOM     10  C   UNL     1      -3.991  -1.215  24.093  0.00  0.00    +0.102 A 
ATOM     11  C   UNL     1      -4.561  -0.719  24.425  0.00  0.00    +0.058 A 
BRANCH   6   5
ATOM      5  O   UNL     1      -4.899   0.431  25.201  0.00  0.00    -0.473 OA
BRANCH   5   4
ATOM      4  C   UNL     1      -5.000   1.197  24.909  0.00  0.00    +0.237 C 
BRANCH   4   3
ATOM      3  C   UNL     1      -5.469   1.736  25.321  0.00  0.00    +0.189 C 
BRANCH   3   2
ATOM      1  C   UNL     1      -5.636   3.130  25.587  0.00  0.00    +0.174 C 
ATOM      2  O   UNL     1      -5.540   2.511  25.048  0.00  0.00    -0.347 OA
ENDBRANCH   3   2
ENDBRANCH   4   3
ENDBRANCH   5   4
ENDBRANCH   6   5
ENDBRANCH  12   8
BRANCH  15  17
ATOM     17  C   UNL     1      -0.342   0.852  24.479  0.00  0.00    +0.138 C 
ATOM     18  C   UNL     1       0.183   0.757  23.850  0.00  0.00    +0.027 C 
ATOM     19  C   UNL     1       0.702   1.398  23.851  0.00  0.00    +0.019 C 
ATOM     20  C   UNL     1       0.496   1.890  24.482  0.00  0.00    +0.073 C 
ATOM     21  N   UNL     1      -0.148   1.552  24.869  0.00  0.00    -0.266 NA
BRANCH  21  22
ATOM     22  C   UNL     1      -0.532   1.861  25.531  0.00  0.00    +0.072 C 
BRANCH  22  23
ATOM     23  C   UNL     1      -0.292   2.584  25.847  0.00  0.00    +0.016 C 
ATOM     24  C   UNL     1      -0.605   3.287  25.553  0.00  0.00    +0.001 C 
ATOM     25  C   UNL     1       0.262   2.603  26.458  0.00  0.00    +0.001 C 
ENDBRANCH  22  23
ENDBRANCH  21  22
ENDBRANCH  15  17
TORSDOF 8
ENDMDL
MODEL 8
REMARK VINA RESULT:      -8.1      1.999      4.789
REMARK  Name = 
REMARK  8 active torsions:
REMARK  status: ('A' for Active; 'I' for Inactive)
REMARK    1  A    between atoms: O_2  and  C_3
REMARK    2  A    between atoms: C_3  and  C_4
REMARK    3  A    between atoms: C_4  and  O_5
REMARK    4  A    between atoms: O_5  and  C_6
REMARK    5  A    between atoms: C_8  and  C_12
REMARK    6  A    between atoms: C_15  and  C_17
REMARK    7  A    between atoms: N_21  and  C_22
REMARK    8  A    between atoms: C_22  and  C_23
REMARK                            x       y       z     vdW  Elec       q    Type
REMARK                         _______ _______ _______ _____ _____    ______ ____
ROOT
ATOM     12  C   UNL     1      -2.174   2.382  24.089  0.00  0.00    +0.221 A 
ATOM     13  N   UNL     1      -2.590   2.535  23.393  0.00  0.00    -0.054 NA
ATOM     14  O   UNL     1      -3.322   2.855  23.599  0.00  0.00    -0.336 OA
ATOM     15  C   UNL     1      -3.358   2.901  24.421  0.00  0.00    +0.251 A 
ATOM     16  N   UNL     1      -2.648   2.608  24.725  0.00  0.00    -0.188 NA
ENDROOT
BRANCH  12   8
ATOM      6  C   UNL     1      -0.549   0.925  24.095  0.00  0.00    +0.142 A 
ATOM      7  C   UNL     1      -1.307   1.247  24.044  0.00  0.00    +0.059 A 
ATOM      8  C   UNL     1      -1.416   2.059  24.140  0.00  0.00    +0.123 A 
ATOM      9  N   UNL     1      -0.769   2.548  24.287  0.00  0.00    -0.240 NA
ATOM     10  C   UNL     1      -0.012   2.226  24.338  0.00  0.00    +0.102 A 
ATOM     11  C   UNL     1       0.098   1.414  24.242  0.00  0.00    +0.058 A 
BRANCH   6   5
ATOM      5  O   UNL     1      -0.439   0.113  23.999  0.00  0.00    -0.473 OA
BRANCH   5   4
ATOM      4  C   UNL     1      -0.674  -0.408  24.595  0.00  0.00    +0.237 C 
BRANCH   4   3
ATOM      3  C   UNL     1      -0.687  -1.220  24.450  0.00  0.00    +0.189 C 
BRANCH   3   2
ATOM      1  C   UNL     1      -1.505  -2.363  24.711  0.00  0.00    +0.174 C 
ATOM      2  O   UNL     1      -1.055  -1.727  24.986  0.00  0.00    -0.347 OA
ENDBRANCH   3   2
ENDBRANCH   4   3
ENDBRANCH   5   4
ENDBRANCH   6   5
ENDBRANCH  12   8
BRANCH  15  17
ATOM     17  C   UNL     1      -3.992   3.188  24.865  0.00  0.00    +0.138 C 
ATOM     18  C   UNL     1      -4.034   3.928  25.227  0.00  0.00    +0.027 C 
ATOM     19  C   UNL     1      -4.763   3.985  25.610  0.00  0.00    +0.019 C 
ATOM     20  C   UNL     1      -5.171   3.279  25.483  0.00  0.00    +0.073 C 
ATOM     21  N   UNL     1      -4.695   2.787  25.024  0.00  0.00    -0.266 NA
BRANCH  21  22
ATOM     22  C   UNL     1      -4.888   2.027  24.767  0.00  0.00    +0.072 C 
BRANCH  22  23
ATOM     23  C   UNL     1      -5.562   1.652  25.059  0.00  0.00    +0.016 C 
ATOM     24  C   UNL     1      -6.302   1.825  24.739  0.00  0.00    +0.001 C 
ATOM     25  C   UNL     1      -5.496   1.104  25.672  0.00  0.00    +0.001 C 
ENDBRANCH  22  23
ENDBRANCH  21  22
ENDBRANCH  15  17
TORSDOF 8
ENDMDL
