MODEL 1
REMARK VINA RESULT:      -9.7      0.000      0.000
REMARK  Name = 
REMARK  6 active torsions:
REMARK  status: ('A' for Active; 'I' for Inactive)
REMARK    1  A    between atoms: C_2  and  C_3
REMARK    2  A    between atoms: C_10  and  C_11
REMARK    3  A    between atoms: C_11  and  N_12
REMARK    4  A    between atoms: N_15  and  C_16
REMARK    5  A    between atoms: C_19  and  O_20
REMARK    6  A    between atoms: O_20  and  C_21
REMARK                            x       y       z     vdW  Elec       q    Type
REMARK                         _______ _______ _______ _____ _____    ______ ____
ROOT
ATOM     12  N   UNL     1       1.106   0.551  23.455  0.00  0.00    -0.185 NA
ATOM     13  C   UNL     1       0.388   0.247  23.723  0.00  0.00    +0.344 C 
ATOM     14  O   UNL     1       0.216  -0.554  23.622  0.00  0.00    -0.249 OA
ATOM     15  N   UNL     1      -0.159   0.742  24.092  0.00  0.00    -0.161 NA
ENDROOT
BRANCH  15  16
ATOM     16  C   UNL     1      -0.877   0.437  24.360  0.00  0.00    +0.075 A 
ATOM     17  C   UNL     1      -0.899  -0.031  25.039  0.00  0.00    +0.020 A 
ATOM     18  C   UNL     1      -1.618  -0.336  25.307  0.00  0.00    +0.039 A 
ATOM     19  C   UNL     1      -2.314  -0.173  24.895  0.00  0.00    +0.145 A 
ATOM     27  C   UNL     1      -2.292   0.295  24.217  0.00  0.00    +0.039 A 
ATOM     28  C   UNL     1      -1.574   0.600  23.949  0.00  0.00    +0.020 A 
BRANCH  19  20
ATOM     20  O   UNL     1      -3.032  -0.479  25.164  0.00  0.00    -0.453 OA
BRANCH  20  21
ATOM     21  C   UNL     1      -3.339  -1.167  24.828  0.00  0.00    +0.145 A 
ATOM     22  C   UNL     1      -3.089  -1.905  25.100  0.00  0.00    +0.037 A 
ATOM     23  C   UNL     1      -3.396  -2.593  24.764  0.00  0.00    +0.003 A 
ATOM     24  C   UNL     1      -3.954  -2.543  24.158  0.00  0.00    +0.000 A 
ATOM     25  C   UNL     1      -4.203  -1.805  23.888  0.00  0.00    +0.003 A 
ATOM     26  C   UNL     1      -3.897  -1.117  24.222  0.00  0.00    +0.037 A 
ENDBRANCH  20  21
ENDBRANCH  19  20
ENDBRANCH  15  16
BRANCH  12  11
ATOM     11  C   UNL     1       1.653   0.056  23.086  0.00  0.00    +0.133 C 
BRANCH  11  10
ATOM      3  C   UNL     1       4.022   0.054  23.102  0.00  0.00    +0.016 C 
ATOM      4  C   UNL     1       3.658  -0.552  23.427  0.00  0.00    +0.072 C 
ATOM      5  N   UNL     1       3.298   0.101  23.072  0.00  0.00    -0.272 NA
ATOM      6  C   UNL     1       4.063   0.732  22.735  0.00  0.00    +0.072 C 
ATOM      7  C   UNL     1       4.258   1.281  22.439  0.00  0.00    +0.017 C 
ATOM      8  C   UNL     1       3.662   0.691  22.755  0.00  0.00    +0.004 C 
ATOM      9  C   UNL     1       2.816   0.896  22.638  0.00  0.00    +0.018 C 
ATOM     10  C   UNL     1       2.421   0.321  22.947  0.00  0.00    +0.079 C 
BRANCH   3   2
ATOM      1  C   UNL     1       5.251  -0.463  23.618  0.00  0.00    +0.000 C 
ATOM      2  C   UNL     1       4.848   0.047  23.110  0.00  0.00    +0.001 C 
ENDBRANCH   3   2
ENDBRANCH  11  10
ENDBRANCH  12  11
TORSDOF 6
ENDMDL
MODEL 2
REMARK VINA RESULT:      -9.3      3.260      6.302
REMARK  Name = 
REMARK  6 active torsions:
REMARK  status: ('A' for Active; 'I' for Inactive)
REMARK    1  A    between atoms: C_2  and  C_3
REMARK    2  A    between atoms: C_10  and  C_11
REMARK    3  A    between atoms: C_11  and  N_12
REMARK    4  A    between atoms: N_15  and  C_16
REMARK    5  A    between atoms: C_19  and  O_20
REMARK    6  A    between atoms: O_20  and  C_21
REMARK                            x       y       z     vdW  Elec       q    Type
REMARK                         _______ _______ _______ _____ _____    ______ ____
ROOT
ATOM     12  N   UNL     1      -1.653  -0.471  25.373  0.00  0.00    -0.185 NA
ATOM     13  C   UNL     1      -1.496   0.339  25.380  0.00  0.00    +0.344 C 
ATOM     14  O   UNL     1      -2.106   0.876  25.523  0.00  0.00    -0.249 OA
ATOM     15  N   UNL     1      -0.730   0.612  25.245  0.00  0.00    -0.161 NA
ENDROOT
BRANCH  15  16
ATOM     16  C   UNL     1      -0.573   1.423  25.253  0.00  0.00    +0.075 A 
ATOM     17  C   UNL     1      -0.438   1.810  25.968  0.00  0.00    +0.020 A 
ATOM     18  C   UNL     1      -0.281   2.620  25.976  0.00  0.00    +0.039 A 
ATOM     19  C   UNL     1      -0.260   3.043  25.268  0.00  0.00    +0.145 A 
ATOM     27  C   UNL     1      -0.395   2.656  24.552  0.00  0.00    +0.039 A 
ATOM     28  C   UNL     1      -0.551   1.845  24.544  0.00  0.00    +0.020 A 
BRANCH  19  20
ATOM     20  O   UNL     1      -0.103   3.853  25.276  0.00  0.00    -0.453 OA
BRANCH  20  21
ATOM     21  C   UNL     1      -0.722   4.394  25.207  0.00  0.00    +0.145 A 
ATOM     22  C   UNL     1      -0.647   5.043  24.704  0.00  0.00    +0.037 A 
ATOM     23  C   UNL     1      -1.266   5.585  24.635  0.00  0.00    +0.003 A 
ATOM     24  C   UNL     1      -1.959   5.476  25.069  0.00  0.00    +0.000 A 
ATOM     25  C   UNL     1      -2.033   4.827  25.572  0.00  0.00    +0.003 A 
ATOM     26  C   UNL     1      -1.415   4.286  25.641  0.00  0.00    +0.037 A 
ENDBRANCH  20  21
ENDBRANCH  19  20
ENDBRANCH  15  16
BRANCH  12  11
ATOM     11  C   UNL     1      -2.420  -0.744  25.508  0.00  0.00    +0.133 C 
BRANCH  11  10
ATOM      3  C   UNL     1      -3.786  -2.248  24.290  0.00  0.00    +0.016 C 
ATOM      4  C   UNL     1      -4.019  -1.507  24.340  0.00  0.00    +0.072 C 
ATOM      5  N   UNL     1      -3.335  -1.827  24.673  0.00  0.00    -0.272 NA
ATOM      6  C   UNL     1      -3.315  -2.845  24.422  0.00  0.00    +0.072 C 
ATOM      7  C   UNL     1      -3.026  -3.430  24.447  0.00  0.00    +0.017 C 
ATOM      8  C   UNL     1      -3.113  -2.554  24.620  0.00  0.00    +0.004 C 
ATOM      9  C   UNL     1      -2.476  -2.190  25.101  0.00  0.00    +0.018 C 
ATOM     10  C   UNL     1      -2.668  -1.455  25.174  0.00  0.00    +0.079 C 
BRANCH   3   2
ATOM      1  C   UNL     1      -4.907  -2.476  23.433  0.00  0.00    +0.000 C 
ATOM      2  C   UNL     1      -4.267  -2.767  23.864  0.00  0.00    +0.001 C 
ENDBRANCH   3   2
ENDBRANCH  11  10
ENDBRANCH  12  11
TORSDOF 6
ENDMDL
MODEL 3
REMARK VINA RESULT:      -9.3      4.680      6.672
REMARK  Name = 
REMARK  6 active torsions:
REMARK  status: ('A' for Active; 'I' for Inactive)
REMARK    1  A    between atoms: C_2  and  C_3
REMARK    2  A    between atoms: C_10  and  C_11
REMARK    3  A    between atoms: C_11  and  N_12
REMARK    4  A    between atoms: N_15  and  C_16
REMARK    5  A    between atoms: C_19  and  O_20
REMARK    6  A    between atoms: O_20  and  C_21
REMARK                            x       y       z     vdW  Elec       q    Type
REMARK                         _______ _______ _______ _____ _____    ______ ____
ROOT
ATOM     12  N   UNL     1      -4.554   0.510  24.889  0.00  0.00    -0.185 NA
ATOM     13  C   UNL     1      -4.156   1.224  24.998  0.00  0.00    +0.344 C 
ATOM     14  O   UNL     1      -3.453   1.243  25.429  0.00  0.00    -0.249 OA
ATOM     15  N   UNL     1      -4.462   1.920  24.678  0.00  0.00    -0.161 NA
ENDROOT
BRANCH  15  16
ATOM     16  C   UNL     1      -4.064   2.635  24.787  0.00  0.00    +0.075 A 
ATOM     17  C   UNL     1      -3.686   2.998  24.150  0.00  0.00    +0.020 A 
ATOM     18  C   UNL     1      -3.288   3.712  24.260  0.00  0.00    +0.039 A 
ATOM     19  C   UNL     1      -3.267   4.064  25.006  0.00  0.00    +0.145 A 
ATOM     27  C   UNL     1      -3.646   3.700  25.643  0.00  0.00    +0.039 A 
ATOM     28  C   UNL     1      -4.044   2.986  25.533  0.00  0.00    +0.020 A 
BRANCH  19  20
ATOM     20  O   UNL     1      -2.869   4.778  25.115  0.00  0.00    -0.453 OA
BRANCH  20  21
ATOM     21  C   UNL     1      -2.046   4.801  25.079  0.00  0.00    +0.145 A 
ATOM     22  C   UNL     1      -1.667   5.425  24.694  0.00  0.00    +0.037 A 
ATOM     23  C   UNL     1      -0.844   5.449  24.657  0.00  0.00    +0.003 A 
ATOM     24  C   UNL     1      -0.398   4.848  25.006  0.00  0.00    +0.000 A 
ATOM     25  C   UNL     1      -0.777   4.224  25.391  0.00  0.00    +0.003 A 
ATOM     26  C   UNL     1      -1.600   4.200  25.427  0.00  0.00    +0.037 A 
ENDBRANCH  20  21
ENDBRANCH  19  20
ENDBRANCH  15  16
BRANCH  12  11
ATOM     11  C   UNL     1      -4.248  -0.186  25.210  0.00  0.00    +0.133 C 
BRANCH  11  10
ATOM      3  C   UNL     1      -3.512  -2.319  24.486  0.00  0.00    +0.016 C 
ATOM      4  C   UNL     1      -3.163  -2.007  25.108  0.00  0.00    +0.072 C 
ATOM      5  N   UNL     1      -3.772  -1.665  24.669  0.00  0.00    -0.272 NA
ATOM      6  C   UNL     1      -4.016  -2.337  23.902  0.00  0.00    +0.072 C 
ATOM      7  C   UNL     1      -4.375  -2.497  23.380  0.00  0.00    +0.017 C 
ATOM      8  C   UNL     1      -4.109  -1.977  24.060  0.00  0.00    +0.004 C 
ATOM      9  C   UNL     1      -4.529  -1.210  24.146  0.00  0.00    +0.018 C 
ATOM     10  C   UNL     1      -4.212  -0.870  24.752  0.00  0.00    +0.079 C 
BRANCH   3   2
ATOM      1  C   UNL     1      -2.546  -3.371  24.537  0.00  0.00    +0.000 C 
ATOM      2  C   UNL     1      -3.250  -3.062  24.239  0.00  0.00    +0.001 C 
ENDBRANCH   3   2
ENDBRANCH  11  10
ENDBRANCH  12  11
TORSDOF 6
ENDMDL
MODEL 4
REMARK VINA RESULT:      -9.3      3.221      4.574
REMARK  Name = 
REMARK  6 active torsions:
REMARK  status: ('A' for Active; 'I' for Inactive)
REMARK    1  A    between atoms: C_2  and  C_3
REMARK    2  A    between atoms: C_10  and  C_11
REMARK    3  A    between atoms: C_11  and  N_12
REMARK    4  A    between atoms: N_15  and  C_16
REMARK    5  A    between atoms: C_19  and  O_20
REMARK    6  A    between atoms: O_20  and  C_21
REMARK                            x       y       z     vdW  Elec       q    Type
REMARK                         _______ _______ _______ _____ _____    ______ ____
ROOT
ATOM     12  N   UNL     1      -0.384   1.860  25.396  0.00  0.00    -0.185 NA
ATOM     13  C   UNL     1      -0.712   1.106  25.333  0.00  0.00    +0.344 C 
ATOM     14  O   UNL     1      -1.461   0.954  25.646  0.00  0.00    -0.249 OA
ATOM     15  N   UNL     1      -0.293   0.503  24.957  0.00  0.00    -0.161 NA
ENDROOT
BRANCH  15  16
ATOM     16  C   UNL     1      -0.623  -0.251  24.894  0.00  0.00    +0.075 A 
ATOM     17  C   UNL     1      -0.716  -0.718  25.568  0.00  0.00    +0.020 A 
ATOM     18  C   UNL     1      -1.045  -1.472  25.505  0.00  0.00    +0.039 A 
ATOM     19  C   UNL     1      -1.281  -1.760  24.768  0.00  0.00    +0.145 A 
ATOM     27  C   UNL     1      -1.187  -1.293  24.094  0.00  0.00    +0.039 A 
ATOM     28  C   UNL     1      -0.858  -0.539  24.157  0.00  0.00    +0.020 A 
BRANCH  19  20
ATOM     20  O   UNL     1      -1.610  -2.513  24.706  0.00  0.00    -0.453 OA
BRANCH  20  21
ATOM     21  C   UNL     1      -2.424  -2.602  24.614  0.00  0.00    +0.145 A 
ATOM     22  C   UNL     1      -2.734  -2.837  23.886  0.00  0.00    +0.037 A 
ATOM     23  C   UNL     1      -3.549  -2.926  23.793  0.00  0.00    +0.003 A 
ATOM     24  C   UNL     1      -4.054  -2.781  24.429  0.00  0.00    +0.000 A 
ATOM     25  C   UNL     1      -3.744  -2.547  25.157  0.00  0.00    +0.003 A 
ATOM     26  C   UNL     1      -2.930  -2.457  25.250  0.00  0.00    +0.037 A 
ENDBRANCH  20  21
ENDBRANCH  19  20
ENDBRANCH  15  16
BRANCH  12  11
ATOM     11  C   UNL     1      -0.803   2.463  25.772  0.00  0.00    +0.133 C 
BRANCH  11  10
ATOM      3  C   UNL     1      -1.547   4.658  25.282  0.00  0.00    +0.016 C 
ATOM      4  C   UNL     1      -2.024   4.197  25.688  0.00  0.00    +0.072 C 
ATOM      5  N   UNL     1      -1.274   3.996  25.407  0.00  0.00    -0.272 NA
ATOM      6  C   UNL     1      -0.898   4.835  24.903  0.00  0.00    +0.072 C 
ATOM      7  C   UNL     1      -0.423   5.128  24.563  0.00  0.00    +0.017 C 
ATOM      8  C   UNL     1      -0.813   4.454  25.009  0.00  0.00    +0.004 C 
ATOM      9  C   UNL     1      -0.347   3.713  25.072  0.00  0.00    +0.018 C 
ATOM     10  C   UNL     1      -0.785   3.229  25.468  0.00  0.00    +0.079 C 
BRANCH   3   2
ATOM      1  C   UNL     1      -2.574   5.651  25.333  0.00  0.00    +0.000 C 
ATOM      2  C   UNL     1      -1.812   5.423  25.115  0.00  0.00    +0.001 C 
ENDBRANCH   3   2
ENDBRANCH  11  10
ENDBRANCH  12  11
TORSDOF 6
ENDMDL
MODEL 5
REMARK VINA RESULT:      -9.2      4.354      4.984
REMARK  Name = 
REMARK  6 active torsions:
REMARK  status: ('A' for Active; 'I' for Inactive)
REMARK    1  A    between atoms: C_2  and  C_3
REMARK    2  A    between atoms: C_10  and  C_11
REMARK    3  A    between atoms: C_11  and  N_12
REMARK    4  A    between atoms: N_15  and  C_16
REMARK    5  A    between atoms: C_19  and  O_20
REMARK    6  A    between atoms: O_20  and  C_21
REMARK                            x       y       z     vdW  Elec       q    Type
REMARK                         _______ _______ _______ _____ _____    ______ ____
ROOT
ATOM     12  N   UNL     1      -3.261   2.757  25.076  0.00  0.00    -0.185 NA
ATOM     13  C   UNL     1      -3.382   1.947  24.974  0.00  0.00    +0.344 C 
ATOM     14  O   UNL     1      -2.884   1.406  25.348  0.00  0.00    -0.249 OA
ATOM     15  N   UNL     1      -4.001   1.678  24.499  0.00  0.00    -0.161 NA
ENDROOT
BRANCH  15  16
ATOM     16  C   UNL     1      -4.121   0.868  24.398  0.00  0.00    +0.075 A 
ATOM     17  C   UNL     1      -4.631   0.461  24.903  0.00  0.00    +0.020 A 
ATOM     18  C   UNL     1      -4.751  -0.349  24.802  0.00  0.00    +0.039 A 
ATOM     19  C   UNL     1      -4.362  -0.752  24.196  0.00  0.00    +0.145 A 
ATOM     27  C   UNL     1      -3.852  -0.345  23.691  0.00  0.00    +0.039 A 
ATOM     28  C   UNL     1      -3.732   0.465  23.792  0.00  0.00    +0.020 A 
BRANCH  19  20
ATOM     20  O   UNL     1      -4.483  -1.562  24.096  0.00  0.00    -0.453 OA
BRANCH  20  21
ATOM     21  C   UNL     1      -3.919  -2.100  24.366  0.00  0.00    +0.145 A 
ATOM     22  C   UNL     1      -3.538  -2.601  23.832  0.00  0.00    +0.037 A 
ATOM     23  C   UNL     1      -2.975  -3.139  24.102  0.00  0.00    +0.003 A 
ATOM     24  C   UNL     1      -2.792  -3.177  24.906  0.00  0.00    +0.000 A 
ATOM     25  C   UNL     1      -3.174  -2.676  25.439  0.00  0.00    +0.003 A 
ATOM     26  C   UNL     1      -3.737  -2.138  25.170  0.00  0.00    +0.037 A 
ENDBRANCH  20  21
ENDBRANCH  19  20
ENDBRANCH  15  16
BRANCH  12  11
ATOM     11  C   UNL     1      -2.643   3.026  25.551  0.00  0.00    +0.133 C 
BRANCH  11  10
ATOM      3  C   UNL     1      -1.057   4.676  24.938  0.00  0.00    +0.016 C 
ATOM      4  C   UNL     1      -0.851   3.930  24.860  0.00  0.00    +0.072 C 
ATOM      5  N   UNL     1      -1.576   4.209  25.139  0.00  0.00    -0.272 NA
ATOM      6  C   UNL     1      -1.532   5.256  25.121  0.00  0.00    +0.072 C 
ATOM      7  C   UNL     1      -1.809   5.838  25.227  0.00  0.00    +0.017 C 
ATOM      8  C   UNL     1      -1.770   4.942  25.213  0.00  0.00    +0.004 C 
ATOM      9  C   UNL     1      -2.488   4.520  25.490  0.00  0.00    +0.018 C 
ATOM     10  C   UNL     1      -2.326   3.777  25.428  0.00  0.00    +0.079 C 
BRANCH   3   2
ATOM      1  C   UNL     1       0.135   5.040  24.238  0.00  0.00    +0.000 C 
ATOM      2  C   UNL     1      -0.499   5.246  24.723  0.00  0.00    +0.001 C 
ENDBRANCH   3   2
ENDBRANCH  11  10
ENDBRANCH  12  11
TORSDOF 6
ENDMDL
MODEL 6
REMARK VINA RESULT:      -9.0      1.184      6.540
REMARK  Name = 
REMARK  6 active torsions:
REMARK  status: ('A' for Active; 'I' for Inactive)
REMARK    1  A    between atoms: C_2  and  C_3
REMARK    2  A    between atoms: C_10  and  C_11
REMARK    3  A    between atoms: C_11  and  N_12
REMARK    4  A    between atoms: N_15  and  C_16
REMARK    5  A    between atoms: C_19  and  O_20
REMARK    6  A    between atoms: O_20  and  C_21
REMARK                            x       y       z     vdW  Elec       q    Type
REMARK                         _______ _______ _______ _____ _____    ______ ____
ROOT
ATOM     12  N   UNL     1      -0.541  -0.220  23.964  0.00  0.00    -0.185 NA
ATOM     13  C   UNL     1       0.258  -0.201  23.762  0.00  0.00    +0.344 C 
ATOM     14  O   UNL     1       0.776  -0.761  24.077  0.00  0.00    -0.249 OA
ATOM     15  N   UNL     1       0.541   0.378  23.246  0.00  0.00    -0.161 NA
ENDROOT
BRANCH  15  16
ATOM     16  C   UNL     1       1.341   0.396  23.045  0.00  0.00    +0.075 A 
ATOM     17  C   UNL     1       1.639  -0.139  22.492  0.00  0.00    +0.020 A 
ATOM     18  C   UNL     1       2.439  -0.121  22.291  0.00  0.00    +0.039 A 
ATOM     19  C   UNL     1       2.941   0.432  22.641  0.00  0.00    +0.145 A 
ATOM     27  C   UNL     1       2.642   0.967  23.194  0.00  0.00    +0.039 A 
ATOM     28  C   UNL     1       1.842   0.949  23.395  0.00  0.00    +0.020 A 
BRANCH  19  20
ATOM     20  O   UNL     1       3.740   0.450  22.439  0.00  0.00    -0.453 OA
BRANCH  20  21
ATOM     21  C   UNL     1       4.310   0.206  22.984  0.00  0.00    +0.145 A 
ATOM     22  C   UNL     1       4.846   0.752  23.293  0.00  0.00    +0.037 A 
ATOM     23  C   UNL     1       5.415   0.508  23.838  0.00  0.00    +0.003 A 
ATOM     24  C   UNL     1       5.448  -0.282  24.074  0.00  0.00    +0.000 A 
ATOM     25  C   UNL     1       4.912  -0.827  23.765  0.00  0.00    +0.003 A 
ATOM     26  C   UNL     1       4.343  -0.584  23.221  0.00  0.00    +0.037 A 
ENDBRANCH  20  21
ENDBRANCH  19  20
ENDBRANCH  15  16
BRANCH  12  11
ATOM     11  C   UNL     1      -0.823  -0.798  24.480  0.00  0.00    +0.133 C 
BRANCH  11  10
ATOM      3  C   UNL     1      -2.955  -1.815  24.672  0.00  0.00    +0.016 C 
ATOM      4  C   UNL     1      -2.358  -2.264  24.455  0.00  0.00    +0.072 C 
ATOM      5  N   UNL     1      -2.324  -1.457  24.627  0.00  0.00    -0.272 NA
ATOM      6  C   UNL     1      -3.294  -1.154  24.885  0.00  0.00    +0.072 C 
ATOM      7  C   UNL     1      -3.713  -0.689  25.070  0.00  0.00    +0.017 C 
ATOM      8  C   UNL     1      -2.913  -1.024  24.839  0.00  0.00    +0.004 C 
ATOM      9  C   UNL     1      -2.244  -0.456  24.834  0.00  0.00    +0.018 C 
ATOM     10  C   UNL     1      -1.632  -0.862  24.624  0.00  0.00    +0.079 C 
BRANCH   3   2
ATOM      1  C   UNL     1      -3.804  -2.945  24.462  0.00  0.00    +0.000 C 
ATOM      2  C   UNL     1      -3.695  -2.175  24.736  0.00  0.00    +0.001 C 
ENDBRANCH   3   2
ENDBRANCH  11  10
ENDBRANCH  12  11
TORSDOF 6
ENDMDL
MODEL 7
REMARK VINA RESULT:      -8.6      1.753      6.769
REMARK  Name = 
REMARK  6 active torsions:
REMARK  status: ('A' for Active; 'I' for Inactive)
REMARK    1  A    between atoms: C_2  and  C_3
REMARK    2  A    between atoms: C_10  and  C_11
REMARK    3  A    between atoms: C_11  and  N_12
REMARK    4  A    between atoms: N_15  and  C_16
REMARK    5  A    between atoms: C_19  and  O_20
REMARK    6  A    between atoms: O_20  and  C_21
REMARK                            x       y       z     vdW  Elec       q    Type
REMARK                         _______ _______ _______ _____ _____    ______ ____
ROOT
ATOM     12  N   UNL     1      -1.499   0.749  24.288  0.00  0.00    -0.185 NA
ATOM     13  C   UNL     1      -0.804   0.751  23.843  0.00  0.00    +0.344 C 
ATOM     14  O   UNL     1      -0.770   1.174  23.135  0.00  0.00    -0.249 OA
ATOM     15  N   UNL     1      -0.144   0.332  24.105  0.00  0.00    -0.161 NA
ENDROOT
BRANCH  15  16
ATOM     16  C   UNL     1       0.551   0.336  23.659  0.00  0.00    +0.075 A 
ATOM     17  C   UNL     1       1.076   0.969  23.719  0.00  0.00    +0.020 A 
ATOM     18  C   UNL     1       1.771   0.972  23.274  0.00  0.00    +0.039 A 
ATOM     19  C   UNL     1       1.939   0.342  22.768  0.00  0.00    +0.145 A 
ATOM     27  C   UNL     1       1.414  -0.291  22.708  0.00  0.00    +0.039 A 
ATOM     28  C   UNL     1       0.719  -0.294  23.154  0.00  0.00    +0.020 A 
BRANCH  19  20
ATOM     20  O   UNL     1       2.634   0.346  22.322  0.00  0.00    -0.453 OA
BRANCH  20  21
ATOM     21  C   UNL     1       3.365   0.264  22.696  0.00  0.00    +0.145 A 
ATOM     22  C   UNL     1       3.877   0.909  22.746  0.00  0.00    +0.037 A 
ATOM     23  C   UNL     1       4.608   0.828  23.119  0.00  0.00    +0.003 A 
ATOM     24  C   UNL     1       4.827   0.101  23.443  0.00  0.00    +0.000 A 
ATOM     25  C   UNL     1       4.314  -0.543  23.393  0.00  0.00    +0.003 A 
ATOM     26  C   UNL     1       3.583  -0.462  23.020  0.00  0.00    +0.037 A 
ENDBRANCH  20  21
ENDBRANCH  19  20
ENDBRANCH  15  16
BRANCH  12  11
ATOM     11  C   UNL     1      -2.159   1.168  24.026  0.00  0.00    +0.133 C 
BRANCH  11  10
ATOM      3  C   UNL     1      -4.372   1.568  24.771  0.00  0.00    +0.016 C 
ATOM      4  C   UNL     1      -3.973   2.170  24.482  0.00  0.00    +0.072 C 
ATOM      5  N   UNL     1      -3.700   1.395  24.556  0.00  0.00    -0.272 NA
ATOM      6  C   UNL     1      -4.477   0.832  24.979  0.00  0.00    +0.072 C 
ATOM      7  C   UNL     1      -4.712   0.263  25.199  0.00  0.00    +0.017 C 
ATOM      8  C   UNL     1      -4.097   0.810  24.841  0.00  0.00    +0.004 C 
ATOM      9  C   UNL     1      -3.327   0.442  24.634  0.00  0.00    +0.018 C 
ATOM     10  C   UNL     1      -2.902   1.006  24.344  0.00  0.00    +0.079 C 
BRANCH   3   2
ATOM      1  C   UNL     1      -5.425   2.488  25.068  0.00  0.00    +0.000 C 
ATOM      2  C   UNL     1      -5.144   1.714  25.029  0.00  0.00    +0.001 C 
ENDBRANCH   3   2
ENDBRANCH  11  10
ENDBRANCH  12  11
TORSDOF 6
ENDMDL
MODEL 8
REMARK VINA RESULT:      -8.2      2.104      2.990
REMARK  Name = 
REMARK  6 active torsions:
REMARK  status: ('A' for Active; 'I' for Inactive)
REMARK    1  A    between atoms: C_2  and  C_3
REMARK    2  A    between atoms: C_10  and  C_11
REMARK    3  A    between atoms: C_11  and  N_12
REMARK    4  A    between atoms: N_15  and  C_16
REMARK    5  A    between atoms: C_19  and  O_20
REMARK    6  A    between atoms: O_20  and  C_21
REMARK                            x       y       z     vdW  Elec       q    Type
REMARK                         _______ _______ _______ _____ _____    ______ ____
ROOT
ATOM     12  N   UNL     1      -0.625  -0.080  24.024  0.00  0.00    -0.185 NA
ATOM     13  C   UNL     1      -1.381   0.222  24.157  0.00  0.00    +0.344 C 
ATOM     14  O   UNL     1      -1.503   1.038  24.166  0.00  0.00    -0.249 OA
ATOM     15  N   UNL     1      -2.015  -0.291  24.282  0.00  0.00    -0.161 NA
ENDROOT
BRANCH  15  16
ATOM     16  C   UNL     1      -2.771   0.012  24.416  0.00  0.00    +0.075 A 
ATOM     17  C   UNL     1      -3.215   0.305  23.786  0.00  0.00    +0.020 A 
ATOM     18  C   UNL     1      -3.971   0.608  23.919  0.00  0.00    +0.039 A 
ATOM     19  C   UNL     1      -4.283   0.617  24.683  0.00  0.00    +0.145 A 
ATOM     27  C   UNL     1      -3.839   0.323  25.313  0.00  0.00    +0.039 A 
ATOM     28  C   UNL     1      -3.083   0.021  25.180  0.00  0.00    +0.020 A 
BRANCH  19  20
ATOM     20  O   UNL     1      -5.038   0.920  24.815  0.00  0.00    -0.453 OA
BRANCH  20  21
ATOM     21  C   UNL     1      -5.134   1.706  25.047  0.00  0.00    +0.145 A 
ATOM     22  C   UNL     1      -5.476   1.882  25.776  0.00  0.00    +0.037 A 
ATOM     23  C   UNL     1      -5.572   2.669  26.007  0.00  0.00    +0.003 A 
ATOM     24  C   UNL     1      -5.325   3.278  25.509  0.00  0.00    +0.000 A 
ATOM     25  C   UNL     1      -4.983   3.101  24.779  0.00  0.00    +0.003 A 
ATOM     26  C   UNL     1      -4.887   2.316  24.548  0.00  0.00    +0.037 A 
ENDBRANCH  20  21
ENDBRANCH  19  20
ENDBRANCH  15  16
BRANCH  12  11
ATOM     11  C   UNL     1       0.008   0.433  23.899  0.00  0.00    +0.133 C 
BRANCH  11  10
ATOM      3  C   UNL     1       2.149   0.443  22.884  0.00  0.00    +0.016 C 
ATOM      4  C   UNL     1       2.032   0.923  23.485  0.00  0.00    +0.072 C 
ATOM      5  N   UNL     1       1.478   0.403  23.160  0.00  0.00    -0.272 NA
ATOM      6  C   UNL     1       1.950  -0.096  22.368  0.00  0.00    +0.072 C 
ATOM      7  C   UNL     1       1.934  -0.532  21.881  0.00  0.00    +0.017 C 
ATOM      8  C   UNL     1       1.601  -0.064  22.571  0.00  0.00    +0.004 C 
ATOM      9  C   UNL     1       0.766  -0.231  22.782  0.00  0.00    +0.018 C 
ATOM     10  C   UNL     1       0.609   0.225  23.374  0.00  0.00    +0.079 C 
BRANCH   3   2
ATOM      1  C   UNL     1       3.488   0.942  22.835  0.00  0.00    +0.000 C 
ATOM      2  C   UNL     1       2.898   0.451  22.535  0.00  0.00    +0.001 C 
ENDBRANCH   3   2
ENDBRANCH  11  10
ENDBRANCH  12  11
TORSDOF 6
ENDMDL
MODEL 9
REMARK VINA RESULT:      -6.9     13.844     14.941
REMARK  Name = 
REMARK  6 active torsions:
REMARK  status: ('A' for Active; 'I' for Inactive)
REMARK    1  A    between atoms: C_2  and  C_3
REMARK    2  A    between atoms: C_10  and  C_11
REMARK    3  A    between atoms: C_11  and  N_12
REMARK    4  A    between atoms: N_15  and  C_16
REMARK    5  A    between atoms: C_19  and  O_20
REMARK    6  A    between atoms: O_20  and  C_21
REMARK                            x       y       z     vdW  Elec       q    Type
REMARK                         _______ _______ _______ _____ _____    ______ ____
ROOT
ATOM     12  N   UNL     1      -4.724 -10.473  14.136  0.00  0.00    -0.185 NA
ATOM     13  C   UNL     1      -5.351 -10.289  14.639  0.00  0.00    +0.344 C 
ATOM     14  O   UNL     1      -6.041  -9.957  14.333  0.00  0.00    -0.249 OA
ATOM     15  N   UNL     1      -5.289 -10.436  15.449  0.00  0.00    -0.161 NA
ENDROOT
BRANCH  15  16
ATOM     16  C   UNL     1      -5.917 -10.251  15.951  0.00  0.00    +0.075 A 
ATOM     17  C   UNL     1      -6.542 -10.781  16.041  0.00  0.00    +0.020 A 
ATOM     18  C   UNL     1      -7.170 -10.597  16.543  0.00  0.00    +0.039 A 
ATOM     19  C   UNL     1      -7.173  -9.882  16.956  0.00  0.00    +0.145 A 
ATOM     27  C   UNL     1      -6.547  -9.353  16.867  0.00  0.00    +0.039 A 
ATOM     28  C   UNL     1      -5.919  -9.537  16.364  0.00  0.00    +0.020 A 
BRANCH  19  20
ATOM     20  O   UNL     1      -7.801  -9.699  17.458  0.00  0.00    -0.453 OA
BRANCH  20  21
ATOM     21  C   UNL     1      -8.488  -9.359  17.153  0.00  0.00    +0.145 A 
ATOM     22  C   UNL     1      -9.113  -9.841  16.912  0.00  0.00    +0.037 A 
ATOM     23  C   UNL     1      -9.800  -9.501  16.607  0.00  0.00    +0.003 A 
ATOM     24  C   UNL     1      -9.862  -8.681  16.543  0.00  0.00    +0.000 A 
ATOM     25  C   UNL     1      -9.237  -8.201  16.785  0.00  0.00    +0.003 A 
ATOM     26  C   UNL     1      -8.550  -8.539  17.089  0.00  0.00    +0.037 A 
ENDBRANCH  20  21
ENDBRANCH  19  20
ENDBRANCH  15  16
BRANCH  12  11
ATOM     11  C   UNL     1      -4.786 -10.325  13.327  0.00  0.00    +0.133 C 
BRANCH  11  10
ATOM      3  C   UNL     1      -3.410 -10.003  11.425  0.00  0.00    +0.016 C 
ATOM      4  C   UNL     1      -4.130  -9.707  11.406  0.00  0.00    +0.072 C 
ATOM      5  N   UNL     1      -3.792 -10.128  12.030  0.00  0.00    -0.272 NA
ATOM      6  C   UNL     1      -2.818 -10.384  11.741  0.00  0.00    +0.072 C 
ATOM      7  C   UNL     1      -2.245 -10.670  11.867  0.00  0.00    +0.017 C 
ATOM      8  C   UNL     1      -3.086 -10.415  12.042  0.00  0.00    +0.004 C 
ATOM      9  C   UNL     1      -3.405 -10.647  12.826  0.00  0.00    +0.018 C 
ATOM     10  C   UNL     1      -4.117 -10.372  12.847  0.00  0.00    +0.079 C 
BRANCH   3   2
ATOM      1  C   UNL     1      -3.216  -9.437  10.127  0.00  0.00    +0.000 C 
ATOM      2  C   UNL     1      -2.936  -9.886  10.758  0.00  0.00    +0.001 C 
ENDBRANCH   3   2
ENDBRANCH  11  10
ENDBRANCH  12  11
TORSDOF 6
ENDMDL
MODEL 10
REMARK VINA RESULT:      -6.9     13.637     16.070
REMARK  Name = 
REMARK  6 active torsions:
REMARK  status: ('A' for Active; 'I' for Inactive)
REMARK    1  A    between atoms: C_2  and  C_3
REMARK    2  A    between atoms: C_10  and  C_11
REMARK    3  A    between atoms: C_11  and  N_12
REMARK    4  A    between atoms: N_15  and  C_16
REMARK    5  A    between atoms: C_19  and  O_20
REMARK    6  A    between atoms: O_20  and  C_21
REMARK                            x       y       z     vdW  Elec       q    Type
REMARK                         _______ _______ _______ _____ _____    ______ ____
ROOT
ATOM     12  N   UNL     1      -6.570  -9.923  14.856  0.00  0.00    -0.185 NA
ATOM     13  C   UNL     1      -6.240  -9.910  14.101  0.00  0.00    +0.344 C 
ATOM     14  O   UNL     1      -5.430 -10.033  14.003  0.00  0.00    -0.249 OA
ATOM     15  N   UNL     1      -6.718  -9.772  13.443  0.00  0.00    -0.161 NA
ENDROOT
BRANCH  15  16
ATOM     16  C   UNL     1      -6.387  -9.759  12.687  0.00  0.00    +0.075 A 
ATOM     17  C   UNL     1      -6.214  -9.038  12.325  0.00  0.00    +0.020 A 
ATOM     18  C   UNL     1      -5.883  -9.025  11.570  0.00  0.00    +0.039 A 
ATOM     19  C   UNL     1      -5.725  -9.732  11.176  0.00  0.00    +0.145 A 
ATOM     27  C   UNL     1      -5.898 -10.453  11.537  0.00  0.00    +0.039 A 
ATOM     28  C   UNL     1      -6.229 -10.466  12.293  0.00  0.00    +0.020 A 
BRANCH  19  20
ATOM     20  O   UNL     1      -5.394  -9.718  10.420  0.00  0.00    -0.453 OA
BRANCH  20  21
ATOM     21  C   UNL     1      -4.581  -9.615  10.328  0.00  0.00    +0.145 A 
ATOM     22  C   UNL     1      -4.281  -8.880  10.104  0.00  0.00    +0.037 A 
ATOM     23  C   UNL     1      -3.467  -8.777  10.011  0.00  0.00    +0.003 A 
ATOM     24  C   UNL     1      -2.954  -9.410  10.142  0.00  0.00    +0.000 A 
ATOM     25  C   UNL     1      -3.255 -10.145  10.366  0.00  0.00    +0.003 A 
ATOM     26  C   UNL     1      -4.067 -10.248  10.459  0.00  0.00    +0.037 A 
ENDBRANCH  20  21
ENDBRANCH  19  20
ENDBRANCH  15  16
BRANCH  12  11
ATOM     11  C   UNL     1      -6.091 -10.060  15.514  0.00  0.00    +0.133 C 
BRANCH  11  10
ATOM      3  C   UNL     1      -6.229 -10.351  17.862  0.00  0.00    +0.016 C 
ATOM      4  C   UNL     1      -5.566 -10.557  17.509  0.00  0.00    +0.072 C 
ATOM      5  N   UNL     1      -6.236 -10.243  17.143  0.00  0.00    -0.272 NA
ATOM      6  C   UNL     1      -6.949 -10.076  17.892  0.00  0.00    +0.072 C 
ATOM      7  C   UNL     1      -7.542  -9.873  18.077  0.00  0.00    +0.017 C 
ATOM      8  C   UNL     1      -6.882 -10.044  17.495  0.00  0.00    +0.004 C 
ATOM      9  C   UNL     1      -7.050  -9.856  16.654  0.00  0.00    +0.018 C 
ATOM     10  C   UNL     1      -6.418 -10.045  16.271  0.00  0.00    +0.079 C 
BRANCH   3   2
ATOM      1  C   UNL     1      -5.631 -10.781  19.086  0.00  0.00    +0.000 C 
ATOM      2  C   UNL     1      -6.270 -10.456  18.680  0.00  0.00    +0.001 C 
ENDBRANCH   3   2
ENDBRANCH  11  10
ENDBRANCH  12  11
TORSDOF 6
ENDMDL
