MODEL 1
REMARK VINA RESULT:     -13.1      0.000      0.000
REMARK  Name = 
REMARK  7 active torsions:
REMARK  status: ('A' for Active; 'I' for Inactive)
REMARK    1  A    between atoms: C_2  and  C_3
REMARK    2  A    between atoms: C_8  and  C_9
REMARK    3  A    between atoms: C_9  and  C_10
REMARK    4  A    between atoms: N_12  and  C_13
REMARK    5  A    between atoms: C_13  and  C_14
REMARK    6  A    between atoms: N_22  and  C_23
REMARK    7  A    between atoms: C_25  and  C_29
REMARK                            x       y       z     vdW  Elec       q    Type
REMARK                         _______ _______ _______ _____ _____    ______ ____
ROOT
ATOM      3  C   UNL     1      -3.937   1.966  23.896  0.00  0.00    +0.020 C 
ATOM      4  C   UNL     1      -3.874   1.144  23.949  0.00  0.00    +0.095 C 
ATOM      5  N   UNL     1      -4.117   0.755  24.635  0.00  0.00    -0.263 N 
ATOM      6  C   UNL     1      -4.423   1.187  25.268  0.00  0.00    +0.095 C 
ATOM      7  C   UNL     1      -4.486   2.008  25.216  0.00  0.00    +0.022 C 
ATOM      8  C   UNL     1      -4.244   2.398  24.530  0.00  0.00    +0.012 C 
ATOM     20  C   UNL     1      -4.053  -0.065  24.687  0.00  0.00    +0.327 C 
ATOM     21  O   UNL     1      -4.296  -0.455  25.373  0.00  0.00    -0.250 OA
ATOM     22  N   UNL     1      -3.747  -0.497  24.055  0.00  0.00    -0.162 NA
ENDROOT
BRANCH  22  23
ATOM     23  C   UNL     1      -3.684  -1.318  24.107  0.00  0.00    +0.075 A 
ATOM     24  C   UNL     1      -2.977  -1.662  24.353  0.00  0.00    +0.021 A 
ATOM     25  C   UNL     1      -2.913  -2.483  24.405  0.00  0.00    +0.073 A 
ATOM     26  C   UNL     1      -3.558  -2.960  24.210  0.00  0.00    +0.004 A 
ATOM     27  C   UNL     1      -4.265  -2.614  23.963  0.00  0.00    +0.001 A 
ATOM     28  C   UNL     1      -4.328  -1.794  23.911  0.00  0.00    +0.017 A 
BRANCH  25  29
ATOM     29  C   UNL     1      -2.206  -2.828  24.652  0.00  0.00    +0.419 C 
ATOM     30  F   UNL     1      -1.498  -3.173  24.900  0.00  0.00    -0.166 F 
ATOM     31  F   UNL     1      -1.898  -2.744  23.891  0.00  0.00    -0.166 F 
ATOM     32  F   UNL     1      -2.512  -2.913  25.413  0.00  0.00    -0.166 F 
ENDBRANCH  25  29
ENDBRANCH  22  23
BRANCH   3   2
ATOM      1  C   UNL     1      -3.181   1.981  22.683  0.00  0.00    +0.000 C 
ATOM      2  C   UNL     1      -3.694   2.355  23.211  0.00  0.00    +0.002 C 
ENDBRANCH   3   2
BRANCH   8   9
ATOM      9  C   UNL     1      -4.307   3.218  24.477  0.00  0.00    +0.087 C 
BRANCH   9  10
ATOM     10  C   UNL     1      -3.910   3.697  25.019  0.00  0.00    +0.242 C 
ATOM     11  O   UNL     1      -4.278   3.917  25.723  0.00  0.00    -0.273 OA
ATOM     12  N   UNL     1      -3.143   3.957  24.855  0.00  0.00    -0.201 NA
BRANCH  12  13
ATOM     13  C   UNL     1      -2.747   4.436  25.397  0.00  0.00    +0.141 C 
BRANCH  13  14
ATOM     14  C   UNL     1      -1.964   4.659  25.254  0.00  0.00    -0.001 A 
ATOM     15  C   UNL     1      -1.358   4.104  25.329  0.00  0.00    -0.003 A 
ATOM     16  C   UNL     1      -0.576   4.327  25.187  0.00  0.00    -0.000 A 
ATOM     17  C   UNL     1      -0.401   5.103  24.970  0.00  0.00    -0.000 A 
ATOM     18  C   UNL     1      -1.008   5.658  24.895  0.00  0.00    -0.000 A 
ATOM     19  C   UNL     1      -1.789   5.435  25.037  0.00  0.00    -0.003 A 
ENDBRANCH  13  14
ENDBRANCH  12  13
ENDBRANCH   9  10
ENDBRANCH   8   9
TORSDOF 7
ENDMDL
MODEL 2
REMARK VINA RESULT:     -12.2      2.321      2.881
REMARK  Name = 
REMARK  7 active torsions:
REMARK  status: ('A' for Active; 'I' for Inactive)
REMARK    1  A    between atoms: C_2  and  C_3
REMARK    2  A    between atoms: C_8  and  C_9
REMARK    3  A    between atoms: C_9  and  C_10
REMARK    4  A    between atoms: N_12  and  C_13
REMARK    5  A    between atoms: C_13  and  C_14
REMARK    6  A    between atoms: N_22  and  C_23
REMARK    7  A    between atoms: C_25  and  C_29
REMARK                            x       y       z     vdW  Elec       q    Type
REMARK                         _______ _______ _______ _____ _____    ______ ____
ROOT
ATOM      3  C   UNL     1      -0.383   0.646  24.329  0.00  0.00    +0.020 C 
ATOM      4  C   UNL     1      -0.925   0.025  24.376  0.00  0.00    +0.095 C 
ATOM      5  N   UNL     1      -1.369  -0.084  25.063  0.00  0.00    -0.263 N 
ATOM      6  C   UNL     1      -1.270   0.428  25.703  0.00  0.00    +0.095 C 
ATOM      7  C   UNL     1      -0.728   1.048  25.656  0.00  0.00    +0.022 C 
ATOM      8  C   UNL     1      -0.285   1.158  24.969  0.00  0.00    +0.012 C 
ATOM     20  C   UNL     1      -1.911  -0.703  25.109  0.00  0.00    +0.327 C 
ATOM     21  O   UNL     1      -2.354  -0.813  25.796  0.00  0.00    -0.250 OA
ATOM     22  N   UNL     1      -2.009  -1.214  24.470  0.00  0.00    -0.162 NA
ENDROOT
BRANCH  22  23
ATOM     23  C   UNL     1      -2.551  -1.835  24.516  0.00  0.00    +0.075 A 
ATOM     24  C   UNL     1      -3.282  -1.773  24.140  0.00  0.00    +0.021 A 
ATOM     25  C   UNL     1      -3.824  -2.394  24.187  0.00  0.00    +0.073 A 
ATOM     26  C   UNL     1      -3.634  -3.076  24.609  0.00  0.00    +0.004 A 
ATOM     27  C   UNL     1      -2.902  -3.138  24.984  0.00  0.00    +0.001 A 
ATOM     28  C   UNL     1      -2.360  -2.517  24.938  0.00  0.00    +0.017 A 
BRANCH  25  29
ATOM     29  C   UNL     1      -4.556  -2.332  23.811  0.00  0.00    +0.419 C 
ATOM     30  F   UNL     1      -5.288  -2.270  23.435  0.00  0.00    -0.166 F 
ATOM     31  F   UNL     1      -4.713  -1.639  24.230  0.00  0.00    -0.166 F 
ATOM     32  F   UNL     1      -4.399  -3.025  23.391  0.00  0.00    -0.166 F 
ENDBRANCH  25  29
ENDBRANCH  22  23
BRANCH   3   2
ATOM      1  C   UNL     1       0.385   0.104  23.251  0.00  0.00    +0.000 C 
ATOM      2  C   UNL     1       0.061   0.755  23.642  0.00  0.00    +0.002 C 
ENDBRANCH   3   2
BRANCH   8   9
ATOM      9  C   UNL     1       0.258   1.777  24.922  0.00  0.00    +0.087 C 
BRANCH   9  10
ATOM     10  C   UNL     1       0.158   2.448  25.393  0.00  0.00    +0.242 C 
ATOM     11  O   UNL     1       0.528   2.494  26.128  0.00  0.00    -0.273 OA
ATOM     12  N   UNL     1      -0.312   3.072  25.127  0.00  0.00    -0.201 NA
BRANCH  12  13
ATOM     13  C   UNL     1      -0.412   3.742  25.597  0.00  0.00    +0.141 C 
BRANCH  13  14
ATOM     14  C   UNL     1      -0.954   4.324  25.376  0.00  0.00    -0.001 A 
ATOM     15  C   UNL     1      -1.749   4.244  25.578  0.00  0.00    -0.003 A 
ATOM     16  C   UNL     1      -2.291   4.827  25.357  0.00  0.00    -0.000 A 
ATOM     17  C   UNL     1      -2.037   5.488  24.934  0.00  0.00    -0.000 A 
ATOM     18  C   UNL     1      -1.241   5.567  24.731  0.00  0.00    -0.000 A 
ATOM     19  C   UNL     1      -0.699   4.985  24.953  0.00  0.00    -0.003 A 
ENDBRANCH  13  14
ENDBRANCH  12  13
ENDBRANCH   9  10
ENDBRANCH   8   9
TORSDOF 7
ENDMDL
MODEL 3
REMARK VINA RESULT:     -11.8      4.472      5.310
REMARK  Name = 
REMARK  7 active torsions:
REMARK  status: ('A' for Active; 'I' for Inactive)
REMARK    1  A    between atoms: C_2  and  C_3
REMARK    2  A    between atoms: C_8  and  C_9
REMARK    3  A    between atoms: C_9  and  C_10
REMARK    4  A    between atoms: N_12  and  C_13
REMARK    5  A    between atoms: C_13  and  C_14
REMARK    6  A    between atoms: N_22  and  C_23
REMARK    7  A    between atoms: C_25  and  C_29
REMARK                            x       y       z     vdW  Elec       q    Type
REMARK                         _______ _______ _______ _____ _____    ______ ____
ROOT
ATOM      3  C   UNL     1       0.148   0.862  23.832  0.00  0.00    +0.020 C 
ATOM      4  C   UNL     1      -0.510   0.444  24.105  0.00  0.00    +0.095 C 
ATOM      5  N   UNL     1      -0.518  -0.380  24.074  0.00  0.00    -0.263 N 
ATOM      6  C   UNL     1       0.132  -0.787  23.768  0.00  0.00    +0.095 C 
ATOM      7  C   UNL     1       0.790  -0.370  23.494  0.00  0.00    +0.022 C 
ATOM      8  C   UNL     1       0.798   0.454  23.526  0.00  0.00    +0.012 C 
ATOM     20  C   UNL     1      -1.174  -0.797  24.347  0.00  0.00    +0.327 C 
ATOM     21  O   UNL     1      -1.182  -1.621  24.316  0.00  0.00    -0.250 OA
ATOM     22  N   UNL     1      -1.823  -0.390  24.652  0.00  0.00    -0.162 NA
ENDROOT
BRANCH  22  23
ATOM     23  C   UNL     1      -2.481  -0.807  24.926  0.00  0.00    +0.075 A 
ATOM     24  C   UNL     1      -3.044  -1.086  24.393  0.00  0.00    +0.021 A 
ATOM     25  C   UNL     1      -3.701  -1.503  24.667  0.00  0.00    +0.073 A 
ATOM     26  C   UNL     1      -3.795  -1.640  25.475  0.00  0.00    +0.004 A 
ATOM     27  C   UNL     1      -3.231  -1.360  26.009  0.00  0.00    +0.001 A 
ATOM     28  C   UNL     1      -2.574  -0.944  25.735  0.00  0.00    +0.017 A 
BRANCH  25  29
ATOM     29  C   UNL     1      -4.265  -1.782  24.134  0.00  0.00    +0.419 C 
ATOM     30  F   UNL     1      -4.829  -2.062  23.600  0.00  0.00    -0.166 F 
ATOM     31  F   UNL     1      -4.012  -2.555  24.271  0.00  0.00    -0.166 F 
ATOM     32  F   UNL     1      -4.519  -1.009  23.997  0.00  0.00    -0.166 F 
ENDBRANCH  25  29
ENDBRANCH  22  23
BRANCH   3   2
ATOM      1  C   UNL     1      -0.263   2.081  24.456  0.00  0.00    +0.000 C 
ATOM      2  C   UNL     1       0.156   1.686  23.863  0.00  0.00    +0.002 C 
ENDBRANCH   3   2
BRANCH   8   9
ATOM      9  C   UNL     1       1.454   0.872  23.252  0.00  0.00    +0.087 C 
BRANCH   9  10
ATOM     10  C   UNL     1       2.067   0.471  22.872  0.00  0.00    +0.242 C 
ATOM     11  O   UNL     1       1.914   0.037  22.188  0.00  0.00    -0.273 OA
ATOM     12  N   UNL     1       2.833   0.506  23.177  0.00  0.00    -0.201 NA
BRANCH  12  13
ATOM     13  C   UNL     1       3.446   0.106  22.797  0.00  0.00    +0.141 C 
BRANCH  13  14
ATOM     14  C   UNL     1       4.183   0.035  23.163  0.00  0.00    -0.001 A 
ATOM     15  C   UNL     1       4.397  -0.675  23.523  0.00  0.00    -0.003 A 
ATOM     16  C   UNL     1       5.134  -0.746  23.890  0.00  0.00    -0.000 A 
ATOM     17  C   UNL     1       5.654  -0.106  23.897  0.00  0.00    -0.000 A 
ATOM     18  C   UNL     1       5.439   0.605  23.536  0.00  0.00    -0.000 A 
ATOM     19  C   UNL     1       4.703   0.675  23.170  0.00  0.00    -0.003 A 
ENDBRANCH  13  14
ENDBRANCH  12  13
ENDBRANCH   9  10
ENDBRANCH   8   9
TORSDOF 7
ENDMDL
MODEL 4
REMARK VINA RESULT:     -11.7      4.181      5.558
REMARK  Name = 
REMARK  7 active torsions:
REMARK  status: ('A' for Active; 'I' for Inactive)
REMARK    1  A    between atoms: C_2  and  C_3
REMARK    2  A    between atoms: C_8  and  C_9
REMARK    3  A    between atoms: C_9  and  C_10
REMARK    4  A    between atoms: N_12  and  C_13
REMARK    5  A    between atoms: C_13  and  C_14
REMARK    6  A    between atoms: N_22  and  C_23
REMARK    7  A    between atoms: C_25  and  C_29
REMARK                            x       y       z     vdW  Elec       q    Type
REMARK                         _______ _______ _______ _____ _____    ______ ____
ROOT
ATOM      3  C   UNL     1      -0.755   0.054  24.491  0.00  0.00    +0.020 C 
ATOM      4  C   UNL     1      -1.398   0.557  24.617  0.00  0.00    +0.095 C 
ATOM      5  N   UNL     1      -1.521   1.201  24.117  0.00  0.00    -0.263 N 
ATOM      6  C   UNL     1      -1.003   1.342  23.491  0.00  0.00    +0.095 C 
ATOM      7  C   UNL     1      -0.361   0.840  23.364  0.00  0.00    +0.022 C 
ATOM      8  C   UNL     1      -0.237   0.195  23.864  0.00  0.00    +0.012 C 
ATOM     20  C   UNL     1      -2.163   1.704  24.243  0.00  0.00    +0.327 C 
ATOM     21  O   UNL     1      -2.286   2.348  23.743  0.00  0.00    -0.250 OA
ATOM     22  N   UNL     1      -2.681   1.562  24.869  0.00  0.00    -0.162 NA
ENDROOT
BRANCH  22  23
ATOM     23  C   UNL     1      -3.323   2.065  24.995  0.00  0.00    +0.075 A 
ATOM     24  C   UNL     1      -4.091   1.788  24.887  0.00  0.00    +0.021 A 
ATOM     25  C   UNL     1      -4.734   2.291  25.014  0.00  0.00    +0.073 A 
ATOM     26  C   UNL     1      -4.606   3.071  25.249  0.00  0.00    +0.004 A 
ATOM     27  C   UNL     1      -3.836   3.348  25.358  0.00  0.00    +0.001 A 
ATOM     28  C   UNL     1      -3.195   2.845  25.231  0.00  0.00    +0.017 A 
BRANCH  25  29
ATOM     29  C   UNL     1      -5.502   2.014  24.905  0.00  0.00    +0.419 C 
ATOM     30  F   UNL     1      -6.273   1.737  24.796  0.00  0.00    -0.166 F 
ATOM     31  F   UNL     1      -5.512   1.734  25.681  0.00  0.00    -0.166 F 
ATOM     32  F   UNL     1      -5.494   2.293  24.129  0.00  0.00    -0.166 F 
ENDBRANCH  25  29
ENDBRANCH  22  23
BRANCH   3   2
ATOM      1  C   UNL     1      -1.275  -0.968  25.345  0.00  0.00    +0.000 C 
ATOM      2  C   UNL     1      -0.632  -0.591  24.991  0.00  0.00    +0.002 C 
ENDBRANCH   3   2
BRANCH   8   9
ATOM      9  C   UNL     1       0.404  -0.308  23.738  0.00  0.00    +0.087 C 
BRANCH   9  10
ATOM     10  C   UNL     1       0.921  -0.166  23.111  0.00  0.00    +0.242 C 
ATOM     11  O   UNL     1       0.641  -0.169  22.336  0.00  0.00    -0.273 OA
ATOM     12  N   UNL     1       1.721  -0.021  23.261  0.00  0.00    -0.201 NA
BRANCH  12  13
ATOM     13  C   UNL     1       2.238   0.120  22.634  0.00  0.00    +0.141 C 
BRANCH  13  14
ATOM     14  C   UNL     1       3.041   0.240  22.781  0.00  0.00    -0.001 A 
ATOM     15  C   UNL     1       3.501  -0.375  23.082  0.00  0.00    -0.003 A 
ATOM     16  C   UNL     1       4.304  -0.256  23.230  0.00  0.00    -0.000 A 
ATOM     17  C   UNL     1       4.647   0.479  23.076  0.00  0.00    -0.000 A 
ATOM     18  C   UNL     1       4.187   1.095  22.775  0.00  0.00    -0.000 A 
ATOM     19  C   UNL     1       3.384   0.974  22.628  0.00  0.00    -0.003 A 
ENDBRANCH  13  14
ENDBRANCH  12  13
ENDBRANCH   9  10
ENDBRANCH   8   9
TORSDOF 7
ENDMDL
MODEL 5
REMARK VINA RESULT:     -11.1      3.213      6.400
REMARK  Name = 
REMARK  7 active torsions:
REMARK  status: ('A' for Active; 'I' for Inactive)
REMARK    1  A    between atoms: C_2  and  C_3
REMARK    2  A    between atoms: C_8  and  C_9
REMARK    3  A    between atoms: C_9  and  C_10
REMARK    4  A    between atoms: N_12  and  C_13
REMARK    5  A    between atoms: C_13  and  C_14
REMARK    6  A    between atoms: N_22  and  C_23
REMARK    7  A    between atoms: C_25  and  C_29
REMARK                            x       y       z     vdW  Elec       q    Type
REMARK                         _______ _______ _______ _____ _____    ______ ____
ROOT
ATOM      3  C   UNL     1      -0.429   0.348  24.193  0.00  0.00    +0.020 C 
ATOM      4  C   UNL     1      -0.565   1.148  24.347  0.00  0.00    +0.095 C 
ATOM      5  N   UNL     1      -0.824   1.386  25.093  0.00  0.00    -0.263 N 
ATOM      6  C   UNL     1      -0.947   0.825  25.685  0.00  0.00    +0.095 C 
ATOM      7  C   UNL     1      -0.811   0.026  25.533  0.00  0.00    +0.022 C 
ATOM      8  C   UNL     1      -0.552  -0.213  24.787  0.00  0.00    +0.012 C 
ATOM     20  C   UNL     1      -0.959   2.185  25.246  0.00  0.00    +0.327 C 
ATOM     21  O   UNL     1      -1.218   2.424  25.992  0.00  0.00    -0.250 OA
ATOM     22  N   UNL     1      -0.836   2.745  24.653  0.00  0.00    -0.162 NA
ENDROOT
BRANCH  22  23
ATOM     23  C   UNL     1      -0.972   3.545  24.806  0.00  0.00    +0.075 A 
ATOM     24  C   UNL     1      -1.724   3.802  25.024  0.00  0.00    +0.021 A 
ATOM     25  C   UNL     1      -1.860   4.601  25.177  0.00  0.00    +0.073 A 
ATOM     26  C   UNL     1      -1.241   5.144  25.111  0.00  0.00    +0.004 A 
ATOM     27  C   UNL     1      -0.488   4.886  24.893  0.00  0.00    +0.001 A 
ATOM     28  C   UNL     1      -0.354   4.087  24.740  0.00  0.00    +0.017 A 
BRANCH  25  29
ATOM     29  C   UNL     1      -2.612   4.858  25.394  0.00  0.00    +0.419 C 
ATOM     30  F   UNL     1      -3.365   5.116  25.613  0.00  0.00    -0.166 F 
ATOM     31  F   UNL     1      -2.894   4.672  24.642  0.00  0.00    -0.166 F 
ATOM     32  F   UNL     1      -2.330   5.046  26.147  0.00  0.00    -0.166 F 
ENDBRANCH  25  29
ENDBRANCH  22  23
BRANCH   3   2
ATOM      1  C   UNL     1       0.487   0.471  23.102  0.00  0.00    +0.000 C 
ATOM      2  C   UNL     1      -0.170   0.109  23.447  0.00  0.00    +0.002 C 
ENDBRANCH   3   2
BRANCH   8   9
ATOM      9  C   UNL     1      -0.417  -1.012  24.633  0.00  0.00    +0.087 C 
BRANCH   9  10
ATOM     10  C   UNL     1      -0.941  -1.581  24.919  0.00  0.00    +0.242 C 
ATOM     11  O   UNL     1      -0.746  -2.023  25.587  0.00  0.00    -0.273 OA
ATOM     12  N   UNL     1      -1.661  -1.707  24.536  0.00  0.00    -0.201 NA
BRANCH  12  13
ATOM     13  C   UNL     1      -2.186  -2.276  24.822  0.00  0.00    +0.141 C 
BRANCH  13  14
ATOM     14  C   UNL     1      -2.943  -2.339  24.498  0.00  0.00    -0.001 A 
ATOM     15  C   UNL     1      -3.434  -1.677  24.469  0.00  0.00    -0.003 A 
ATOM     16  C   UNL     1      -4.191  -1.739  24.145  0.00  0.00    -0.000 A 
ATOM     17  C   UNL     1      -4.456  -2.463  23.852  0.00  0.00    -0.000 A 
ATOM     18  C   UNL     1      -3.964  -3.126  23.881  0.00  0.00    -0.000 A 
ATOM     19  C   UNL     1      -3.207  -3.063  24.205  0.00  0.00    -0.003 A 
ENDBRANCH  13  14
ENDBRANCH  12  13
ENDBRANCH   9  10
ENDBRANCH   8   9
TORSDOF 7
ENDMDL
MODEL 6
REMARK VINA RESULT:     -10.6      4.731      6.594
REMARK  Name = 
REMARK  7 active torsions:
REMARK  status: ('A' for Active; 'I' for Inactive)
REMARK    1  A    between atoms: C_2  and  C_3
REMARK    2  A    between atoms: C_8  and  C_9
REMARK    3  A    between atoms: C_9  and  C_10
REMARK    4  A    between atoms: N_12  and  C_13
REMARK    5  A    between atoms: C_13  and  C_14
REMARK    6  A    between atoms: N_22  and  C_23
REMARK    7  A    between atoms: C_25  and  C_29
REMARK                            x       y       z     vdW  Elec       q    Type
REMARK                         _______ _______ _______ _____ _____    ______ ____
ROOT
ATOM      3  C   UNL     1       0.126   1.166  24.223  0.00  0.00    +0.020 C 
ATOM      4  C   UNL     1       0.882   1.047  23.913  0.00  0.00    +0.095 C 
ATOM      5  N   UNL     1       1.065   0.338  23.533  0.00  0.00    -0.263 N 
ATOM      6  C   UNL     1       0.492  -0.252  23.463  0.00  0.00    +0.095 C 
ATOM      7  C   UNL     1      -0.264  -0.133  23.772  0.00  0.00    +0.022 C 
ATOM      8  C   UNL     1      -0.447   0.576  24.152  0.00  0.00    +0.012 C 
ATOM     20  C   UNL     1       1.820   0.219  23.224  0.00  0.00    +0.327 C 
ATOM     21  O   UNL     1       2.003  -0.490  22.844  0.00  0.00    -0.250 OA
ATOM     22  N   UNL     1       2.392   0.808  23.295  0.00  0.00    -0.162 NA
ENDROOT
BRANCH  22  23
ATOM     23  C   UNL     1       3.148   0.689  22.985  0.00  0.00    +0.075 A 
ATOM     24  C   UNL     1       3.778   0.517  23.489  0.00  0.00    +0.021 A 
ATOM     25  C   UNL     1       4.534   0.398  23.180  0.00  0.00    +0.073 A 
ATOM     26  C   UNL     1       4.659   0.452  22.366  0.00  0.00    +0.004 A 
ATOM     27  C   UNL     1       4.029   0.625  21.862  0.00  0.00    +0.001 A 
ATOM     28  C   UNL     1       3.274   0.743  22.172  0.00  0.00    +0.017 A 
BRANCH  25  29
ATOM     29  C   UNL     1       5.164   0.226  23.683  0.00  0.00    +0.419 C 
ATOM     30  F   UNL     1       5.794   0.054  24.187  0.00  0.00    -0.166 F 
ATOM     31  F   UNL     1       5.039  -0.581  23.564  0.00  0.00    -0.166 F 
ATOM     32  F   UNL     1       5.289   1.033  23.803  0.00  0.00    -0.166 F 
ENDBRANCH  25  29
ENDBRANCH  22  23
BRANCH   3   2
ATOM      1  C   UNL     1       0.176   2.594  24.270  0.00  0.00    +0.000 C 
ATOM      2  C   UNL     1      -0.057   1.875  24.603  0.00  0.00    +0.002 C 
ENDBRANCH   3   2
BRANCH   8   9
ATOM      9  C   UNL     1      -1.202   0.696  24.461  0.00  0.00    +0.087 C 
BRANCH   9  10
ATOM     10  C   UNL     1      -1.568   0.098  24.896  0.00  0.00    +0.242 C 
ATOM     11  O   UNL     1      -1.264  -0.125  25.630  0.00  0.00    -0.273 OA
ATOM     12  N   UNL     1      -2.239  -0.278  24.595  0.00  0.00    -0.201 NA
BRANCH  12  13
ATOM     13  C   UNL     1      -2.605  -0.876  25.030  0.00  0.00    +0.141 C 
BRANCH  13  14
ATOM     14  C   UNL     1      -3.166  -1.363  24.669  0.00  0.00    -0.001 A 
ATOM     15  C   UNL     1      -3.811  -1.028  24.279  0.00  0.00    -0.003 A 
ATOM     16  C   UNL     1      -4.373  -1.514  23.918  0.00  0.00    -0.000 A 
ATOM     17  C   UNL     1      -4.288  -2.335  23.949  0.00  0.00    -0.000 A 
ATOM     18  C   UNL     1      -3.643  -2.669  24.340  0.00  0.00    -0.000 A 
ATOM     19  C   UNL     1      -3.082  -2.183  24.700  0.00  0.00    -0.003 A 
ENDBRANCH  13  14
ENDBRANCH  12  13
ENDBRANCH   9  10
ENDBRANCH   8   9
TORSDOF 7
ENDMDL
MODEL 7
REMARK VINA RESULT:     -10.3      3.987      5.274
REMARK  Name = 
REMARK  7 active torsions:
REMARK  status: ('A' for Active; 'I' for Inactive)
REMARK    1  A    between atoms: C_2  and  C_3
REMARK    2  A    between atoms: C_8  and  C_9
REMARK    3  A    between atoms: C_9  and  C_10
REMARK    4  A    between atoms: N_12  and  C_13
REMARK    5  A    between atoms: C_13  and  C_14
REMARK    6  A    between atoms: N_22  and  C_23
REMARK    7  A    between atoms: C_25  and  C_29
REMARK                            x       y       z     vdW  Elec       q    Type
REMARK                         _______ _______ _______ _____ _____    ______ ____
ROOT
ATOM      3  C   UNL     1      -1.106  -0.410  24.650  0.00  0.00    +0.020 C 
ATOM      4  C   UNL     1      -0.421  -0.323  24.198  0.00  0.00    +0.095 C 
ATOM      5  N   UNL     1      -0.334   0.332  23.703  0.00  0.00    -0.263 N 
ATOM      6  C   UNL     1      -0.931   0.900  23.662  0.00  0.00    +0.095 C 
ATOM      7  C   UNL     1      -1.616   0.814  24.114  0.00  0.00    +0.022 C 
ATOM      8  C   UNL     1      -1.704   0.159  24.608  0.00  0.00    +0.012 C 
ATOM     20  C   UNL     1       0.351   0.419  23.252  0.00  0.00    +0.327 C 
ATOM     21  O   UNL     1       0.438   1.074  22.758  0.00  0.00    -0.250 OA
ATOM     22  N   UNL     1       0.947  -0.149  23.293  0.00  0.00    -0.162 NA
ENDROOT
BRANCH  22  23
ATOM     23  C   UNL     1       1.632  -0.063  22.841  0.00  0.00    +0.075 A 
ATOM     24  C   UNL     1       2.311   0.261  23.179  0.00  0.00    +0.021 A 
ATOM     25  C   UNL     1       2.996   0.347  22.727  0.00  0.00    +0.073 A 
ATOM     26  C   UNL     1       3.001   0.109  21.937  0.00  0.00    +0.004 A 
ATOM     27  C   UNL     1       2.321  -0.214  21.599  0.00  0.00    +0.001 A 
ATOM     28  C   UNL     1       1.637  -0.300  22.051  0.00  0.00    +0.017 A 
BRANCH  25  29
ATOM     29  C   UNL     1       3.676   0.670  23.064  0.00  0.00    +0.419 C 
ATOM     30  F   UNL     1       4.356   0.994  23.402  0.00  0.00    -0.166 F 
ATOM     31  F   UNL     1       3.947  -0.088  23.245  0.00  0.00    -0.166 F 
ATOM     32  F   UNL     1       3.405   1.428  22.883  0.00  0.00    -0.166 F 
ENDBRANCH  25  29
ENDBRANCH  22  23
BRANCH   3   2
ATOM      1  C   UNL     1      -0.528  -1.470  25.415  0.00  0.00    +0.000 C 
ATOM      2  C   UNL     1      -1.194  -1.065  25.144  0.00  0.00    +0.002 C 
ENDBRANCH   3   2
BRANCH   8   9
ATOM      9  C   UNL     1      -2.388   0.071  25.060  0.00  0.00    +0.087 C 
BRANCH   9  10
ATOM     10  C   UNL     1      -3.122   0.268  24.738  0.00  0.00    +0.242 C 
ATOM     11  O   UNL     1      -3.421  -0.162  24.101  0.00  0.00    -0.273 OA
ATOM     12  N   UNL     1      -3.556   0.894  25.055  0.00  0.00    -0.201 NA
BRANCH  12  13
ATOM     13  C   UNL     1      -4.290   1.090  24.733  0.00  0.00    +0.141 C 
BRANCH  13  14
ATOM     14  C   UNL     1      -4.727   1.714  25.053  0.00  0.00    -0.001 A 
ATOM     15  C   UNL     1      -4.470   2.491  24.952  0.00  0.00    -0.003 A 
ATOM     16  C   UNL     1      -4.907   3.114  25.272  0.00  0.00    -0.000 A 
ATOM     17  C   UNL     1      -5.600   2.959  25.692  0.00  0.00    -0.000 A 
ATOM     18  C   UNL     1      -5.857   2.181  25.793  0.00  0.00    -0.000 A 
ATOM     19  C   UNL     1      -5.420   1.559  25.473  0.00  0.00    -0.003 A 
ENDBRANCH  13  14
ENDBRANCH  12  13
ENDBRANCH   9  10
ENDBRANCH   8   9
TORSDOF 7
ENDMDL
MODEL 8
REMARK VINA RESULT:     -10.1      3.620      4.887
REMARK  Name = 
REMARK  7 active torsions:
REMARK  status: ('A' for Active; 'I' for Inactive)
REMARK    1  A    between atoms: C_2  and  C_3
REMARK    2  A    between atoms: C_8  and  C_9
REMARK    3  A    between atoms: C_9  and  C_10
REMARK    4  A    between atoms: N_12  and  C_13
REMARK    5  A    between atoms: C_13  and  C_14
REMARK    6  A    between atoms: N_22  and  C_23
REMARK    7  A    between atoms: C_25  and  C_29
REMARK                            x       y       z     vdW  Elec       q    Type
REMARK                         _______ _______ _______ _____ _____    ______ ____
ROOT
ATOM      3  C   UNL     1      -0.838   2.594  25.346  0.00  0.00    +0.020 C 
ATOM      4  C   UNL     1      -0.336   2.131  24.881  0.00  0.00    +0.095 C 
ATOM      5  N   UNL     1      -0.567   1.907  24.121  0.00  0.00    -0.263 N 
ATOM      6  C   UNL     1      -1.299   2.147  23.826  0.00  0.00    +0.095 C 
ATOM      7  C   UNL     1      -1.801   2.610  24.289  0.00  0.00    +0.022 C 
ATOM      8  C   UNL     1      -1.571   2.833  25.049  0.00  0.00    +0.012 C 
ATOM     20  C   UNL     1      -0.066   1.445  23.658  0.00  0.00    +0.327 C 
ATOM     21  O   UNL     1      -0.296   1.222  22.898  0.00  0.00    -0.250 OA
ATOM     22  N   UNL     1       0.666   1.206  23.954  0.00  0.00    -0.162 NA
ENDROOT
BRANCH  22  23
ATOM     23  C   UNL     1       1.168   0.743  23.491  0.00  0.00    +0.075 A 
ATOM     24  C   UNL     1       1.955   0.965  23.388  0.00  0.00    +0.021 A 
ATOM     25  C   UNL     1       2.457   0.502  22.924  0.00  0.00    +0.073 A 
ATOM     26  C   UNL     1       2.171  -0.183  22.564  0.00  0.00    +0.004 A 
ATOM     27  C   UNL     1       1.383  -0.404  22.667  0.00  0.00    +0.001 A 
ATOM     28  C   UNL     1       0.881   0.059  23.130  0.00  0.00    +0.017 A 
BRANCH  25  29
ATOM     29  C   UNL     1       3.245   0.723  22.822  0.00  0.00    +0.419 C 
ATOM     30  F   UNL     1       4.034   0.945  22.718  0.00  0.00    -0.166 F 
ATOM     31  F   UNL     1       3.464  -0.071  22.784  0.00  0.00    -0.166 F 
ATOM     32  F   UNL     1       3.027   1.518  22.859  0.00  0.00    -0.166 F 
ENDBRANCH  25  29
ENDBRANCH  22  23
BRANCH   3   2
ATOM      1  C   UNL     1       0.044   2.458  26.462  0.00  0.00    +0.000 C 
ATOM      2  C   UNL     1      -0.608   2.818  26.106  0.00  0.00    +0.002 C 
ENDBRANCH   3   2
BRANCH   8   9
ATOM      9  C   UNL     1      -2.072   3.296  25.513  0.00  0.00    +0.087 C 
BRANCH   9  10
ATOM     10  C   UNL     1      -2.807   3.528  25.220  0.00  0.00    +0.242 C 
ATOM     11  O   UNL     1      -2.863   4.174  24.710  0.00  0.00    -0.273 OA
ATOM     12  N   UNL     1      -3.487   3.112  25.436  0.00  0.00    -0.201 NA
BRANCH  12  13
ATOM     13  C   UNL     1      -4.222   3.344  25.142  0.00  0.00    +0.141 C 
BRANCH  13  14
ATOM     14  C   UNL     1      -4.885   2.869  25.269  0.00  0.00    -0.001 A 
ATOM     15  C   UNL     1      -5.313   2.939  25.970  0.00  0.00    -0.003 A 
ATOM     16  C   UNL     1      -5.977   2.464  26.097  0.00  0.00    -0.000 A 
ATOM     17  C   UNL     1      -6.211   1.920  25.522  0.00  0.00    -0.000 A 
ATOM     18  C   UNL     1      -5.781   1.850  24.820  0.00  0.00    -0.000 A 
ATOM     19  C   UNL     1      -5.119   2.325  24.694  0.00  0.00    -0.003 A 
ENDBRANCH  13  14
ENDBRANCH  12  13
ENDBRANCH   9  10
ENDBRANCH   8   9
TORSDOF 7
ENDMDL
