REMARK  Name = 
REMARK  3 active torsions:
REMARK  status: ('A' for Active; 'I' for Inactive)
REMARK    1  A    between atoms: C_2  and  N_4
REMARK    2  A    between atoms: C_7  and  C_9
REMARK    3  A    between atoms: C_15  and  C_18
REMARK                            x       y       z     vdW  Elec       q    Type
REMARK                         _______ _______ _______ _____ _____    ______ ____
ROOT
ATOM      9  C   UNL     1      -0.628  -0.698   0.000  0.00  0.00    +0.140 A 
ATOM     10  N   UNL     1      -0.143  -1.365   0.000  0.00  0.00    -0.229 NA
ATOM     11  C   UNL     1       0.641  -1.110   0.000  0.00  0.00    +0.100 A 
ATOM     12  C   UNL     1       0.641  -0.285   0.000  0.00  0.00    +0.101 A 
ATOM     13  N   UNL     1      -0.143  -0.030   0.000  0.00  0.00    -0.229 NA
ATOM     14  C   UNL     1       1.356   0.127   0.000  0.00  0.00    +0.031 A 
ATOM     15  C   UNL     1       2.070  -0.285   0.000  0.00  0.00    +0.070 A 
ATOM     16  C   UNL     1       2.070  -1.110   0.000  0.00  0.00    +0.012 A 
ATOM     17  C   UNL     1       1.356  -1.523   0.000  0.00  0.00    +0.021 A 
ENDROOT
BRANCH   9   7
ATOM      4  N   UNL     1      -2.723  -1.110   0.000  0.00  0.00    -0.274 NA
ATOM      5  C   UNL     1      -2.723  -0.285   0.000  0.00  0.00    +0.073 C 
ATOM      6  C   UNL     1      -1.938  -0.030   0.000  0.00  0.00    +0.026 C 
ATOM      7  C   UNL     1      -1.453  -0.698   0.000  0.00  0.00    +0.076 C 
ATOM      8  C   UNL     1      -1.938  -1.365   0.000  0.00  0.00    +0.080 C 
BRANCH   4   2
ATOM      1  C   UNL     1      -4.144  -1.260   0.000  0.00  0.00    +0.017 C 
ATOM      2  C   UNL     1      -3.390  -1.595   0.000  0.00  0.00    +0.058 C 
ATOM      3  C   UNL     1      -3.304  -2.416   0.000  0.00  0.00    +0.017 C 
ENDBRANCH   4   2
ENDBRANCH   9   7
BRANCH  15  18
ATOM     18  C   UNL     1       2.784   0.127   0.000  0.00  0.00    +0.100 C 
ATOM     19  N   UNL     1       3.499   0.540   0.000  0.00  0.00    -0.191 NA
ENDBRANCH  15  18
TORSDOF 3
