REMARK  Name = 
REMARK  8 active torsions:
REMARK  status: ('A' for Active; 'I' for Inactive)
REMARK    1  A    between atoms: C_2  and  C_4
REMARK    2  A    between atoms: C_4  and  C_5
REMARK    3  A    between atoms: C_4  and  N_13
REMARK    4  A    between atoms: C_5  and  C_6
REMARK    5  A    between atoms: C_14  and  C_16
REMARK    6  A    between atoms: C_18  and  N_19
REMARK    7  A    between atoms: N_19  and  S_20
REMARK    8  A    between atoms: S_20  and  C_23
REMARK                            x       y       z     vdW  Elec       q    Type
REMARK                         _______ _______ _______ _____ _____    ______ ____
ROOT
ATOM     16  C   UNL     1       3.572  -2.888   0.000  0.00  0.00    +0.033 C 
ATOM     17  C   UNL     1       4.287  -2.475   0.000  0.00  0.00    -0.004 C 
ATOM     18  C   UNL     1       5.001  -2.888   0.000  0.00  0.00    +0.152 C 
ATOM     28  C   UNL     1       5.001  -3.712   0.000  0.00  0.00    +0.204 C 
ATOM     29  O   UNL     1       5.716  -4.125   0.000  0.00  0.00    -0.218 OA
ATOM     30  C   UNL     1       4.287  -4.125   0.000  0.00  0.00    +0.188 C 
ATOM     31  O   UNL     1       4.287  -4.950   0.000  0.00  0.00    -0.220 OA
ATOM     32  C   UNL     1       3.572  -3.712   0.000  0.00  0.00    +0.066 C 
ENDROOT
BRANCH  16  14
ATOM     13  N   UNL     1       2.143  -2.888   0.000  0.00  0.00    -0.194 NA
ATOM     14  C   UNL     1       2.858  -2.475   0.000  0.00  0.00    +0.261 C 
ATOM     15  O   UNL     1       2.858  -1.650   0.000  0.00  0.00    -0.269 OA
BRANCH  13   4
ATOM      4  C   UNL     1       1.429  -2.475   0.000  0.00  0.00    +0.179 C 
BRANCH   4   2
ATOM      1  N   UNL     1       2.143  -1.238   0.000  0.00  0.00    -0.086 NA
ATOM      2  C   UNL     1       1.429  -1.650   0.000  0.00  0.00    +0.281 C 
ATOM      3  O   UNL     1       0.715  -1.238   0.000  0.00  0.00    -0.270 OA
ENDBRANCH   4   2
BRANCH   4   5
ATOM      5  C   UNL     1       0.715  -2.888   0.000  0.00  0.00    +0.057 C 
BRANCH   5   6
ATOM      6  C   UNL     1       0.000  -2.475   0.000  0.00  0.00    -0.020 A 
ATOM      7  C   UNL     1      -0.715  -2.888   0.000  0.00  0.00    -0.001 A 
ATOM      8  C   UNL     1      -1.429  -2.475   0.000  0.00  0.00    +0.042 A 
ATOM      9  C   UNL     1      -1.429  -1.650   0.000  0.00  0.00    +0.196 A 
ATOM     10  O   UNL     1      -2.143  -1.238   0.000  0.00  0.00    -0.287 OA
ATOM     11  C   UNL     1      -0.715  -1.238   0.000  0.00  0.00    +0.042 A 
ATOM     12  C   UNL     1       0.000  -1.650   0.000  0.00  0.00    -0.001 A 
ENDBRANCH   5   6
ENDBRANCH   4   5
ENDBRANCH  13   4
ENDBRANCH  16  14
BRANCH  18  19
ATOM     19  N   UNL     1       5.716  -2.475   0.000  0.00  0.00    -0.072 NA
BRANCH  19  20
ATOM     20  S   UNL     1       6.430  -2.888   0.000  0.00  0.00    +0.083 S 
ATOM     21  O   UNL     1       6.018  -3.602   0.000  0.00  0.00    -0.151 OA
ATOM     22  O   UNL     1       6.843  -2.173   0.000  0.00  0.00    -0.151 OA
BRANCH  20  23
ATOM     23  C   UNL     1       7.145  -3.300   0.000  0.00  0.00    +0.153 A 
ATOM     24  C   UNL     1       7.898  -2.964   0.000  0.00  0.00    +0.027 A 
ATOM     25  C   UNL     1       8.450  -3.578   0.000  0.00  0.00    +0.009 A 
ATOM     26  C   UNL     1       8.038  -4.292   0.000  0.00  0.00    +0.037 A 
ATOM     27  S   UNL     1       7.231  -4.120   0.000  0.00  0.00    -0.067 S 
ENDBRANCH  20  23
ENDBRANCH  19  20
ENDBRANCH  18  19
TORSDOF 8
