MODEL 1
REMARK VINA RESULT:     -11.7      0.000      0.000
REMARK  Name = 
REMARK  6 active torsions:
REMARK  status: ('A' for Active; 'I' for Inactive)
REMARK    1  A    between atoms: C_5  and  C_8
REMARK    2  A    between atoms: N_10  and  C_11
REMARK    3  A    between atoms: C_11  and  C_12
REMARK    4  A    between atoms: C_14  and  C_15
REMARK    5  A    between atoms: C_15  and  C_16
REMARK    6  A    between atoms: N_18  and  C_19
REMARK                            x       y       z     vdW  Elec       q    Type
REMARK                         _______ _______ _______ _____ _____    ______ ____
ROOT
ATOM     12  C   UNL     1      -4.533   2.041  24.766  0.00  0.00    +0.170 C 
ATOM     13  O   UNL     1      -3.902   2.516  25.004  0.00  0.00    -0.351 OA
ATOM     14  C   UNL     1      -4.200   3.110  25.493  0.00  0.00    +0.157 C 
ATOM     22  C   UNL     1      -5.016   3.001  25.557  0.00  0.00    +0.212 C 
ATOM     23  O   UNL     1      -5.535   3.470  25.994  0.00  0.00    -0.218 OA
ATOM     24  C   UNL     1      -5.221   2.340  25.108  0.00  0.00    +0.213 C 
ATOM     25  O   UNL     1      -5.982   2.033  25.016  0.00  0.00    -0.218 OA
ENDROOT
BRANCH  12  11
ATOM     11  C   UNL     1      -4.484   1.381  24.272  0.00  0.00    +0.148 C 
BRANCH  11  10
ATOM      8  C   UNL     1      -3.992   0.050  24.105  0.00  0.00    +0.265 C 
ATOM      9  O   UNL     1      -3.867   0.197  23.302  0.00  0.00    -0.268 OA
ATOM     10  N   UNL     1      -4.300   0.642  24.590  0.00  0.00    -0.199 NA
BRANCH   8   5
ATOM      1  C   UNL     1      -3.260  -2.907  25.374  0.00  0.00    +0.031 C 
ATOM      2  C   UNL     1      -3.443  -2.168  25.057  0.00  0.00    -0.022 A 
ATOM      3  C   UNL     1      -3.875  -2.115  24.356  0.00  0.00    -0.004 A 
ATOM      4  C   UNL     1      -4.058  -1.376  24.038  0.00  0.00    +0.004 A 
ATOM      5  C   UNL     1      -3.809  -0.689  24.422  0.00  0.00    +0.055 A 
ATOM      6  C   UNL     1      -3.377  -0.742  25.123  0.00  0.00    +0.004 A 
ATOM      7  C   UNL     1      -3.194  -1.481  25.440  0.00  0.00    -0.004 A 
ENDBRANCH   8   5
ENDBRANCH  11  10
ENDBRANCH  12  11
BRANCH  14  15
ATOM     15  C   UNL     1      -3.761   3.707  25.854  0.00  0.00    +0.119 C 
BRANCH  15  16
ATOM     16  C   UNL     1      -3.115   4.038  25.463  0.00  0.00    +0.244 C 
ATOM     17  O   UNL     1      -3.203   4.337  24.699  0.00  0.00    -0.273 OA
ATOM     18  N   UNL     1      -2.379   4.069  25.834  0.00  0.00    -0.207 NA
BRANCH  18  19
ATOM     19  C   UNL     1      -1.732   4.400  25.442  0.00  0.00    +0.095 C 
ATOM     20  C   UNL     1      -1.355   5.057  25.116  0.00  0.00    +0.023 C 
ATOM     21  C   UNL     1      -0.991   4.317  25.091  0.00  0.00    +0.023 C 
ENDBRANCH  18  19
ENDBRANCH  15  16
ENDBRANCH  14  15
TORSDOF 6
ENDMDL
MODEL 2
REMARK VINA RESULT:     -11.4      1.483      2.005
REMARK  Name = 
REMARK  6 active torsions:
REMARK  status: ('A' for Active; 'I' for Inactive)
REMARK    1  A    between atoms: C_5  and  C_8
REMARK    2  A    between atoms: N_10  and  C_11
REMARK    3  A    between atoms: C_11  and  C_12
REMARK    4  A    between atoms: C_14  and  C_15
REMARK    5  A    between atoms: C_15  and  C_16
REMARK    6  A    between atoms: N_18  and  C_19
REMARK                            x       y       z     vdW  Elec       q    Type
REMARK                         _______ _______ _______ _____ _____    ______ ____
ROOT
ATOM     12  C   UNL     1      -3.628   2.487  25.146  0.00  0.00    +0.170 C 
ATOM     13  O   UNL     1      -2.813   2.441  25.031  0.00  0.00    -0.351 OA
ATOM     14  C   UNL     1      -2.484   3.169  25.237  0.00  0.00    +0.157 C 
ATOM     22  C   UNL     1      -3.098   3.665  25.479  0.00  0.00    +0.212 C 
ATOM     23  O   UNL     1      -3.019   4.446  25.733  0.00  0.00    -0.218 OA
ATOM     24  C   UNL     1      -3.804   3.243  25.423  0.00  0.00    +0.213 C 
ATOM     25  O   UNL     1      -4.556   3.528  25.610  0.00  0.00    -0.218 OA
ENDROOT
BRANCH  12  11
ATOM     11  C   UNL     1      -4.172   1.882  25.008  0.00  0.00    +0.148 C 
BRANCH  11  10
ATOM      8  C   UNL     1      -4.458   0.492  24.836  0.00  0.00    +0.265 C 
ATOM      9  O   UNL     1      -5.264   0.664  24.789  0.00  0.00    -0.268 OA
ATOM     10  N   UNL     1      -3.911   1.101  24.946  0.00  0.00    -0.199 NA
BRANCH   8   5
ATOM      1  C   UNL     1      -3.417  -2.630  24.590  0.00  0.00    +0.031 C 
ATOM      2  C   UNL     1      -3.677  -1.850  24.652  0.00  0.00    -0.022 A 
ATOM      3  C   UNL     1      -3.574  -1.435  25.357  0.00  0.00    -0.004 A 
ATOM      4  C   UNL     1      -3.835  -0.654  25.419  0.00  0.00    +0.004 A 
ATOM      5  C   UNL     1      -4.197  -0.289  24.775  0.00  0.00    +0.055 A 
ATOM      6  C   UNL     1      -4.300  -0.704  24.069  0.00  0.00    +0.004 A 
ATOM      7  C   UNL     1      -4.040  -1.484  24.008  0.00  0.00    -0.004 A 
ENDBRANCH   8   5
ENDBRANCH  11  10
ENDBRANCH  12  11
BRANCH  14  15
ATOM     15  C   UNL     1      -1.684   3.367  25.207  0.00  0.00    +0.119 C 
BRANCH  15  16
ATOM     16  C   UNL     1      -1.161   2.899  24.774  0.00  0.00    +0.244 C 
ATOM     17  O   UNL     1      -1.177   2.916  23.949  0.00  0.00    -0.273 OA
ATOM     18  N   UNL     1      -0.619   2.415  25.164  0.00  0.00    -0.207 NA
BRANCH  18  19
ATOM     19  C   UNL     1      -0.095   1.948  24.731  0.00  0.00    +0.095 C 
ATOM     20  C   UNL     1       0.118   1.214  24.421  0.00  0.00    +0.023 C 
ATOM     21  C   UNL     1       0.598   1.872  24.291  0.00  0.00    +0.023 C 
ENDBRANCH  18  19
ENDBRANCH  15  16
ENDBRANCH  14  15
TORSDOF 6
ENDMDL
MODEL 3
REMARK VINA RESULT:     -11.4      1.917      3.062
REMARK  Name = 
REMARK  6 active torsions:
REMARK  status: ('A' for Active; 'I' for Inactive)
REMARK    1  A    between atoms: C_5  and  C_8
REMARK    2  A    between atoms: N_10  and  C_11
REMARK    3  A    between atoms: C_11  and  C_12
REMARK    4  A    between atoms: C_14  and  C_15
REMARK    5  A    between atoms: C_15  and  C_16
REMARK    6  A    between atoms: N_18  and  C_19
REMARK                            x       y       z     vdW  Elec       q    Type
REMARK                         _______ _______ _______ _____ _____    ______ ____
ROOT
ATOM     12  C   UNL     1      -1.327   1.651  25.224  0.00  0.00    +0.170 C 
ATOM     13  O   UNL     1      -2.051   2.034  25.127  0.00  0.00    -0.351 OA
ATOM     14  C   UNL     1      -1.900   2.804  24.872  0.00  0.00    +0.157 C 
ATOM     22  C   UNL     1      -1.083   2.896  24.811  0.00  0.00    +0.212 C 
ATOM     23  O   UNL     1      -0.688   3.581  24.575  0.00  0.00    -0.218 OA
ATOM     24  C   UNL     1      -0.729   2.183  25.029  0.00  0.00    +0.213 C 
ATOM     25  O   UNL     1       0.082   2.030  25.048  0.00  0.00    -0.218 OA
ENDROOT
BRANCH  12  11
ATOM     11  C   UNL     1      -1.221   0.871  25.472  0.00  0.00    +0.148 C 
BRANCH  11  10
ATOM      8  C   UNL     1      -1.715  -0.467  25.551  0.00  0.00    +0.265 C 
ATOM      9  O   UNL     1      -1.190  -0.625  26.169  0.00  0.00    -0.268 OA
ATOM     10  N   UNL     1      -1.731   0.280  25.203  0.00  0.00    -0.199 NA
BRANCH   8   5
ATOM      1  C   UNL     1      -3.754  -2.829  24.476  0.00  0.00    +0.031 C 
ATOM      2  C   UNL     1      -3.244  -2.239  24.745  0.00  0.00    -0.022 A 
ATOM      3  C   UNL     1      -3.514  -1.674  25.281  0.00  0.00    -0.004 A 
ATOM      4  C   UNL     1      -3.005  -1.083  25.550  0.00  0.00    +0.004 A 
ATOM      5  C   UNL     1      -2.225  -1.058  25.282  0.00  0.00    +0.055 A 
ATOM      6  C   UNL     1      -1.955  -1.624  24.746  0.00  0.00    +0.004 A 
ATOM      7  C   UNL     1      -2.464  -2.214  24.477  0.00  0.00    -0.004 A 
ENDBRANCH   8   5
ENDBRANCH  11  10
ENDBRANCH  12  11
BRANCH  14  15
ATOM     15  C   UNL     1      -2.467   3.380  24.706  0.00  0.00    +0.119 C 
BRANCH  15  16
ATOM     16  C   UNL     1      -3.184   3.382  25.114  0.00  0.00    +0.244 C 
ATOM     17  O   UNL     1      -3.201   3.555  25.920  0.00  0.00    -0.273 OA
ATOM     18  N   UNL     1      -3.886   3.211  24.715  0.00  0.00    -0.207 NA
BRANCH  18  19
ATOM     19  C   UNL     1      -4.603   3.212  25.123  0.00  0.00    +0.095 C 
ATOM     20  C   UNL     1      -5.250   2.804  25.431  0.00  0.00    +0.023 C 
ATOM     21  C   UNL     1      -5.198   3.622  25.519  0.00  0.00    +0.023 C 
ENDBRANCH  18  19
ENDBRANCH  15  16
ENDBRANCH  14  15
TORSDOF 6
ENDMDL
MODEL 4
REMARK VINA RESULT:     -11.2      0.909      4.748
REMARK  Name = 
REMARK  6 active torsions:
REMARK  status: ('A' for Active; 'I' for Inactive)
REMARK    1  A    between atoms: C_5  and  C_8
REMARK    2  A    between atoms: N_10  and  C_11
REMARK    3  A    between atoms: C_11  and  C_12
REMARK    4  A    between atoms: C_14  and  C_15
REMARK    5  A    between atoms: C_15  and  C_16
REMARK    6  A    between atoms: N_18  and  C_19
REMARK                            x       y       z     vdW  Elec       q    Type
REMARK                         _______ _______ _______ _____ _____    ______ ____
ROOT
ATOM     12  C   UNL     1      -4.682   2.744  25.554  0.00  0.00    +0.170 C 
ATOM     13  O   UNL     1      -4.398   2.034  25.244  0.00  0.00    -0.351 OA
ATOM     14  C   UNL     1      -5.044   1.593  24.981  0.00  0.00    +0.157 C 
ATOM     22  C   UNL     1      -5.727   2.032  25.129  0.00  0.00    +0.212 C 
ATOM     23  O   UNL     1      -6.500   1.801  24.953  0.00  0.00    -0.218 OA
ATOM     24  C   UNL     1      -5.503   2.743  25.482  0.00  0.00    +0.213 C 
ATOM     25  O   UNL     1      -6.011   3.347  25.723  0.00  0.00    -0.218 OA
ENDROOT
BRANCH  12  11
ATOM     11  C   UNL     1      -4.223   3.348  25.878  0.00  0.00    +0.148 C 
BRANCH  11  10
ATOM      8  C   UNL     1      -2.958   4.010  25.950  0.00  0.00    +0.265 C 
ATOM      9  O   UNL     1      -3.139   4.274  26.710  0.00  0.00    -0.268 OA
ATOM     10  N   UNL     1      -3.500   3.547  25.533  0.00  0.00    -0.199 NA
BRANCH   8   5
ATOM      1  C   UNL     1      -0.068   4.805  24.571  0.00  0.00    +0.031 C 
ATOM      2  C   UNL     1      -0.790   4.606  24.915  0.00  0.00    -0.022 A 
ATOM      3  C   UNL     1      -1.395   5.165  24.955  0.00  0.00    -0.004 A 
ATOM      4  C   UNL     1      -2.119   4.966  25.300  0.00  0.00    +0.004 A 
ATOM      5  C   UNL     1      -2.235   4.208  25.605  0.00  0.00    +0.055 A 
ATOM      6  C   UNL     1      -1.630   3.650  25.565  0.00  0.00    +0.004 A 
ATOM      7  C   UNL     1      -0.907   3.848  25.220  0.00  0.00    -0.004 A 
ENDBRANCH   8   5
ENDBRANCH  11  10
ENDBRANCH  12  11
BRANCH  14  15
ATOM     15  C   UNL     1      -5.013   0.847  24.632  0.00  0.00    +0.119 C 
BRANCH  15  16
ATOM     16  C   UNL     1      -4.343   0.375  24.728  0.00  0.00    +0.244 C 
ATOM     17  O   UNL     1      -3.653   0.549  24.312  0.00  0.00    -0.273 OA
ATOM     18  N   UNL     1      -4.363  -0.272  25.240  0.00  0.00    -0.207 NA
BRANCH  18  19
ATOM     19  C   UNL     1      -3.694  -0.744  25.335  0.00  0.00    +0.095 C 
ATOM     20  C   UNL     1      -3.208  -1.356  25.071  0.00  0.00    +0.023 C 
ATOM     21  C   UNL     1      -3.020  -0.950  25.764  0.00  0.00    +0.023 C 
ENDBRANCH  18  19
ENDBRANCH  15  16
ENDBRANCH  14  15
TORSDOF 6
ENDMDL
MODEL 5
REMARK VINA RESULT:     -11.1      1.826      5.116
REMARK  Name = 
REMARK  6 active torsions:
REMARK  status: ('A' for Active; 'I' for Inactive)
REMARK    1  A    between atoms: C_5  and  C_8
REMARK    2  A    between atoms: N_10  and  C_11
REMARK    3  A    between atoms: C_11  and  C_12
REMARK    4  A    between atoms: C_14  and  C_15
REMARK    5  A    between atoms: C_15  and  C_16
REMARK    6  A    between atoms: N_18  and  C_19
REMARK                            x       y       z     vdW  Elec       q    Type
REMARK                         _______ _______ _______ _____ _____    ______ ____
ROOT
ATOM     12  C   UNL     1      -1.647   0.335  25.335  0.00  0.00    +0.170 C 
ATOM     13  O   UNL     1      -2.452   0.466  25.212  0.00  0.00    -0.351 OA
ATOM     14  C   UNL     1      -2.819  -0.268  25.118  0.00  0.00    +0.157 C 
ATOM     22  C   UNL     1      -2.239  -0.852  25.183  0.00  0.00    +0.212 C 
ATOM     23  O   UNL     1      -2.362  -1.665  25.125  0.00  0.00    -0.218 OA
ATOM     24  C   UNL     1      -1.516  -0.479  25.317  0.00  0.00    +0.213 C 
ATOM     25  O   UNL     1      -0.787  -0.855  25.416  0.00  0.00    -0.218 OA
ENDROOT
BRANCH  12  11
ATOM     11  C   UNL     1      -1.074   0.916  25.454  0.00  0.00    +0.148 C 
BRANCH  11  10
ATOM      8  C   UNL     1      -0.752   2.302  25.586  0.00  0.00    +0.265 C 
ATOM      9  O   UNL     1      -0.062   2.103  25.994  0.00  0.00    -0.268 OA
ATOM     10  N   UNL     1      -1.258   1.709  25.315  0.00  0.00    -0.199 NA
BRANCH   8   5
ATOM      1  C   UNL     1      -1.486   5.472  25.032  0.00  0.00    +0.031 C 
ATOM      2  C   UNL     1      -1.303   4.680  25.171  0.00  0.00    -0.022 A 
ATOM      3  C   UNL     1      -1.783   4.225  25.663  0.00  0.00    -0.004 A 
ATOM      4  C   UNL     1      -1.600   3.432  25.801  0.00  0.00    +0.004 A 
ATOM      5  C   UNL     1      -0.935   3.095  25.447  0.00  0.00    +0.055 A 
ATOM      6  C   UNL     1      -0.454   3.550  24.955  0.00  0.00    +0.004 A 
ATOM      7  C   UNL     1      -0.638   4.342  24.817  0.00  0.00    -0.004 A 
ENDBRANCH   8   5
ENDBRANCH  11  10
ENDBRANCH  12  11
BRANCH  14  15
ATOM     15  C   UNL     1      -3.622  -0.395  24.983  0.00  0.00    +0.119 C 
BRANCH  15  16
ATOM     16  C   UNL     1      -4.106   0.233  24.757  0.00  0.00    +0.244 C 
ATOM     17  O   UNL     1      -4.100   0.499  23.976  0.00  0.00    -0.273 OA
ATOM     18  N   UNL     1      -4.598   0.597  25.311  0.00  0.00    -0.207 NA
BRANCH  18  19
ATOM     19  C   UNL     1      -5.082   1.225  25.085  0.00  0.00    +0.095 C 
ATOM     20  C   UNL     1      -5.825   1.513  24.873  0.00  0.00    +0.023 C 
ATOM     21  C   UNL     1      -5.178   2.024  24.905  0.00  0.00    +0.023 C 
ENDBRANCH  18  19
ENDBRANCH  15  16
ENDBRANCH  14  15
TORSDOF 6
ENDMDL
MODEL 6
REMARK VINA RESULT:     -11.0      2.270      5.313
REMARK  Name = 
REMARK  6 active torsions:
REMARK  status: ('A' for Active; 'I' for Inactive)
REMARK    1  A    between atoms: C_5  and  C_8
REMARK    2  A    between atoms: N_10  and  C_11
REMARK    3  A    between atoms: C_11  and  C_12
REMARK    4  A    between atoms: C_14  and  C_15
REMARK    5  A    between atoms: C_15  and  C_16
REMARK    6  A    between atoms: N_18  and  C_19
REMARK                            x       y       z     vdW  Elec       q    Type
REMARK                         _______ _______ _______ _____ _____    ______ ____
ROOT
ATOM     12  C   UNL     1      -1.266   0.743  24.142  0.00  0.00    +0.170 C 
ATOM     13  O   UNL     1      -1.646   0.087  24.466  0.00  0.00    -0.351 OA
ATOM     14  C   UNL     1      -1.091  -0.521  24.534  0.00  0.00    +0.157 C 
ATOM     22  C   UNL     1      -0.370  -0.239  24.252  0.00  0.00    +0.212 C 
ATOM     23  O   UNL     1       0.337  -0.663  24.218  0.00  0.00    -0.218 OA
ATOM     24  C   UNL     1      -0.478   0.543  24.009  0.00  0.00    +0.213 C 
ATOM     25  O   UNL     1       0.101   1.037  23.691  0.00  0.00    -0.218 OA
ENDROOT
BRANCH  12  11
ATOM     11  C   UNL     1      -1.615   1.473  23.979  0.00  0.00    +0.148 C 
BRANCH  11  10
ATOM      8  C   UNL     1      -2.715   2.374  24.126  0.00  0.00    +0.265 C 
ATOM      9  O   UNL     1      -2.400   2.856  23.534  0.00  0.00    -0.268 OA
ATOM     10  N   UNL     1      -2.323   1.683  24.349  0.00  0.00    -0.199 NA
BRANCH   8   5
ATOM      1  C   UNL     1      -5.542   3.214  25.607  0.00  0.00    +0.031 C 
ATOM      2  C   UNL     1      -4.835   3.005  25.237  0.00  0.00    -0.022 A 
ATOM      3  C   UNL     1      -4.125   3.344  25.482  0.00  0.00    -0.004 A 
ATOM      4  C   UNL     1      -3.417   3.134  25.112  0.00  0.00    +0.004 A 
ATOM      5  C   UNL     1      -3.422   2.584  24.497  0.00  0.00    +0.055 A 
ATOM      6  C   UNL     1      -4.133   2.245  24.252  0.00  0.00    +0.004 A 
ATOM      7  C   UNL     1      -4.839   2.455  24.621  0.00  0.00    -0.004 A 
ENDBRANCH   8   5
ENDBRANCH  11  10
ENDBRANCH  12  11
BRANCH  14  15
ATOM     15  C   UNL     1      -1.234  -1.276  24.832  0.00  0.00    +0.119 C 
BRANCH  15  16
ATOM     16  C   UNL     1      -2.008  -1.554  24.900  0.00  0.00    +0.244 C 
ATOM     17  O   UNL     1      -2.489  -1.288  25.515  0.00  0.00    -0.273 OA
ATOM     18  N   UNL     1      -2.302  -2.096  24.353  0.00  0.00    -0.207 NA
BRANCH  18  19
ATOM     19  C   UNL     1      -3.076  -2.374  24.420  0.00  0.00    +0.095 C 
ATOM     20  C   UNL     1      -3.628  -2.870  24.780  0.00  0.00    +0.023 C 
ATOM     21  C   UNL     1      -3.864  -2.357  24.179  0.00  0.00    +0.023 C 
ENDBRANCH  18  19
ENDBRANCH  15  16
ENDBRANCH  14  15
TORSDOF 6
ENDMDL
