MODEL 1
REMARK VINA RESULT:     -11.5      0.000      0.000
REMARK  Name = 
REMARK  7 active torsions:
REMARK  status: ('A' for Active; 'I' for Inactive)
REMARK    1  A    between atoms: C_2  and  C_4
REMARK    2  A    between atoms: C_6  and  C_7
REMARK    3  A    between atoms: C_7  and  C_8
REMARK    4  A    between atoms: N_10  and  C_11
REMARK    5  A    between atoms: C_19  and  C_20
REMARK    6  A    between atoms: C_20  and  N_21
REMARK    7  A    between atoms: C_22  and  C_24
REMARK                            x       y       z     vdW  Elec       q    Type
REMARK                         _______ _______ _______ _____ _____    ______ ____
ROOT
ATOM      4  C   UNL     1      -2.068   1.212  24.864  0.00  0.00    +0.006 C 
ATOM      5  C   UNL     1      -2.703   0.700  24.741  0.00  0.00    +0.005 C 
ATOM      6  C   UNL     1      -3.469   0.999  24.686  0.00  0.00    +0.027 C 
ATOM     16  C   UNL     1      -3.601   1.812  24.753  0.00  0.00    -0.048 C 
ATOM     17  C   UNL     1      -4.367   2.111  24.698  0.00  0.00    +0.026 C 
ATOM     18  C   UNL     1      -2.966   2.323  24.876  0.00  0.00    -0.033 C 
ATOM     19  C   UNL     1      -2.199   2.023  24.931  0.00  0.00    +0.043 C 
ENDROOT
BRANCH   4   2
ATOM      1  C   UNL     1      -0.824   0.872  24.248  0.00  0.00    +0.000 C 
ATOM      2  C   UNL     1      -1.300   0.912  24.919  0.00  0.00    +0.000 C 
ATOM      3  C   UNL     1      -1.011   0.653  25.648  0.00  0.00    +0.000 C 
ENDBRANCH   4   2
BRANCH   6   7
ATOM      7  C   UNL     1      -4.105   0.487  24.563  0.00  0.00    +0.091 C 
BRANCH   7   8
ATOM      8  C   UNL     1      -3.969  -0.284  24.307  0.00  0.00    +0.242 C 
ATOM      9  O   UNL     1      -3.686  -0.422  23.544  0.00  0.00    -0.273 OA
ATOM     10  N   UNL     1      -4.117  -0.919  24.812  0.00  0.00    -0.207 NA
BRANCH  10  11
ATOM     11  C   UNL     1      -3.981  -1.692  24.556  0.00  0.00    +0.095 C 
ATOM     12  C   UNL     1      -4.344  -2.061  23.914  0.00  0.00    +0.022 C 
ATOM     13  C   UNL     1      -4.046  -2.827  23.858  0.00  0.00    +0.002 C 
ATOM     14  C   UNL     1      -3.497  -2.932  24.465  0.00  0.00    +0.002 C 
ATOM     15  C   UNL     1      -3.456  -2.231  24.896  0.00  0.00    +0.022 C 
ENDBRANCH  10  11
ENDBRANCH   7   8
ENDBRANCH   6   7
BRANCH  19  20
ATOM     20  C   UNL     1      -1.565   2.535  25.054  0.00  0.00    +0.119 C 
BRANCH  20  21
ATOM     21  N   UNL     1      -1.658   3.346  24.928  0.00  0.00    -0.205 NA
ATOM     22  C   UNL     1      -1.085   3.874  25.199  0.00  0.00    +0.241 C 
ATOM     23  O   UNL     1      -0.419   3.593  25.596  0.00  0.00    -0.273 OA
BRANCH  22  24
ATOM     24  C   UNL     1      -1.178   4.684  25.073  0.00  0.00    +0.078 C 
ATOM     25  C   UNL     1      -1.609   5.378  25.182  0.00  0.00    +0.010 C 
ATOM     26  C   UNL     1      -0.908   5.392  24.747  0.00  0.00    +0.010 C 
ENDBRANCH  22  24
ENDBRANCH  20  21
ENDBRANCH  19  20
TORSDOF 7
ENDMDL
MODEL 2
REMARK VINA RESULT:     -11.2      0.689      5.451
REMARK  Name = 
REMARK  7 active torsions:
REMARK  status: ('A' for Active; 'I' for Inactive)
REMARK    1  A    between atoms: C_2  and  C_4
REMARK    2  A    between atoms: C_6  and  C_7
REMARK    3  A    between atoms: C_7  and  C_8
REMARK    4  A    between atoms: N_10  and  C_11
REMARK    5  A    between atoms: C_19  and  C_20
REMARK    6  A    between atoms: C_20  and  N_21
REMARK    7  A    between atoms: C_22  and  C_24
REMARK                            x       y       z     vdW  Elec       q    Type
REMARK                         _______ _______ _______ _____ _____    ______ ____
ROOT
ATOM      4  C   UNL     1      -3.088   1.220  24.773  0.00  0.00    +0.006 C 
ATOM      5  C   UNL     1      -2.502   1.753  25.001  0.00  0.00    +0.005 C 
ATOM      6  C   UNL     1      -1.739   1.483  25.163  0.00  0.00    +0.027 C 
ATOM     16  C   UNL     1      -1.563   0.679  25.096  0.00  0.00    -0.048 C 
ATOM     17  C   UNL     1      -0.802   0.409  25.258  0.00  0.00    +0.026 C 
ATOM     18  C   UNL     1      -2.150   0.147  24.868  0.00  0.00    -0.033 C 
ATOM     19  C   UNL     1      -2.913   0.417  24.706  0.00  0.00    +0.043 C 
ENDROOT
BRANCH   4   2
ATOM      1  C   UNL     1      -4.416   1.515  25.211  0.00  0.00    +0.000 C 
ATOM      2  C   UNL     1      -3.852   1.490  24.611  0.00  0.00    +0.000 C 
ATOM      3  C   UNL     1      -4.049   1.735  23.848  0.00  0.00    +0.000 C 
ENDBRANCH   4   2
BRANCH   6   7
ATOM      7  C   UNL     1      -1.152   2.017  25.392  0.00  0.00    +0.091 C 
BRANCH   7   8
ATOM      8  C   UNL     1      -1.165   2.790  25.108  0.00  0.00    +0.242 C 
ATOM      9  O   UNL     1      -1.107   2.934  24.297  0.00  0.00    -0.273 OA
ATOM     10  N   UNL     1      -1.235   3.422  25.634  0.00  0.00    -0.207 NA
BRANCH  10  11
ATOM     11  C   UNL     1      -1.248   4.196  25.350  0.00  0.00    +0.095 C 
ATOM     12  C   UNL     1      -0.629   4.583  24.967  0.00  0.00    +0.022 C 
ATOM     13  C   UNL     1      -0.880   5.345  24.780  0.00  0.00    +0.002 C 
ATOM     14  C   UNL     1      -1.656   5.430  25.048  0.00  0.00    +0.002 C 
ATOM     15  C   UNL     1      -1.884   4.721  25.400  0.00  0.00    +0.022 C 
ENDBRANCH  10  11
ENDBRANCH   7   8
ENDBRANCH   6   7
BRANCH  19  20
ATOM     20  C   UNL     1      -3.499  -0.116  24.478  0.00  0.00    +0.119 C 
BRANCH  20  21
ATOM     21  N   UNL     1      -3.363  -0.929  24.536  0.00  0.00    -0.205 NA
ATOM     22  C   UNL     1      -3.929  -1.462  24.257  0.00  0.00    +0.241 C 
ATOM     23  O   UNL     1      -4.628  -1.183  23.921  0.00  0.00    -0.273 OA
BRANCH  22  24
ATOM     24  C   UNL     1      -3.793  -2.273  24.316  0.00  0.00    +0.078 C 
ATOM     25  C   UNL     1      -3.505  -2.921  24.737  0.00  0.00    +0.010 C 
ATOM     26  C   UNL     1      -3.847  -3.031  23.994  0.00  0.00    +0.010 C 
ENDBRANCH  22  24
ENDBRANCH  20  21
ENDBRANCH  19  20
TORSDOF 7
ENDMDL
