REMARK  Name = 
REMARK  9 active torsions:
REMARK  status: ('A' for Active; 'I' for Inactive)
REMARK    1  A    between atoms: C_2  and  C_4
REMARK    2  A    between atoms: N_8  and  C_9
REMARK    3  A    between atoms: C_9  and  C_10
REMARK    4  A    between atoms: C_10  and  C_11
REMARK    5  A    between atoms: C_16  and  C_17
REMARK    6  A    between atoms: C_17  and  C_18
REMARK    7  A    between atoms: C_21  and  C_23
REMARK    8  A    between atoms: C_23  and  O_24
REMARK    9  A    between atoms: O_24  and  C_25
REMARK                            x       y       z     vdW  Elec       q    Type
REMARK                         _______ _______ _______ _____ _____    ______ ____
ROOT
ATOM     11  C   UNL     1       0.723  -6.715   0.000  0.00  0.00    +0.022 C 
ATOM     12  C   UNL     1       0.110  -7.267   0.000  0.00  0.00    +0.094 C 
ATOM     13  N   UNL     1      -0.675  -7.012   0.000  0.00  0.00    -0.277 N 
ATOM     14  C   UNL     1      -0.847  -6.205   0.000  0.00  0.00    +0.094 C 
ATOM     15  C   UNL     1      -0.234  -5.653   0.000  0.00  0.00    +0.022 C 
ATOM     16  C   UNL     1       0.551  -5.908   0.000  0.00  0.00    +0.015 C 
ATOM     21  C   UNL     1      -1.288  -7.564   0.000  0.00  0.00    +0.270 C 
ATOM     22  O   UNL     1      -1.117  -8.371   0.000  0.00  0.00    -0.271 OA
ENDROOT
BRANCH  11  10
ATOM     10  C   UNL     1       1.507  -6.970   0.000  0.00  0.00    +0.019 C 
BRANCH  10   9
ATOM      9  C   UNL     1       2.120  -6.418   0.000  0.00  0.00    +0.073 C 
BRANCH   9   8
ATOM      4  C   UNL     1       3.572  -6.188   0.000  0.00  0.00    +0.138 C 
ATOM      5  C   UNL     1       4.240  -6.672   0.000  0.00  0.00    +0.027 C 
ATOM      6  C   UNL     1       3.985  -7.457   0.000  0.00  0.00    +0.019 C 
ATOM      7  C   UNL     1       3.160  -7.457   0.000  0.00  0.00    +0.073 C 
ATOM      8  N   UNL     1       2.905  -6.672   0.000  0.00  0.00    -0.266 NA
BRANCH   4   2
ATOM      1  N   UNL     1       4.287  -4.950   0.000  0.00  0.00    -0.087 NA
ATOM      2  C   UNL     1       3.572  -5.362   0.000  0.00  0.00    +0.275 C 
ATOM      3  O   UNL     1       2.858  -4.950   0.000  0.00  0.00    -0.270 OA
ENDBRANCH   4   2
ENDBRANCH   9   8
ENDBRANCH  10   9
ENDBRANCH  11  10
BRANCH  16  17
ATOM     17  C   UNL     1       1.164  -5.356   0.000  0.00  0.00    +0.114 C 
BRANCH  17  18
ATOM     18  C   UNL     1       0.993  -4.549   0.000  0.00  0.00    +0.365 C 
ATOM     19  O   UNL     1       0.208  -4.294   0.000  0.00  0.00    -0.246 OA
ATOM     20  O   UNL     1       1.606  -3.997   0.000  0.00  0.00    -0.246 OA
ENDBRANCH  17  18
ENDBRANCH  16  17
BRANCH  21  23
ATOM     23  C   UNL     1      -2.073  -7.309   0.000  0.00  0.00    +0.290 C 
BRANCH  23  24
ATOM     24  O   UNL     1      -2.686  -7.861   0.000  0.00  0.00    -0.466 OA
BRANCH  24  25
ATOM     25  C   UNL     1      -3.471  -7.606   0.000  0.00  0.00    +0.139 A 
ATOM     26  C   UNL     1      -4.084  -8.158   0.000  0.00  0.00    +0.037 A 
ATOM     27  C   UNL     1      -4.868  -7.903   0.000  0.00  0.00    +0.003 A 
ATOM     28  C   UNL     1      -5.040  -7.096   0.000  0.00  0.00    +0.000 A 
ATOM     29  C   UNL     1      -4.427  -6.544   0.000  0.00  0.00    +0.003 A 
ATOM     30  C   UNL     1      -3.642  -6.799   0.000  0.00  0.00    +0.037 A 
ENDBRANCH  24  25
ENDBRANCH  23  24
ENDBRANCH  21  23
TORSDOF 9
