MODEL 1
REMARK VINA RESULT:     -13.3      0.000      0.000
REMARK  Name = 
REMARK  4 active torsions:
REMARK  status: ('A' for Active; 'I' for Inactive)
REMARK    1  A    between atoms: C_2  and  C_3
REMARK    2  A    between atoms: C_2  and  C_25
REMARK    3  A    between atoms: C_10  and  N_11
REMARK    4  A    between atoms: C_12  and  C_14
REMARK                            x       y       z     vdW  Elec       q    Type
REMARK                         _______ _______ _______ _____ _____    ______ ____
ROOT
ATOM      3  C   UNL     1      -4.113   0.067  25.036  0.00  0.00    +0.039 C 
ATOM      4  C   UNL     1      -4.891   0.334  25.106  0.00  0.00    +0.003 C 
ATOM      5  C   UNL     1      -5.056   1.141  25.069  0.00  0.00    +0.000 C 
ATOM      6  C   UNL     1      -4.443   1.682  24.962  0.00  0.00    +0.002 C 
ATOM      7  C   UNL     1      -5.220   1.947  25.032  0.00  0.00    +0.000 C 
ATOM      8  C   UNL     1      -4.607   2.490  24.924  0.00  0.00    +0.002 C 
ATOM      9  C   UNL     1      -3.995   3.031  24.817  0.00  0.00    +0.022 C 
ATOM     10  C   UNL     1      -3.216   2.764  24.746  0.00  0.00    +0.096 C 
ATOM     20  C   UNL     1      -3.052   1.957  24.783  0.00  0.00    +0.022 C 
ATOM     21  C   UNL     1      -2.274   1.691  24.713  0.00  0.00    +0.002 C 
ATOM     22  C   UNL     1      -3.665   1.415  24.891  0.00  0.00    +0.032 C 
ATOM     23  C   UNL     1      -3.500   0.608  24.928  0.00  0.00    +0.152 C 
ATOM     24  O   UNL     1      -2.722   0.342  24.857  0.00  0.00    -0.223 OA
ENDROOT
BRANCH  10  11
ATOM     11  N   UNL     1      -2.603   3.306  24.639  0.00  0.00    -0.202 NA
ATOM     12  C   UNL     1      -2.468   3.894  25.201  0.00  0.00    +0.284 C 
ATOM     13  O   UNL     1      -2.946   3.940  25.873  0.00  0.00    -0.267 OA
BRANCH  12  14
ATOM     14  C   UNL     1      -1.855   4.436  25.093  0.00  0.00    +0.155 A 
ATOM     15  C   UNL     1      -2.005   5.245  25.146  0.00  0.00    +0.123 A 
ATOM     16  N   UNL     1      -1.392   5.787  25.039  0.00  0.00    -0.239 NA
ATOM     17  C   UNL     1      -0.629   5.519  24.878  0.00  0.00    +0.120 A 
ATOM     18  C   UNL     1      -0.478   4.709  24.825  0.00  0.00    +0.120 A 
ATOM     19  N   UNL     1      -1.092   4.168  24.932  0.00  0.00    -0.236 NA
ENDBRANCH  12  14
ENDBRANCH  10  11
BRANCH   3   2
ATOM      1  C   UNL     1      -3.593  -1.060  25.745  0.00  0.00    +0.010 C 
ATOM      2  C   UNL     1      -3.949  -0.741  25.073  0.00  0.00    +0.079 C 
BRANCH   2  25
ATOM     25  C   UNL     1      -4.140  -1.230  24.437  0.00  0.00    +0.225 C 
ATOM     26  O   UNL     1      -4.593  -0.936  23.812  0.00  0.00    -0.275 OA
ATOM     27  N   UNL     1      -3.880  -2.013  24.425  0.00  0.00    -0.280 N 
ATOM     28  C   UNL     1      -4.028  -2.564  23.829  0.00  0.00    +0.093 C 
ATOM     29  C   UNL     1      -3.665  -3.274  24.042  0.00  0.00    +0.023 C 
ATOM     30  C   UNL     1      -3.294  -3.160  24.770  0.00  0.00    +0.023 C 
ATOM     31  C   UNL     1      -3.426  -2.381  25.006  0.00  0.00    +0.093 C 
ENDBRANCH   2  25
ENDBRANCH   3   2
TORSDOF 4
ENDMDL
MODEL 2
REMARK VINA RESULT:     -12.2      0.935      5.416
REMARK  Name = 
REMARK  4 active torsions:
REMARK  status: ('A' for Active; 'I' for Inactive)
REMARK    1  A    between atoms: C_2  and  C_3
REMARK    2  A    between atoms: C_2  and  C_25
REMARK    3  A    between atoms: C_10  and  N_11
REMARK    4  A    between atoms: C_12  and  C_14
REMARK                            x       y       z     vdW  Elec       q    Type
REMARK                         _______ _______ _______ _____ _____    ______ ____
ROOT
ATOM      3  C   UNL     1      -3.876   3.081  24.792  0.00  0.00    +0.039 C 
ATOM      4  C   UNL     1      -4.596   3.128  25.195  0.00  0.00    +0.003 C 
ATOM      5  C   UNL     1      -5.027   2.443  25.350  0.00  0.00    +0.000 C 
ATOM      6  C   UNL     1      -4.740   1.710  25.102  0.00  0.00    +0.002 C 
ATOM      7  C   UNL     1      -5.458   1.757  25.504  0.00  0.00    +0.000 C 
ATOM      8  C   UNL     1      -5.172   1.024  25.256  0.00  0.00    +0.002 C 
ATOM      9  C   UNL     1      -4.885   0.292  25.008  0.00  0.00    +0.022 C 
ATOM     10  C   UNL     1      -4.166   0.245  24.606  0.00  0.00    +0.096 C 
ATOM     20  C   UNL     1      -3.735   0.930  24.451  0.00  0.00    +0.022 C 
ATOM     21  C   UNL     1      -3.016   0.883  24.049  0.00  0.00    +0.002 C 
ATOM     22  C   UNL     1      -4.021   1.663  24.699  0.00  0.00    +0.032 C 
ATOM     23  C   UNL     1      -3.590   2.349  24.545  0.00  0.00    +0.152 C 
ATOM     24  O   UNL     1      -2.871   2.302  24.142  0.00  0.00    -0.223 OA
ENDROOT
BRANCH  10  11
ATOM     11  N   UNL     1      -3.880  -0.488  24.358  0.00  0.00    -0.202 NA
ATOM     12  C   UNL     1      -3.766  -1.094  24.906  0.00  0.00    +0.284 C 
ATOM     13  O   UNL     1      -3.939  -0.967  25.703  0.00  0.00    -0.267 OA
BRANCH  12  14
ATOM     14  C   UNL     1      -3.479  -1.827  24.658  0.00  0.00    +0.155 A 
ATOM     15  C   UNL     1      -3.987  -2.369  24.300  0.00  0.00    +0.123 A 
ATOM     16  N   UNL     1      -3.701  -3.103  24.053  0.00  0.00    -0.239 NA
ATOM     17  C   UNL     1      -2.906  -3.293  24.163  0.00  0.00    +0.120 A 
ATOM     18  C   UNL     1      -2.397  -2.750  24.521  0.00  0.00    +0.120 A 
ATOM     19  N   UNL     1      -2.684  -2.017  24.768  0.00  0.00    -0.236 NA
ENDBRANCH  12  14
ENDBRANCH  10  11
BRANCH   3   2
ATOM      1  C   UNL     1      -3.430   4.085  23.877  0.00  0.00    +0.010 C 
ATOM      2  C   UNL     1      -3.445   3.767  24.638  0.00  0.00    +0.079 C 
BRANCH   2  25
ATOM     25  C   UNL     1      -3.027   4.137  25.246  0.00  0.00    +0.225 C 
ATOM     26  O   UNL     1      -3.347   4.169  26.007  0.00  0.00    -0.275 OA
ATOM     27  N   UNL     1      -2.289   4.475  25.095  0.00  0.00    -0.280 N 
ATOM     28  C   UNL     1      -1.810   4.860  25.644  0.00  0.00    +0.093 C 
ATOM     29  C   UNL     1      -1.126   5.110  25.256  0.00  0.00    +0.023 C 
ATOM     30  C   UNL     1      -1.183   4.878  24.466  0.00  0.00    +0.023 C 
ATOM     31  C   UNL     1      -1.902   4.485  24.367  0.00  0.00    +0.093 C 
ENDBRANCH   2  25
ENDBRANCH   3   2
TORSDOF 4
ENDMDL
MODEL 3
REMARK VINA RESULT:     -11.7      2.948      4.635
REMARK  Name = 
REMARK  4 active torsions:
REMARK  status: ('A' for Active; 'I' for Inactive)
REMARK    1  A    between atoms: C_2  and  C_3
REMARK    2  A    between atoms: C_2  and  C_25
REMARK    3  A    between atoms: C_10  and  N_11
REMARK    4  A    between atoms: C_12  and  C_14
REMARK                            x       y       z     vdW  Elec       q    Type
REMARK                         _______ _______ _______ _____ _____    ______ ____
ROOT
ATOM      3  C   UNL     1      -3.042   1.485  24.462  0.00  0.00    +0.039 C 
ATOM      4  C   UNL     1      -3.189   0.807  24.911  0.00  0.00    +0.003 C 
ATOM      5  C   UNL     1      -2.598   0.241  25.008  0.00  0.00    +0.000 C 
ATOM      6  C   UNL     1      -1.860   0.350  24.656  0.00  0.00    +0.002 C 
ATOM      7  C   UNL     1      -2.007  -0.326  25.105  0.00  0.00    +0.000 C 
ATOM      8  C   UNL     1      -1.268  -0.217  24.753  0.00  0.00    +0.002 C 
ATOM      9  C   UNL     1      -0.531  -0.108  24.401  0.00  0.00    +0.022 C 
ATOM     10  C   UNL     1      -0.384   0.569  23.952  0.00  0.00    +0.096 C 
ATOM     20  C   UNL     1      -0.975   1.136  23.855  0.00  0.00    +0.022 C 
ATOM     21  C   UNL     1      -0.828   1.812  23.406  0.00  0.00    +0.002 C 
ATOM     22  C   UNL     1      -1.713   1.027  24.207  0.00  0.00    +0.032 C 
ATOM     23  C   UNL     1      -2.304   1.594  24.110  0.00  0.00    +0.152 C 
ATOM     24  O   UNL     1      -2.157   2.270  23.661  0.00  0.00    -0.223 OA
ENDROOT
BRANCH  10  11
ATOM     11  N   UNL     1       0.355   0.678  23.600  0.00  0.00    -0.202 NA
ATOM     12  C   UNL     1       0.780   0.028  23.322  0.00  0.00    +0.284 C 
ATOM     13  O   UNL     1       0.466  -0.732  23.397  0.00  0.00    -0.267 OA
BRANCH  12  14
ATOM     14  C   UNL     1       1.518   0.137  22.971  0.00  0.00    +0.155 A 
ATOM     15  C   UNL     1       1.683  -0.210  22.241  0.00  0.00    +0.123 A 
ATOM     16  N   UNL     1       2.422  -0.101  21.889  0.00  0.00    -0.239 NA
ATOM     17  C   UNL     1       2.995   0.355  22.268  0.00  0.00    +0.120 A 
ATOM     18  C   UNL     1       2.830   0.703  22.998  0.00  0.00    +0.120 A 
ATOM     19  N   UNL     1       2.092   0.593  23.349  0.00  0.00    -0.236 NA
ENDBRANCH  12  14
ENDBRANCH  10  11
BRANCH   3   2
ATOM      1  C   UNL     1      -3.958   2.188  23.619  0.00  0.00    +0.010 C 
ATOM      2  C   UNL     1      -3.633   2.051  24.365  0.00  0.00    +0.079 C 
BRANCH   2  25
ATOM     25  C   UNL     1      -3.901   2.482  25.016  0.00  0.00    +0.225 C 
ATOM     26  O   UNL     1      -3.364   2.898  25.485  0.00  0.00    -0.275 OA
ATOM     27  N   UNL     1      -4.706   2.498  25.198  0.00  0.00    -0.280 N 
ATOM     28  C   UNL     1      -5.053   2.903  25.827  0.00  0.00    +0.093 C 
ATOM     29  C   UNL     1      -5.866   2.767  25.801  0.00  0.00    +0.023 C 
ATOM     30  C   UNL     1      -6.021   2.278  25.154  0.00  0.00    +0.023 C 
ATOM     31  C   UNL     1      -5.304   2.112  24.782  0.00  0.00    +0.093 C 
ENDBRANCH   2  25
ENDBRANCH   3   2
TORSDOF 4
ENDMDL
MODEL 4
REMARK VINA RESULT:     -11.6      1.466      2.372
REMARK  Name = 
REMARK  4 active torsions:
REMARK  status: ('A' for Active; 'I' for Inactive)
REMARK    1  A    between atoms: C_2  and  C_3
REMARK    2  A    between atoms: C_2  and  C_25
REMARK    3  A    between atoms: C_10  and  N_11
REMARK    4  A    between atoms: C_12  and  C_14
REMARK                            x       y       z     vdW  Elec       q    Type
REMARK                         _______ _______ _______ _____ _____    ______ ____
ROOT
ATOM      3  C   UNL     1      -2.191  -0.828  25.146  0.00  0.00    +0.039 C 
ATOM      4  C   UNL     1      -1.424  -1.112  25.027  0.00  0.00    +0.003 C 
ATOM      5  C   UNL     1      -0.810  -0.586  24.869  0.00  0.00    +0.000 C 
ATOM      6  C   UNL     1      -0.960   0.223  24.829  0.00  0.00    +0.002 C 
ATOM      7  C   UNL     1      -0.195  -0.060  24.711  0.00  0.00    +0.000 C 
ATOM      8  C   UNL     1      -0.345   0.750  24.671  0.00  0.00    +0.002 C 
ATOM      9  C   UNL     1      -0.495   1.560  24.631  0.00  0.00    +0.022 C 
ATOM     10  C   UNL     1      -1.261   1.844  24.750  0.00  0.00    +0.096 C 
ATOM     20  C   UNL     1      -1.876   1.318  24.908  0.00  0.00    +0.022 C 
ATOM     21  C   UNL     1      -2.641   1.602  25.027  0.00  0.00    +0.002 C 
ATOM     22  C   UNL     1      -1.726   0.507  24.948  0.00  0.00    +0.032 C 
ATOM     23  C   UNL     1      -2.341  -0.019  25.106  0.00  0.00    +0.152 C 
ATOM     24  O   UNL     1      -3.106   0.265  25.225  0.00  0.00    -0.223 OA
ENDROOT
BRANCH  10  11
ATOM     11  N   UNL     1      -1.411   2.655  24.710  0.00  0.00    -0.202 NA
ATOM     12  C   UNL     1      -0.951   3.181  25.147  0.00  0.00    +0.284 C 
ATOM     13  O   UNL     1      -0.340   2.898  25.625  0.00  0.00    -0.267 OA
BRANCH  12  14
ATOM     14  C   UNL     1      -1.101   3.992  25.107  0.00  0.00    +0.155 A 
ATOM     15  C   UNL     1      -0.560   4.494  24.739  0.00  0.00    +0.123 A 
ATOM     16  N   UNL     1      -0.710   5.305  24.699  0.00  0.00    -0.239 NA
ATOM     17  C   UNL     1      -1.401   5.613  25.028  0.00  0.00    +0.120 A 
ATOM     18  C   UNL     1      -1.943   5.110  25.397  0.00  0.00    +0.120 A 
ATOM     19  N   UNL     1      -1.792   4.300  25.436  0.00  0.00    -0.236 NA
ENDBRANCH  12  14
ENDBRANCH  10  11
BRANCH   3   2
ATOM      1  C   UNL     1      -3.397  -1.152  25.843  0.00  0.00    +0.010 C 
ATOM      2  C   UNL     1      -2.806  -1.355  25.304  0.00  0.00    +0.079 C 
BRANCH   2  25
ATOM     25  C   UNL     1      -2.829  -2.087  24.924  0.00  0.00    +0.225 C 
ATOM     26  O   UNL     1      -2.220  -2.633  25.041  0.00  0.00    -0.275 OA
ATOM     27  N   UNL     1      -3.461  -2.274  24.427  0.00  0.00    -0.280 N 
ATOM     28  C   UNL     1      -3.559  -2.980  24.013  0.00  0.00    +0.093 C 
ATOM     29  C   UNL     1      -4.264  -2.931  23.587  0.00  0.00    +0.023 C 
ATOM     30  C   UNL     1      -4.602  -2.193  23.740  0.00  0.00    +0.023 C 
ATOM     31  C   UNL     1      -4.105  -1.788  24.259  0.00  0.00    +0.093 C 
ENDBRANCH   2  25
ENDBRANCH   3   2
TORSDOF 4
ENDMDL
