MODEL 1
REMARK VINA RESULT:     -10.7      0.000      0.000
REMARK  Name = 
REMARK  8 active torsions:
REMARK  status: ('A' for Active; 'I' for Inactive)
REMARK    1  A    between atoms: O_2  and  C_3
REMARK    2  A    between atoms: C_3  and  C_4
REMARK    3  A    between atoms: C_4  and  O_5
REMARK    4  A    between atoms: O_5  and  C_6
REMARK    5  A    between atoms: C_8  and  C_12
REMARK    6  A    between atoms: C_15  and  C_17
REMARK    7  A    between atoms: N_21  and  C_22
REMARK    8  A    between atoms: C_22  and  C_23
REMARK                            x       y       z     vdW  Elec       q    Type
REMARK                         _______ _______ _______ _____ _____    ______ ____
ROOT
ATOM     12  C   UNL     1      -0.803   2.641  25.312  0.00  0.00    +0.204 A 
ATOM     13  N   UNL     1      -0.288   2.340  25.883  0.00  0.00    -0.056 NA
ATOM     14  O   UNL     1       0.016   1.626  25.600  0.00  0.00    -0.336 OA
ATOM     15  C   UNL     1      -0.311   1.488  24.855  0.00  0.00    +0.251 A 
ATOM     16  N   UNL     1      -0.817   2.114  24.677  0.00  0.00    -0.190 NA
ENDROOT
BRANCH  12   8
ATOM      6  C   UNL     1      -2.426   4.043  25.716  0.00  0.00    +0.225 A 
ATOM      7  C   UNL     1      -2.000   3.339  25.661  0.00  0.00    +0.061 A 
ATOM      8  C   UNL     1      -1.229   3.345  25.367  0.00  0.00    +0.045 A 
ATOM      9  C   UNL     1      -0.884   4.055  25.129  0.00  0.00    +0.024 A 
ATOM     10  C   UNL     1      -1.310   4.760  25.184  0.00  0.00    +0.102 A 
ATOM     11  N   UNL     1      -2.082   4.754  25.478  0.00  0.00    -0.210 NA
BRANCH   6   5
ATOM      5  O   UNL     1      -3.198   4.037  26.010  0.00  0.00    -0.457 OA
BRANCH   5   4
ATOM      4  C   UNL     1      -3.818   3.779  25.532  0.00  0.00    +0.239 C 
BRANCH   4   3
ATOM      3  C   UNL     1      -4.568   3.664  25.857  0.00  0.00    +0.189 C 
BRANCH   3   2
ATOM      1  C   UNL     1      -5.692   2.833  25.559  0.00  0.00    +0.174 C 
ATOM      2  O   UNL     1      -5.205   3.471  25.368  0.00  0.00    -0.347 OA
ENDBRANCH   3   2
ENDBRANCH   4   3
ENDBRANCH   5   4
ENDBRANCH   6   5
ENDBRANCH  12   8
BRANCH  15  17
ATOM     17  C   UNL     1      -0.159   0.836  24.373  0.00  0.00    +0.138 C 
ATOM     18  C   UNL     1       0.352   0.820  23.725  0.00  0.00    +0.027 C 
ATOM     19  C   UNL     1       0.336   0.059  23.406  0.00  0.00    +0.019 C 
ATOM     20  C   UNL     1      -0.185  -0.396  23.857  0.00  0.00    +0.073 C 
ATOM     21  N   UNL     1      -0.490   0.084  24.454  0.00  0.00    -0.263 NA
BRANCH  21  22
ATOM     22  C   UNL     1      -1.032  -0.146  25.032  0.00  0.00    +0.100 C 
BRANCH  22  23
ATOM     23  C   UNL     1      -1.501  -0.815  24.914  0.00  0.00    -0.003 A 
ATOM     24  C   UNL     1      -1.188  -1.567  25.047  0.00  0.00    +0.000 A 
ATOM     25  C   UNL     1      -1.656  -2.235  24.930  0.00  0.00    +0.040 A 
ATOM     26  C   UNL     1      -2.438  -2.153  24.678  0.00  0.00    +0.176 A 
ATOM     27  O   UNL     1      -3.027  -2.706  24.517  0.00  0.00    -0.435 OA
ATOM     28  C   UNL     1      -3.704  -2.298  24.284  0.00  0.00    +0.429 C 
ATOM     29  O   UNL     1      -3.533  -1.491  24.302  0.00  0.00    -0.435 OA
ATOM     30  C   UNL     1      -2.751  -1.402  24.545  0.00  0.00    +0.176 A 
ATOM     31  C   UNL     1      -2.282  -0.732  24.663  0.00  0.00    +0.037 A 
ENDBRANCH  22  23
ENDBRANCH  21  22
ENDBRANCH  15  17
TORSDOF 8
ENDMDL
MODEL 2
REMARK VINA RESULT:     -10.7      1.674      3.692
REMARK  Name = 
REMARK  8 active torsions:
REMARK  status: ('A' for Active; 'I' for Inactive)
REMARK    1  A    between atoms: O_2  and  C_3
REMARK    2  A    between atoms: C_3  and  C_4
REMARK    3  A    between atoms: C_4  and  O_5
REMARK    4  A    between atoms: O_5  and  C_6
REMARK    5  A    between atoms: C_8  and  C_12
REMARK    6  A    between atoms: C_15  and  C_17
REMARK    7  A    between atoms: N_21  and  C_22
REMARK    8  A    between atoms: C_22  and  C_23
REMARK                            x       y       z     vdW  Elec       q    Type
REMARK                         _______ _______ _______ _____ _____    ______ ____
ROOT
ATOM     12  C   UNL     1      -3.112   3.373  24.716  0.00  0.00    +0.204 A 
ATOM     13  N   UNL     1      -3.572   3.543  24.053  0.00  0.00    -0.056 NA
ATOM     14  O   UNL     1      -4.243   3.063  24.079  0.00  0.00    -0.336 OA
ATOM     15  C   UNL     1      -4.196   2.596  24.758  0.00  0.00    +0.251 A 
ATOM     16  N   UNL     1      -3.497   2.788  25.152  0.00  0.00    -0.190 NA
ENDROOT
BRANCH  12   8
ATOM      6  C   UNL     1      -0.985   3.621  25.143  0.00  0.00    +0.225 A 
ATOM      7  C   UNL     1      -1.705   3.269  24.949  0.00  0.00    +0.061 A 
ATOM      8  C   UNL     1      -2.391   3.726  24.910  0.00  0.00    +0.045 A 
ATOM      9  C   UNL     1      -2.357   4.535  25.064  0.00  0.00    +0.024 A 
ATOM     10  C   UNL     1      -1.636   4.889  25.258  0.00  0.00    +0.102 A 
ATOM     11  N   UNL     1      -0.950   4.431  25.297  0.00  0.00    -0.210 NA
BRANCH   6   5
ATOM      5  O   UNL     1      -0.299   3.164  25.182  0.00  0.00    -0.457 OA
BRANCH   5   4
ATOM      4  C   UNL     1      -0.083   2.689  24.544  0.00  0.00    +0.239 C 
BRANCH   4   3
ATOM      3  C   UNL     1       0.438   2.059  24.656  0.00  0.00    +0.189 C 
BRANCH   3   2
ATOM      1  C   UNL     1       1.001   1.104  23.755  0.00  0.00    +0.174 C 
ATOM      2  O   UNL     1       0.986   1.866  24.070  0.00  0.00    -0.347 OA
ENDBRANCH   3   2
ENDBRANCH   4   3
ENDBRANCH   5   4
ENDBRANCH   6   5
ENDBRANCH  12   8
BRANCH  15  17
ATOM     17  C   UNL     1      -4.751   2.037  25.000  0.00  0.00    +0.138 C 
ATOM     18  C   UNL     1      -5.461   2.194  25.390  0.00  0.00    +0.027 C 
ATOM     19  C   UNL     1      -5.843   1.475  25.525  0.00  0.00    +0.019 C 
ATOM     20  C   UNL     1      -5.368   0.873  25.219  0.00  0.00    +0.073 C 
ATOM     21  N   UNL     1      -4.694   1.220  24.895  0.00  0.00    -0.263 NA
BRANCH  21  22
ATOM     22  C   UNL     1      -4.072   0.821  24.529  0.00  0.00    +0.100 C 
BRANCH  22  23
ATOM     23  C   UNL     1      -3.980   0.008  24.641  0.00  0.00    -0.003 A 
ATOM     24  C   UNL     1      -3.669  -0.278  25.349  0.00  0.00    +0.000 A 
ATOM     25  C   UNL     1      -3.578  -1.090  25.461  0.00  0.00    +0.040 A 
ATOM     26  C   UNL     1      -3.798  -1.616  24.865  0.00  0.00    +0.176 A 
ATOM     27  O   UNL     1      -3.772  -2.439  24.817  0.00  0.00    -0.435 OA
ATOM     28  C   UNL     1      -4.068  -2.661  24.080  0.00  0.00    +0.429 C 
ATOM     29  O   UNL     1      -4.275  -1.975  23.672  0.00  0.00    -0.435 OA
ATOM     30  C   UNL     1      -4.109  -1.330  24.156  0.00  0.00    +0.176 A 
ATOM     31  C   UNL     1      -4.200  -0.517  24.044  0.00  0.00    +0.037 A 
ENDBRANCH  22  23
ENDBRANCH  21  22
ENDBRANCH  15  17
TORSDOF 8
ENDMDL
MODEL 3
REMARK VINA RESULT:     -10.0      1.849      3.511
REMARK  Name = 
REMARK  8 active torsions:
REMARK  status: ('A' for Active; 'I' for Inactive)
REMARK    1  A    between atoms: O_2  and  C_3
REMARK    2  A    between atoms: C_3  and  C_4
REMARK    3  A    between atoms: C_4  and  O_5
REMARK    4  A    between atoms: O_5  and  C_6
REMARK    5  A    between atoms: C_8  and  C_12
REMARK    6  A    between atoms: C_15  and  C_17
REMARK    7  A    between atoms: N_21  and  C_22
REMARK    8  A    between atoms: C_22  and  C_23
REMARK                            x       y       z     vdW  Elec       q    Type
REMARK                         _______ _______ _______ _____ _____    ______ ____
ROOT
ATOM     12  C   UNL     1      -4.692   1.319  25.240  0.00  0.00    +0.204 A 
ATOM     13  N   UNL     1      -4.994   0.840  25.840  0.00  0.00    -0.056 NA
ATOM     14  O   UNL     1      -4.801   0.057  25.663  0.00  0.00    -0.336 OA
ATOM     15  C   UNL     1      -4.381   0.053  24.953  0.00  0.00    +0.251 A 
ATOM     16  N   UNL     1      -4.313   0.833  24.691  0.00  0.00    -0.190 NA
ENDROOT
BRANCH  12   8
ATOM      6  C   UNL     1      -4.188   3.411  24.876  0.00  0.00    +0.225 A 
ATOM      7  C   UNL     1      -4.123   2.591  24.921  0.00  0.00    +0.061 A 
ATOM      8  C   UNL     1      -4.758   2.140  25.195  0.00  0.00    +0.045 A 
ATOM      9  C   UNL     1      -5.458   2.511  25.424  0.00  0.00    +0.024 A 
ATOM     10  C   UNL     1      -5.524   3.332  25.379  0.00  0.00    +0.102 A 
ATOM     11  N   UNL     1      -4.889   3.783  25.105  0.00  0.00    -0.210 NA
BRANCH   6   5
ATOM      5  O   UNL     1      -3.553   3.862  24.602  0.00  0.00    -0.457 OA
BRANCH   5   4
ATOM      4  C   UNL     1      -2.928   4.042  25.108  0.00  0.00    +0.239 C 
BRANCH   4   3
ATOM      3  C   UNL     1      -2.256   4.422  24.814  0.00  0.00    +0.189 C 
BRANCH   3   2
ATOM      1  C   UNL     1      -0.963   4.982  25.053  0.00  0.00    +0.174 C 
ATOM      2  O   UNL     1      -1.698   4.736  25.335  0.00  0.00    -0.347 OA
ENDBRANCH   3   2
ENDBRANCH   4   3
ENDBRANCH   5   4
ENDBRANCH   6   5
ENDBRANCH  12   8
BRANCH  15  17
ATOM     17  C   UNL     1      -4.080  -0.614  24.572  0.00  0.00    +0.138 C 
ATOM     18  C   UNL     1      -4.495  -1.107  24.057  0.00  0.00    +0.027 C 
ATOM     19  C   UNL     1      -3.983  -1.703  23.806  0.00  0.00    +0.019 C 
ATOM     20  C   UNL     1      -3.251  -1.579  24.167  0.00  0.00    +0.073 C 
ATOM     21  N   UNL     1      -3.312  -0.906  24.641  0.00  0.00    -0.263 NA
BRANCH  21  22
ATOM     22  C   UNL     1      -2.709  -0.582  25.101  0.00  0.00    +0.100 C 
BRANCH  22  23
ATOM     23  C   UNL     1      -1.920  -0.692  24.885  0.00  0.00    -0.003 A 
ATOM     24  C   UNL     1      -1.501  -1.344  25.168  0.00  0.00    +0.000 A 
ATOM     25  C   UNL     1      -0.713  -1.453  24.952  0.00  0.00    +0.040 A 
ATOM     26  C   UNL     1      -0.343  -0.911  24.452  0.00  0.00    +0.176 A 
ATOM     27  O   UNL     1       0.422  -0.874  24.147  0.00  0.00    -0.435 OA
ATOM     28  C   UNL     1       0.476  -0.200  23.675  0.00  0.00    +0.429 C 
ATOM     29  O   UNL     1      -0.256   0.180  23.689  0.00  0.00    -0.435 OA
ATOM     30  C   UNL     1      -0.762  -0.259  24.169  0.00  0.00    +0.176 A 
ATOM     31  C   UNL     1      -1.551  -0.149  24.385  0.00  0.00    +0.037 A 
ENDBRANCH  22  23
ENDBRANCH  21  22
ENDBRANCH  15  17
TORSDOF 8
ENDMDL
MODEL 4
REMARK VINA RESULT:      -9.9      1.924      5.843
REMARK  Name = 
REMARK  8 active torsions:
REMARK  status: ('A' for Active; 'I' for Inactive)
REMARK    1  A    between atoms: O_2  and  C_3
REMARK    2  A    between atoms: C_3  and  C_4
REMARK    3  A    between atoms: C_4  and  O_5
REMARK    4  A    between atoms: O_5  and  C_6
REMARK    5  A    between atoms: C_8  and  C_12
REMARK    6  A    between atoms: C_15  and  C_17
REMARK    7  A    between atoms: N_21  and  C_22
REMARK    8  A    between atoms: C_22  and  C_23
REMARK                            x       y       z     vdW  Elec       q    Type
REMARK                         _______ _______ _______ _____ _____    ______ ____
ROOT
ATOM     12  C   UNL     1      -3.959  -0.600  24.639  0.00  0.00    +0.204 A 
ATOM     13  N   UNL     1      -4.539  -0.570  24.053  0.00  0.00    -0.056 NA
ATOM     14  O   UNL     1      -4.981   0.118  24.168  0.00  0.00    -0.336 OA
ATOM     15  C   UNL     1      -4.674   0.511  24.826  0.00  0.00    +0.251 A 
ATOM     16  N   UNL     1      -4.042   0.067  25.116  0.00  0.00    -0.190 NA
ENDROOT
BRANCH  12   8
ATOM      6  C   UNL     1      -2.028  -1.596  24.850  0.00  0.00    +0.225 A 
ATOM      7  C   UNL     1      -2.592  -1.002  24.758  0.00  0.00    +0.061 A 
ATOM      8  C   UNL     1      -3.394  -1.195  24.731  0.00  0.00    +0.045 A 
ATOM      9  C   UNL     1      -3.631  -1.982  24.797  0.00  0.00    +0.024 A 
ATOM     10  C   UNL     1      -3.066  -2.577  24.889  0.00  0.00    +0.102 A 
ATOM     11  N   UNL     1      -2.264  -2.384  24.916  0.00  0.00    -0.210 NA
BRANCH   6   5
ATOM      5  O   UNL     1      -1.225  -1.402  24.877  0.00  0.00    -0.457 OA
BRANCH   5   4
ATOM      4  C   UNL     1      -0.832  -1.183  24.186  0.00  0.00    +0.239 C 
BRANCH   4   3
ATOM      3  C   UNL     1      -0.116  -0.774  24.232  0.00  0.00    +0.189 C 
BRANCH   3   2
ATOM      1  C   UNL     1       0.717   0.007  23.374  0.00  0.00    +0.174 C 
ATOM      2  O   UNL     1       0.369  -0.715  23.567  0.00  0.00    -0.347 OA
ENDBRANCH   3   2
ENDBRANCH   4   3
ENDBRANCH   5   4
ENDBRANCH   6   5
ENDBRANCH  12   8
BRANCH  15  17
ATOM     17  C   UNL     1      -4.950   1.223  25.137  0.00  0.00    +0.138 C 
ATOM     18  C   UNL     1      -5.585   1.311  25.656  0.00  0.00    +0.027 C 
ATOM     19  C   UNL     1      -5.667   2.116  25.823  0.00  0.00    +0.019 C 
ATOM     20  C   UNL     1      -5.083   2.523  25.407  0.00  0.00    +0.073 C 
ATOM     21  N   UNL     1      -4.640   1.972  24.983  0.00  0.00    -0.263 NA
BRANCH  21  22
ATOM     22  C   UNL     1      -3.999   2.139  24.492  0.00  0.00    +0.100 C 
BRANCH  22  23
ATOM     23  C   UNL     1      -3.563   2.832  24.604  0.00  0.00    -0.003 A 
ATOM     24  C   UNL     1      -3.807   3.535  24.247  0.00  0.00    +0.000 A 
ATOM     25  C   UNL     1      -3.372   4.226  24.359  0.00  0.00    +0.040 A 
ATOM     26  C   UNL     1      -2.693   4.216  24.828  0.00  0.00    +0.176 A 
ATOM     27  O   UNL     1      -2.157   4.806  25.037  0.00  0.00    -0.435 OA
ATOM     28  C   UNL     1      -1.582   4.468  25.523  0.00  0.00    +0.429 C 
ATOM     29  O   UNL     1      -1.763   3.669  25.614  0.00  0.00    -0.435 OA
ATOM     30  C   UNL     1      -2.449   3.513  25.185  0.00  0.00    +0.176 A 
ATOM     31  C   UNL     1      -2.885   2.820  25.073  0.00  0.00    +0.037 A 
ENDBRANCH  22  23
ENDBRANCH  21  22
ENDBRANCH  15  17
TORSDOF 8
ENDMDL
MODEL 5
REMARK VINA RESULT:      -9.9      0.827      4.768
REMARK  Name = 
REMARK  8 active torsions:
REMARK  status: ('A' for Active; 'I' for Inactive)
REMARK    1  A    between atoms: O_2  and  C_3
REMARK    2  A    between atoms: C_3  and  C_4
REMARK    3  A    between atoms: C_4  and  O_5
REMARK    4  A    between atoms: O_5  and  C_6
REMARK    5  A    between atoms: C_8  and  C_12
REMARK    6  A    between atoms: C_15  and  C_17
REMARK    7  A    between atoms: N_21  and  C_22
REMARK    8  A    between atoms: C_22  and  C_23
REMARK                            x       y       z     vdW  Elec       q    Type
REMARK                         _______ _______ _______ _____ _____    ______ ____
ROOT
ATOM     12  C   UNL     1      -0.125   1.749  24.831  0.00  0.00    +0.204 A 
ATOM     13  N   UNL     1       0.302   1.997  25.492  0.00  0.00    -0.056 NA
ATOM     14  O   UNL     1       0.070   2.769  25.669  0.00  0.00    -0.336 OA
ATOM     15  C   UNL     1      -0.499   2.997  25.117  0.00  0.00    +0.251 A 
ATOM     16  N   UNL     1      -0.619   2.367  24.599  0.00  0.00    -0.190 NA
ENDROOT
BRANCH  12   8
ATOM      6  C   UNL     1      -0.389  -0.380  24.427  0.00  0.00    +0.225 A 
ATOM      7  C   UNL     1      -0.447   0.356  24.793  0.00  0.00    +0.061 A 
ATOM      8  C   UNL     1      -0.066   1.011  24.464  0.00  0.00    +0.045 A 
ATOM      9  C   UNL     1       0.372   0.929  23.771  0.00  0.00    +0.024 A 
ATOM     10  C   UNL     1       0.430   0.191  23.405  0.00  0.00    +0.102 A 
ATOM     11  N   UNL     1       0.049  -0.464  23.733  0.00  0.00    -0.210 NA
BRANCH   6   5
ATOM      5  O   UNL     1      -0.770  -1.035  24.755  0.00  0.00    -0.457 OA
BRANCH   5   4
ATOM      4  C   UNL     1      -1.464  -1.322  24.414  0.00  0.00    +0.239 C 
BRANCH   4   3
ATOM      3  C   UNL     1      -1.873  -1.943  24.772  0.00  0.00    +0.189 C 
BRANCH   3   2
ATOM      1  C   UNL     1      -3.182  -2.516  24.734  0.00  0.00    +0.174 C 
ATOM      2  O   UNL     1      -2.470  -2.337  24.359  0.00  0.00    -0.347 OA
ENDBRANCH   3   2
ENDBRANCH   4   3
ENDBRANCH   5   4
ENDBRANCH   6   5
ENDBRANCH  12   8
BRANCH  15  17
ATOM     17  C   UNL     1      -0.880   3.728  25.089  0.00  0.00    +0.138 C 
ATOM     18  C   UNL     1      -0.590   4.414  24.735  0.00  0.00    +0.027 C 
ATOM     19  C   UNL     1      -1.150   5.011  24.838  0.00  0.00    +0.019 C 
ATOM     20  C   UNL     1      -1.787   4.694  25.256  0.00  0.00    +0.073 C 
ATOM     21  N   UNL     1      -1.621   3.901  25.411  0.00  0.00    -0.263 NA
BRANCH  21  22
ATOM     22  C   UNL     1      -2.108   3.373  25.817  0.00  0.00    +0.100 C 
BRANCH  22  23
ATOM     23  C   UNL     1      -2.928   3.460  25.782  0.00  0.00    -0.003 A 
ATOM     24  C   UNL     1      -3.304   4.021  26.257  0.00  0.00    +0.000 A 
ATOM     25  C   UNL     1      -4.123   4.107  26.222  0.00  0.00    +0.040 A 
ATOM     26  C   UNL     1      -4.568   3.634  25.713  0.00  0.00    +0.176 A 
ATOM     27  O   UNL     1      -5.377   3.594  25.561  0.00  0.00    -0.435 OA
ATOM     28  C   UNL     1      -5.502   3.009  24.993  0.00  0.00    +0.429 C 
ATOM     29  O   UNL     1      -4.769   2.687  24.794  0.00  0.00    -0.435 OA
ATOM     30  C   UNL     1      -4.192   3.073  25.239  0.00  0.00    +0.176 A 
ATOM     31  C   UNL     1      -3.371   2.986  25.273  0.00  0.00    +0.037 A 
ENDBRANCH  22  23
ENDBRANCH  21  22
ENDBRANCH  15  17
TORSDOF 8
ENDMDL
MODEL 6
REMARK VINA RESULT:      -9.4      1.504      4.156
REMARK  Name = 
REMARK  8 active torsions:
REMARK  status: ('A' for Active; 'I' for Inactive)
REMARK    1  A    between atoms: O_2  and  C_3
REMARK    2  A    between atoms: C_3  and  C_4
REMARK    3  A    between atoms: C_4  and  O_5
REMARK    4  A    between atoms: O_5  and  C_6
REMARK    5  A    between atoms: C_8  and  C_12
REMARK    6  A    between atoms: C_15  and  C_17
REMARK    7  A    between atoms: N_21  and  C_22
REMARK    8  A    between atoms: C_22  and  C_23
REMARK                            x       y       z     vdW  Elec       q    Type
REMARK                         _______ _______ _______ _____ _____    ______ ____
ROOT
ATOM     12  C   UNL     1      -3.984   3.394  25.706  0.00  0.00    +0.204 A 
ATOM     13  N   UNL     1      -3.888   3.829  26.401  0.00  0.00    -0.056 NA
ATOM     14  O   UNL     1      -3.152   4.201  26.369  0.00  0.00    -0.336 OA
ATOM     15  C   UNL     1      -2.794   3.997  25.654  0.00  0.00    +0.251 A 
ATOM     16  N   UNL     1      -3.308   3.498  25.245  0.00  0.00    -0.190 NA
ENDROOT
BRANCH  12   8
ATOM      6  C   UNL     1      -5.193   1.741  24.952  0.00  0.00    +0.225 A 
ATOM      7  C   UNL     1      -4.537   2.199  25.151  0.00  0.00    +0.061 A 
ATOM      8  C   UNL     1      -4.641   2.936  25.507  0.00  0.00    +0.045 A 
ATOM      9  C   UNL     1      -5.401   3.215  25.664  0.00  0.00    +0.024 A 
ATOM     10  C   UNL     1      -6.058   2.757  25.465  0.00  0.00    +0.102 A 
ATOM     11  N   UNL     1      -5.954   2.019  25.109  0.00  0.00    -0.210 NA
BRANCH   6   5
ATOM      5  O   UNL     1      -5.089   1.003  24.596  0.00  0.00    -0.457 OA
BRANCH   5   4
ATOM      4  C   UNL     1      -4.601   0.440  24.949  0.00  0.00    +0.239 C 
BRANCH   4   3
ATOM      3  C   UNL     1      -4.415  -0.256  24.546  0.00  0.00    +0.189 C 
BRANCH   3   2
ATOM      1  C   UNL     1      -3.603  -1.431  24.538  0.00  0.00    +0.174 C 
ATOM      2  O   UNL     1      -4.066  -0.886  24.949  0.00  0.00    -0.347 OA
ENDBRANCH   3   2
ENDBRANCH   4   3
ENDBRANCH   5   4
ENDBRANCH   6   5
ENDBRANCH  12   8
BRANCH  15  17
ATOM     17  C   UNL     1      -2.052   4.247  25.396  0.00  0.00    +0.138 C 
ATOM     18  C   UNL     1      -1.865   5.000  25.114  0.00  0.00    +0.027 C 
ATOM     19  C   UNL     1      -1.063   5.006  24.918  0.00  0.00    +0.019 C 
ATOM     20  C   UNL     1      -0.755   4.258  25.078  0.00  0.00    +0.073 C 
ATOM     21  N   UNL     1      -1.366   3.789  25.373  0.00  0.00    -0.263 NA
BRANCH  21  22
ATOM     22  C   UNL     1      -1.303   3.000  25.605  0.00  0.00    +0.100 C 
BRANCH  22  23
ATOM     23  C   UNL     1      -0.782   2.495  25.212  0.00  0.00    -0.003 A 
ATOM     24  C   UNL     1       0.019   2.492  25.410  0.00  0.00    +0.000 A 
ATOM     25  C   UNL     1       0.539   1.987  25.017  0.00  0.00    +0.040 A 
ATOM     26  C   UNL     1       0.259   1.485  24.425  0.00  0.00    +0.176 A 
ATOM     27  O   UNL     1       0.638   0.932  23.945  0.00  0.00    -0.435 OA
ATOM     28  C   UNL     1       0.072   0.593  23.450  0.00  0.00    +0.429 C 
ATOM     29  O   UNL     1      -0.657   0.937  23.624  0.00  0.00    -0.435 OA
ATOM     30  C   UNL     1      -0.541   1.488  24.226  0.00  0.00    +0.176 A 
ATOM     31  C   UNL     1      -1.062   1.993  24.620  0.00  0.00    +0.037 A 
ENDBRANCH  22  23
ENDBRANCH  21  22
ENDBRANCH  15  17
TORSDOF 8
ENDMDL
MODEL 7
REMARK VINA RESULT:      -9.1      1.458      4.427
REMARK  Name = 
REMARK  8 active torsions:
REMARK  status: ('A' for Active; 'I' for Inactive)
REMARK    1  A    between atoms: O_2  and  C_3
REMARK    2  A    between atoms: C_3  and  C_4
REMARK    3  A    between atoms: C_4  and  O_5
REMARK    4  A    between atoms: O_5  and  C_6
REMARK    5  A    between atoms: C_8  and  C_12
REMARK    6  A    between atoms: C_15  and  C_17
REMARK    7  A    between atoms: N_21  and  C_22
REMARK    8  A    between atoms: C_22  and  C_23
REMARK                            x       y       z     vdW  Elec       q    Type
REMARK                         _______ _______ _______ _____ _____    ______ ____
ROOT
ATOM     12  C   UNL     1      -1.755  -1.185  24.627  0.00  0.00    +0.204 A 
ATOM     13  N   UNL     1      -1.126  -1.541  25.023  0.00  0.00    -0.056 NA
ATOM     14  O   UNL     1      -0.458  -1.068  24.917  0.00  0.00    -0.336 OA
ATOM     15  C   UNL     1      -0.676  -0.420  24.455  0.00  0.00    +0.251 A 
ATOM     16  N   UNL     1      -1.478  -0.492  24.276  0.00  0.00    -0.190 NA
ENDROOT
BRANCH  12   8
ATOM      6  C   UNL     1      -3.936  -1.229  24.540  0.00  0.00    +0.225 A 
ATOM      7  C   UNL     1      -3.164  -0.944  24.579  0.00  0.00    +0.061 A 
ATOM      8  C   UNL     1      -2.529  -1.471  24.589  0.00  0.00    +0.045 A 
ATOM      9  C   UNL     1      -2.667  -2.283  24.560  0.00  0.00    +0.024 A 
ATOM     10  C   UNL     1      -3.440  -2.569  24.522  0.00  0.00    +0.102 A 
ATOM     11  N   UNL     1      -4.075  -2.042  24.512  0.00  0.00    -0.210 NA
BRANCH   6   5
ATOM      5  O   UNL     1      -4.571  -0.702  24.530  0.00  0.00    -0.457 OA
BRANCH   5   4
ATOM      4  C   UNL     1      -4.506   0.029  24.907  0.00  0.00    +0.239 C 
BRANCH   4   3
ATOM      3  C   UNL     1      -5.083   0.607  24.787  0.00  0.00    +0.189 C 
BRANCH   3   2
ATOM      1  C   UNL     1      -5.471   1.959  25.041  0.00  0.00    +0.174 C 
ATOM      2  O   UNL     1      -5.133   1.253  25.300  0.00  0.00    -0.347 OA
ENDBRANCH   3   2
ENDBRANCH   4   3
ENDBRANCH   5   4
ENDBRANCH   6   5
ENDBRANCH  12   8
BRANCH  15  17
ATOM     17  C   UNL     1      -0.178   0.192  24.215  0.00  0.00    +0.138 C 
ATOM     18  C   UNL     1       0.353   0.167  23.584  0.00  0.00    +0.027 C 
ATOM     19  C   UNL     1       0.736   0.898  23.543  0.00  0.00    +0.019 C 
ATOM     20  C   UNL     1       0.441   1.374  24.149  0.00  0.00    +0.073 C 
ATOM     21  N   UNL     1      -0.123   0.938  24.564  0.00  0.00    -0.263 NA
BRANCH  21  22
ATOM     22  C   UNL     1      -0.557   1.201  25.214  0.00  0.00    +0.100 C 
BRANCH  22  23
ATOM     23  C   UNL     1      -0.715   2.007  25.306  0.00  0.00    -0.003 A 
ATOM     24  C   UNL     1      -0.172   2.493  25.692  0.00  0.00    +0.000 A 
ATOM     25  C   UNL     1      -0.330   3.296  25.783  0.00  0.00    +0.040 A 
ATOM     26  C   UNL     1      -1.032   3.616  25.489  0.00  0.00    +0.176 A 
ATOM     27  O   UNL     1      -1.336   4.381  25.496  0.00  0.00    -0.435 OA
ATOM     28  C   UNL     1      -2.067   4.370  25.114  0.00  0.00    +0.429 C 
ATOM     29  O   UNL     1      -2.215   3.596  24.871  0.00  0.00    -0.435 OA
ATOM     30  C   UNL     1      -1.575   3.130  25.102  0.00  0.00    +0.176 A 
ATOM     31  C   UNL     1      -1.417   2.324  25.011  0.00  0.00    +0.037 A 
ENDBRANCH  22  23
ENDBRANCH  21  22
ENDBRANCH  15  17
TORSDOF 8
ENDMDL
MODEL 8
REMARK VINA RESULT:      -9.1      1.935      5.401
REMARK  Name = 
REMARK  8 active torsions:
REMARK  status: ('A' for Active; 'I' for Inactive)
REMARK    1  A    between atoms: O_2  and  C_3
REMARK    2  A    between atoms: C_3  and  C_4
REMARK    3  A    between atoms: C_4  and  O_5
REMARK    4  A    between atoms: O_5  and  C_6
REMARK    5  A    between atoms: C_8  and  C_12
REMARK    6  A    between atoms: C_15  and  C_17
REMARK    7  A    between atoms: N_21  and  C_22
REMARK    8  A    between atoms: C_22  and  C_23
REMARK                            x       y       z     vdW  Elec       q    Type
REMARK                         _______ _______ _______ _____ _____    ______ ____
ROOT
ATOM     12  C   UNL     1      -0.957   1.457  23.895  0.00  0.00    +0.204 A 
ATOM     13  N   UNL     1      -1.256   1.870  23.247  0.00  0.00    -0.056 NA
ATOM     14  O   UNL     1      -1.617   2.557  23.527  0.00  0.00    -0.336 OA
ATOM     15  C   UNL     1      -1.540   2.568  24.349  0.00  0.00    +0.251 A 
ATOM     16  N   UNL     1      -1.132   1.888  24.576  0.00  0.00    -0.190 NA
ENDROOT
BRANCH  12   8
ATOM      6  C   UNL     1       0.516  -0.062  23.359  0.00  0.00    +0.225 A 
ATOM      7  C   UNL     1       0.112   0.656  23.386  0.00  0.00    +0.061 A 
ATOM      8  C   UNL     1      -0.553   0.738  23.868  0.00  0.00    +0.045 A 
ATOM      9  C   UNL     1      -0.814   0.101  24.323  0.00  0.00    +0.024 A 
ATOM     10  C   UNL     1      -0.409  -0.618  24.295  0.00  0.00    +0.102 A 
ATOM     11  N   UNL     1       0.256  -0.700  23.813  0.00  0.00    -0.210 NA
BRANCH   6   5
ATOM      5  O   UNL     1       1.181  -0.144  22.877  0.00  0.00    -0.457 OA
BRANCH   5   4
ATOM      4  C   UNL     1       1.885   0.236  23.078  0.00  0.00    +0.239 C 
BRANCH   4   3
ATOM      3  C   UNL     1       2.548   0.160  22.592  0.00  0.00    +0.189 C 
BRANCH   3   2
ATOM      1  C   UNL     1       3.929   0.526  22.553  0.00  0.00    +0.174 C 
ATOM      2  O   UNL     1       3.134   0.742  22.600  0.00  0.00    -0.347 OA
ENDBRANCH   3   2
ENDBRANCH   4   3
ENDBRANCH   5   4
ENDBRANCH   6   5
ENDBRANCH  12   8
BRANCH  15  17
ATOM     17  C   UNL     1      -1.822   3.157  24.853  0.00  0.00    +0.138 C 
ATOM     18  C   UNL     1      -1.364   3.631  25.349  0.00  0.00    +0.027 C 
ATOM     19  C   UNL     1      -1.872   4.142  25.753  0.00  0.00    +0.019 C 
ATOM     20  C   UNL     1      -2.643   3.983  25.506  0.00  0.00    +0.073 C 
ATOM     21  N   UNL     1      -2.612   3.375  24.950  0.00  0.00    -0.263 NA
BRANCH  21  22
ATOM     22  C   UNL     1      -3.258   3.042  24.559  0.00  0.00    +0.100 C 
BRANCH  22  23
ATOM     23  C   UNL     1      -4.002   3.045  24.916  0.00  0.00    -0.003 A 
ATOM     24  C   UNL     1      -4.416   3.753  25.001  0.00  0.00    +0.000 A 
ATOM     25  C   UNL     1      -5.160   3.756  25.358  0.00  0.00    +0.040 A 
ATOM     26  C   UNL     1      -5.490   3.050  25.630  0.00  0.00    +0.176 A 
ATOM     27  O   UNL     1      -6.206   2.883  26.001  0.00  0.00    -0.435 OA
ATOM     28  C   UNL     1      -6.236   2.071  26.146  0.00  0.00    +0.429 C 
ATOM     29  O   UNL     1      -5.536   1.737  25.864  0.00  0.00    -0.435 OA
ATOM     30  C   UNL     1      -5.076   2.342  25.545  0.00  0.00    +0.176 A 
ATOM     31  C   UNL     1      -4.331   2.339  25.188  0.00  0.00    +0.037 A 
ENDBRANCH  22  23
ENDBRANCH  21  22
ENDBRANCH  15  17
TORSDOF 8
ENDMDL
