MODEL 1
REMARK VINA RESULT:      -9.4      0.000      0.000
REMARK  Name = 
REMARK  5 active torsions:
REMARK  status: ('A' for Active; 'I' for Inactive)
REMARK    1  A    between atoms: C_2  and  C_3
REMARK    2  A    between atoms: C_2  and  C_30
REMARK    3  A    between atoms: C_12  and  C_13
REMARK    4  A    between atoms: C_13  and  S_14
REMARK    5  A    between atoms: S_14  and  C_17
REMARK                            x       y       z     vdW  Elec       q    Type
REMARK                         _______ _______ _______ _____ _____    ______ ____
ROOT
ATOM      3  C   UNL     1      -2.320   1.664  24.837  0.00  0.00    +0.039 C 
ATOM      4  C   UNL     1      -2.299   1.003  25.332  0.00  0.00    +0.003 C 
ATOM      5  C   UNL     1      -1.734   0.415  25.211  0.00  0.00    +0.001 C 
ATOM      6  C   UNL     1      -1.191   0.486  24.595  0.00  0.00    +0.007 C 
ATOM      7  C   UNL     1      -1.170  -0.173  25.090  0.00  0.00    +0.000 C 
ATOM      8  C   UNL     1      -0.625  -0.103  24.473  0.00  0.00    +0.034 C 
ATOM      9  C   UNL     1      -0.082  -0.032  23.857  0.00  0.00    +0.022 A 
ATOM     10  C   UNL     1      -0.103   0.629  23.362  0.00  0.00    +0.061 A 
ATOM     11  N   UNL     1       0.500   0.547  22.804  0.00  0.00    -0.246 NA
ATOM     12  C   UNL     1       0.893  -0.162  22.954  0.00  0.00    +0.112 A 
ATOM     24  S   UNL     1       0.534  -0.519  23.605  0.00  0.00    -0.074 S 
ATOM     25  C   UNL     1      -0.668   1.217  23.483  0.00  0.00    +0.043 C 
ATOM     26  C   UNL     1      -0.689   1.877  22.989  0.00  0.00    +0.006 C 
ATOM     27  C   UNL     1      -1.212   1.146  24.100  0.00  0.00    +0.036 C 
ATOM     28  C   UNL     1      -1.777   1.735  24.221  0.00  0.00    +0.153 C 
ATOM     29  O   UNL     1      -1.798   2.394  23.726  0.00  0.00    -0.223 OA
ENDROOT
BRANCH   3   2
ATOM      1  C   UNL     1      -2.652   3.008  25.196  0.00  0.00    +0.010 C 
ATOM      2  C   UNL     1      -2.885   2.253  24.959  0.00  0.00    +0.079 C 
BRANCH   2  30
ATOM     30  C   UNL     1      -3.685   2.086  24.844  0.00  0.00    +0.225 C 
ATOM     31  O   UNL     1      -3.910   1.443  24.377  0.00  0.00    -0.275 OA
ATOM     32  N   UNL     1      -4.261   2.562  25.195  0.00  0.00    -0.274 N 
ATOM     33  C   UNL     1      -5.060   2.395  25.080  0.00  0.00    +0.125 C 
ATOM     34  C   UNL     1      -5.636   2.870  25.430  0.00  0.00    +0.164 C 
ATOM     35  O   UNL     1      -5.411   3.512  25.897  0.00  0.00    -0.350 OA
ATOM     36  C   UNL     1      -4.612   3.679  26.012  0.00  0.00    +0.164 C 
ATOM     37  C   UNL     1      -4.036   3.204  25.661  0.00  0.00    +0.125 C 
ENDBRANCH   2  30
ENDBRANCH   3   2
BRANCH  12  13
ATOM     13  C   UNL     1       1.533  -0.461  22.528  0.00  0.00    +0.208 C 
BRANCH  13  14
ATOM     14  S   UNL     1       2.299  -0.211  22.705  0.00  0.00    +0.015 S 
ATOM     15  O   UNL     1       2.306   0.253  22.023  0.00  0.00    -0.168 OA
ATOM     16  O   UNL     1       2.293  -0.675  23.388  0.00  0.00    -0.168 OA
BRANCH  14  17
ATOM     17  C   UNL     1       3.065   0.039  22.883  0.00  0.00    +0.106 A 
ATOM     18  C   UNL     1       3.585  -0.471  23.271  0.00  0.00    +0.019 A 
ATOM     19  C   UNL     1       4.352  -0.221  23.448  0.00  0.00    +0.013 A 
ATOM     20  C   UNL     1       4.597   0.538  23.238  0.00  0.00    +0.058 A 
ATOM     21 CL   UNL     1       5.363   0.787  23.416  0.00  0.00    -0.082 Cl
ATOM     22  C   UNL     1       4.076   1.047  22.850  0.00  0.00    +0.013 A 
ATOM     23  C   UNL     1       3.311   0.798  22.673  0.00  0.00    +0.019 A 
ENDBRANCH  14  17
ENDBRANCH  13  14
ENDBRANCH  12  13
TORSDOF 5
ENDMDL
MODEL 2
REMARK VINA RESULT:      -9.2      2.604      6.646
REMARK  Name = 
REMARK  5 active torsions:
REMARK  status: ('A' for Active; 'I' for Inactive)
REMARK    1  A    between atoms: C_2  and  C_3
REMARK    2  A    between atoms: C_2  and  C_30
REMARK    3  A    between atoms: C_12  and  C_13
REMARK    4  A    between atoms: C_13  and  S_14
REMARK    5  A    between atoms: S_14  and  C_17
REMARK                            x       y       z     vdW  Elec       q    Type
REMARK                         _______ _______ _______ _____ _____    ______ ____
ROOT
ATOM      3  C   UNL     1       0.350   0.234  23.744  0.00  0.00    +0.039 C 
ATOM      4  C   UNL     1       0.311  -0.512  24.096  0.00  0.00    +0.003 C 
ATOM      5  C   UNL     1      -0.407  -0.793  24.387  0.00  0.00    +0.001 C 
ATOM      6  C   UNL     1      -1.087  -0.330  24.327  0.00  0.00    +0.007 C 
ATOM      7  C   UNL     1      -1.126  -1.074  24.678  0.00  0.00    +0.000 C 
ATOM      8  C   UNL     1      -1.806  -0.611  24.618  0.00  0.00    +0.034 C 
ATOM      9  C   UNL     1      -2.485  -0.147  24.558  0.00  0.00    +0.022 A 
ATOM     10  C   UNL     1      -2.446   0.599  24.206  0.00  0.00    +0.061 A 
ATOM     11  N   UNL     1      -3.202   0.929  24.225  0.00  0.00    -0.246 NA
ATOM     12  C   UNL     1      -3.708   0.388  24.587  0.00  0.00    +0.112 A 
ATOM     24  S   UNL     1      -3.265  -0.276  24.793  0.00  0.00    -0.074 S 
ATOM     25  C   UNL     1      -1.727   0.880  23.915  0.00  0.00    +0.043 C 
ATOM     26  C   UNL     1      -1.688   1.626  23.564  0.00  0.00    +0.006 C 
ATOM     27  C   UNL     1      -1.047   0.417  23.975  0.00  0.00    +0.036 C 
ATOM     28  C   UNL     1      -0.329   0.698  23.684  0.00  0.00    +0.153 C 
ATOM     29  O   UNL     1      -0.289   1.443  23.333  0.00  0.00    -0.223 OA
ENDROOT
BRANCH   3   2
ATOM      1  C   UNL     1       1.428   1.172  23.800  0.00  0.00    +0.010 C 
ATOM      2  C   UNL     1       1.070   0.515  23.453  0.00  0.00    +0.079 C 
BRANCH   2  30
ATOM     30  C   UNL     1       1.431   0.138  22.815  0.00  0.00    +0.225 C 
ATOM     31  O   UNL     1       0.998  -0.384  22.344  0.00  0.00    -0.275 OA
ATOM     32  N   UNL     1       2.226   0.282  22.646  0.00  0.00    -0.274 N 
ATOM     33  C   UNL     1       2.587  -0.094  22.008  0.00  0.00    +0.125 C 
ATOM     34  C   UNL     1       3.382   0.050  21.839  0.00  0.00    +0.164 C 
ATOM     35  O   UNL     1       3.814   0.572  22.310  0.00  0.00    -0.350 OA
ATOM     36  C   UNL     1       3.453   0.948  22.947  0.00  0.00    +0.164 C 
ATOM     37  C   UNL     1       2.659   0.804  23.116  0.00  0.00    +0.125 C 
ENDBRANCH   2  30
ENDBRANCH   3   2
BRANCH  12  13
ATOM     13  C   UNL     1      -4.515   0.494  24.720  0.00  0.00    +0.208 C 
BRANCH  13  14
ATOM     14  S   UNL     1      -4.804   1.235  24.935  0.00  0.00    +0.015 S 
ATOM     15  O   UNL     1      -5.022   1.379  24.153  0.00  0.00    -0.168 OA
ATOM     16  O   UNL     1      -4.587   1.093  25.719  0.00  0.00    -0.168 OA
BRANCH  14  17
ATOM     17  C   UNL     1      -5.093   1.978  25.151  0.00  0.00    +0.106 A 
ATOM     18  C   UNL     1      -5.702   2.038  25.704  0.00  0.00    +0.019 A 
ATOM     19  C   UNL     1      -5.991   2.780  25.920  0.00  0.00    +0.013 A 
ATOM     20  C   UNL     1      -5.671   3.462  25.583  0.00  0.00    +0.058 A 
ATOM     21 CL   UNL     1      -5.960   4.203  25.799  0.00  0.00    -0.082 Cl
ATOM     22  C   UNL     1      -5.062   3.401  25.030  0.00  0.00    +0.013 A 
ATOM     23  C   UNL     1      -4.773   2.659  24.814  0.00  0.00    +0.019 A 
ENDBRANCH  14  17
ENDBRANCH  13  14
ENDBRANCH  12  13
TORSDOF 5
ENDMDL
MODEL 3
REMARK VINA RESULT:      -8.3      1.218      1.822
REMARK  Name = 
REMARK  5 active torsions:
REMARK  status: ('A' for Active; 'I' for Inactive)
REMARK    1  A    between atoms: C_2  and  C_3
REMARK    2  A    between atoms: C_2  and  C_30
REMARK    3  A    between atoms: C_12  and  C_13
REMARK    4  A    between atoms: C_13  and  S_14
REMARK    5  A    between atoms: S_14  and  C_17
REMARK                            x       y       z     vdW  Elec       q    Type
REMARK                         _______ _______ _______ _____ _____    ______ ____
ROOT
ATOM      3  C   UNL     1      -1.571   1.079  24.904  0.00  0.00    +0.039 C 
ATOM      4  C   UNL     1      -1.234   1.821  25.035  0.00  0.00    +0.003 C 
ATOM      5  C   UNL     1      -0.490   1.996  24.726  0.00  0.00    +0.001 C 
ATOM      6  C   UNL     1      -0.082   1.431  24.286  0.00  0.00    +0.007 C 
ATOM      7  C   UNL     1       0.254   2.171  24.417  0.00  0.00    +0.000 C 
ATOM      8  C   UNL     1       0.662   1.605  23.976  0.00  0.00    +0.034 C 
ATOM      9  C   UNL     1       1.070   1.040  23.536  0.00  0.00    +0.022 A 
ATOM     10  C   UNL     1       0.732   0.297  23.405  0.00  0.00    +0.061 A 
ATOM     11  N   UNL     1       1.261  -0.146  22.952  0.00  0.00    -0.246 NA
ATOM     12  C   UNL     1       1.925   0.321  22.804  0.00  0.00    +0.112 A 
ATOM     24  S   UNL     1       1.806   1.053  23.165  0.00  0.00    -0.074 S 
ATOM     25  C   UNL     1      -0.012   0.123  23.714  0.00  0.00    +0.043 C 
ATOM     26  C   UNL     1      -0.349  -0.619  23.582  0.00  0.00    +0.006 C 
ATOM     27  C   UNL     1      -0.420   0.688  24.154  0.00  0.00    +0.036 C 
ATOM     28  C   UNL     1      -1.164   0.514  24.463  0.00  0.00    +0.153 C 
ATOM     29  O   UNL     1      -1.501  -0.228  24.332  0.00  0.00    -0.223 OA
ENDROOT
BRANCH   3   2
ATOM      1  C   UNL     1      -2.454   0.174  25.572  0.00  0.00    +0.010 C 
ATOM      2  C   UNL     1      -2.316   0.905  25.213  0.00  0.00    +0.079 C 
BRANCH   2  30
ATOM     30  C   UNL     1      -2.923   1.461  25.164  0.00  0.00    +0.225 C 
ATOM     31  O   UNL     1      -2.760   2.262  25.281  0.00  0.00    -0.275 OA
ATOM     32  N   UNL     1      -3.694   1.217  24.998  0.00  0.00    -0.274 N 
ATOM     33  C   UNL     1      -4.301   1.773  24.949  0.00  0.00    +0.125 C 
ATOM     34  C   UNL     1      -5.071   1.529  24.784  0.00  0.00    +0.164 C 
ATOM     35  O   UNL     1      -5.234   0.729  24.667  0.00  0.00    -0.350 OA
ATOM     36  C   UNL     1      -4.628   0.174  24.716  0.00  0.00    +0.164 C 
ATOM     37  C   UNL     1      -3.857   0.417  24.882  0.00  0.00    +0.125 C 
ENDBRANCH   2  30
ENDBRANCH   3   2
BRANCH  12  13
ATOM     13  C   UNL     1       2.590   0.095  22.371  0.00  0.00    +0.208 C 
BRANCH  13  14
ATOM     14  S   UNL     1       3.321   0.026  22.746  0.00  0.00    +0.015 S 
ATOM     15  O   UNL     1       3.127  -0.739  22.985  0.00  0.00    -0.168 OA
ATOM     16  O   UNL     1       3.516   0.791  22.507  0.00  0.00    -0.168 OA
BRANCH  14  17
ATOM     17  C   UNL     1       4.053  -0.043  23.120  0.00  0.00    +0.106 A 
ATOM     18  C   UNL     1       4.259  -0.749  23.494  0.00  0.00    +0.019 A 
ATOM     19  C   UNL     1       4.992  -0.818  23.869  0.00  0.00    +0.013 A 
ATOM     20  C   UNL     1       5.517  -0.182  23.870  0.00  0.00    +0.058 A 
ATOM     21 CL   UNL     1       6.248  -0.251  24.244  0.00  0.00    -0.082 Cl
ATOM     22  C   UNL     1       5.309   0.524  23.495  0.00  0.00    +0.013 A 
ATOM     23  C   UNL     1       4.578   0.593  23.121  0.00  0.00    +0.019 A 
ENDBRANCH  14  17
ENDBRANCH  13  14
ENDBRANCH  12  13
TORSDOF 5
ENDMDL
MODEL 4
REMARK VINA RESULT:      -8.2      2.824      6.628
REMARK  Name = 
REMARK  5 active torsions:
REMARK  status: ('A' for Active; 'I' for Inactive)
REMARK    1  A    between atoms: C_2  and  C_3
REMARK    2  A    between atoms: C_2  and  C_30
REMARK    3  A    between atoms: C_12  and  C_13
REMARK    4  A    between atoms: C_13  and  S_14
REMARK    5  A    between atoms: S_14  and  C_17
REMARK                            x       y       z     vdW  Elec       q    Type
REMARK                         _______ _______ _______ _____ _____    ______ ____
ROOT
ATOM      3  C   UNL     1       1.972   0.709  23.133  0.00  0.00    +0.039 C 
ATOM      4  C   UNL     1       1.917   1.485  23.410  0.00  0.00    +0.003 C 
ATOM      5  C   UNL     1       1.246   1.728  23.823  0.00  0.00    +0.001 C 
ATOM      6  C   UNL     1       0.631   1.197  23.960  0.00  0.00    +0.007 C 
ATOM      7  C   UNL     1       0.575   1.971  24.235  0.00  0.00    +0.000 C 
ATOM      8  C   UNL     1      -0.041   1.440  24.373  0.00  0.00    +0.034 C 
ATOM      9  C   UNL     1      -0.656   0.908  24.510  0.00  0.00    +0.022 A 
ATOM     10  C   UNL     1      -0.600   0.132  24.233  0.00  0.00    +0.061 A 
ATOM     11  N   UNL     1      -1.290  -0.265  24.451  0.00  0.00    -0.246 NA
ATOM     12  C   UNL     1      -1.772   0.264  24.861  0.00  0.00    +0.112 A 
ATOM     24  S   UNL     1      -1.380   0.988  24.897  0.00  0.00    -0.074 S 
ATOM     25  C   UNL     1       0.070  -0.111  23.820  0.00  0.00    +0.043 C 
ATOM     26  C   UNL     1       0.126  -0.887  23.544  0.00  0.00    +0.006 C 
ATOM     27  C   UNL     1       0.686   0.420  23.683  0.00  0.00    +0.036 C 
ATOM     28  C   UNL     1       1.357   0.177  23.270  0.00  0.00    +0.153 C 
ATOM     29  O   UNL     1       1.413  -0.598  22.994  0.00  0.00    -0.223 OA
ENDROOT
BRANCH   3   2
ATOM      1  C   UNL     1       2.587  -0.127  22.148  0.00  0.00    +0.010 C 
ATOM      2  C   UNL     1       2.644   0.466  22.720  0.00  0.00    +0.079 C 
BRANCH   2  30
ATOM     30  C   UNL     1       3.374   0.815  22.879  0.00  0.00    +0.225 C 
ATOM     31  O   UNL     1       3.476   1.627  22.769  0.00  0.00    -0.275 OA
ATOM     32  N   UNL     1       4.004   0.354  23.148  0.00  0.00    -0.274 N 
ATOM     33  C   UNL     1       4.733   0.703  23.306  0.00  0.00    +0.125 C 
ATOM     34  C   UNL     1       5.362   0.242  23.575  0.00  0.00    +0.164 C 
ATOM     35  O   UNL     1       5.260  -0.569  23.685  0.00  0.00    -0.350 OA
ATOM     36  C   UNL     1       4.531  -0.918  23.526  0.00  0.00    +0.164 C 
ATOM     37  C   UNL     1       3.902  -0.457  23.258  0.00  0.00    +0.125 C 
ENDBRANCH   2  30
ENDBRANCH   3   2
BRANCH  12  13
ATOM     13  C   UNL     1      -2.515   0.097  25.178  0.00  0.00    +0.208 C 
BRANCH  13  14
ATOM     14  S   UNL     1      -2.948  -0.546  24.898  0.00  0.00    +0.015 S 
ATOM     15  O   UNL     1      -3.233  -0.085  24.277  0.00  0.00    -0.168 OA
ATOM     16  O   UNL     1      -2.664  -1.009  25.519  0.00  0.00    -0.168 OA
BRANCH  14  17
ATOM     17  C   UNL     1      -3.382  -1.190  24.618  0.00  0.00    +0.106 A 
ATOM     18  C   UNL     1      -3.967  -1.076  24.047  0.00  0.00    +0.019 A 
ATOM     19  C   UNL     1      -4.400  -1.721  23.767  0.00  0.00    +0.013 A 
ATOM     20  C   UNL     1      -4.249  -2.478  24.058  0.00  0.00    +0.058 A 
ATOM     21 CL   UNL     1      -4.682  -3.121  23.778  0.00  0.00    -0.082 Cl
ATOM     22  C   UNL     1      -3.663  -2.591  24.628  0.00  0.00    +0.013 A 
ATOM     23  C   UNL     1      -3.230  -1.948  24.908  0.00  0.00    +0.019 A 
ENDBRANCH  14  17
ENDBRANCH  13  14
ENDBRANCH  12  13
TORSDOF 5
ENDMDL
MODEL 5
REMARK VINA RESULT:      -7.8      2.787      6.878
REMARK  Name = 
REMARK  5 active torsions:
REMARK  status: ('A' for Active; 'I' for Inactive)
REMARK    1  A    between atoms: C_2  and  C_3
REMARK    2  A    between atoms: C_2  and  C_30
REMARK    3  A    between atoms: C_12  and  C_13
REMARK    4  A    between atoms: C_13  and  S_14
REMARK    5  A    between atoms: S_14  and  C_17
REMARK                            x       y       z     vdW  Elec       q    Type
REMARK                         _______ _______ _______ _____ _____    ______ ____
ROOT
ATOM      3  C   UNL     1       0.400   1.195  23.901  0.00  0.00    +0.039 C 
ATOM      4  C   UNL     1       0.700   1.821  24.349  0.00  0.00    +0.003 C 
ATOM      5  C   UNL     1       0.195   2.419  24.609  0.00  0.00    +0.001 C 
ATOM      6  C   UNL     1      -0.607   2.393  24.423  0.00  0.00    +0.007 C 
ATOM      7  C   UNL     1      -0.309   3.017  24.870  0.00  0.00    +0.000 C 
ATOM      8  C   UNL     1      -1.112   2.991  24.683  0.00  0.00    +0.034 C 
ATOM      9  C   UNL     1      -1.915   2.965  24.497  0.00  0.00    +0.022 A 
ATOM     10  C   UNL     1      -2.214   2.339  24.049  0.00  0.00    +0.061 A 
ATOM     11  N   UNL     1      -3.024   2.460  23.951  0.00  0.00    -0.246 NA
ATOM     12  C   UNL     1      -3.226   3.160  24.338  0.00  0.00    +0.112 A 
ATOM     24  S   UNL     1      -2.541   3.471  24.675  0.00  0.00    -0.074 S 
ATOM     25  C   UNL     1      -1.710   1.741  23.788  0.00  0.00    +0.043 C 
ATOM     26  C   UNL     1      -2.008   1.115  23.340  0.00  0.00    +0.006 C 
ATOM     27  C   UNL     1      -0.906   1.767  23.975  0.00  0.00    +0.036 C 
ATOM     28  C   UNL     1      -0.402   1.169  23.714  0.00  0.00    +0.153 C 
ATOM     29  O   UNL     1      -0.701   0.543  23.266  0.00  0.00    -0.223 OA
ENDROOT
BRANCH   3   2
ATOM      1  C   UNL     1       0.624  -0.174  23.556  0.00  0.00    +0.010 C 
ATOM      2  C   UNL     1       0.905   0.597  23.640  0.00  0.00    +0.079 C 
BRANCH   2  30
ATOM     30  C   UNL     1       1.692   0.770  23.463  0.00  0.00    +0.225 C 
ATOM     31  O   UNL     1       2.126   1.270  23.957  0.00  0.00    -0.275 OA
ATOM     32  N   UNL     1       2.046   0.444  22.792  0.00  0.00    -0.274 N 
ATOM     33  C   UNL     1       2.832   0.617  22.616  0.00  0.00    +0.125 C 
ATOM     34  C   UNL     1       3.186   0.291  21.945  0.00  0.00    +0.164 C 
ATOM     35  O   UNL     1       2.752  -0.208  21.452  0.00  0.00    -0.350 OA
ATOM     36  C   UNL     1       1.966  -0.381  21.629  0.00  0.00    +0.164 C 
ATOM     37  C   UNL     1       1.612  -0.055  22.299  0.00  0.00    +0.125 C 
ENDBRANCH   2  30
ENDBRANCH   3   2
BRANCH  12  13
ATOM     13  C   UNL     1      -3.981   3.490  24.381  0.00  0.00    +0.208 C 
BRANCH  13  14
ATOM     14  S   UNL     1      -4.570   3.116  24.821  0.00  0.00    +0.015 S 
ATOM     15  O   UNL     1      -4.844   2.744  24.138  0.00  0.00    -0.168 OA
ATOM     16  O   UNL     1      -4.296   3.489  25.504  0.00  0.00    -0.168 OA
BRANCH  14  17
ATOM     17  C   UNL     1      -5.159   2.742  25.262  0.00  0.00    +0.106 A 
ATOM     18  C   UNL     1      -5.571   2.104  24.940  0.00  0.00    +0.019 A 
ATOM     19  C   UNL     1      -6.161   1.730  25.381  0.00  0.00    +0.013 A 
ATOM     20  C   UNL     1      -6.338   1.995  26.142  0.00  0.00    +0.058 A 
ATOM     21 CL   UNL     1      -6.926   1.621  26.582  0.00  0.00    -0.082 Cl
ATOM     22  C   UNL     1      -5.925   2.634  26.462  0.00  0.00    +0.013 A 
ATOM     23  C   UNL     1      -5.336   3.007  26.023  0.00  0.00    +0.019 A 
ENDBRANCH  14  17
ENDBRANCH  13  14
ENDBRANCH  12  13
TORSDOF 5
ENDMDL
MODEL 6
REMARK VINA RESULT:      -7.2     15.173     17.979
REMARK  Name = 
REMARK  5 active torsions:
REMARK  status: ('A' for Active; 'I' for Inactive)
REMARK    1  A    between atoms: C_2  and  C_3
REMARK    2  A    between atoms: C_2  and  C_30
REMARK    3  A    between atoms: C_12  and  C_13
REMARK    4  A    between atoms: C_13  and  S_14
REMARK    5  A    between atoms: S_14  and  C_17
REMARK                            x       y       z     vdW  Elec       q    Type
REMARK                         _______ _______ _______ _____ _____    ______ ____
ROOT
ATOM      3  C   UNL     1      13.801  -6.925  30.408  0.00  0.00    +0.039 C 
ATOM      4  C   UNL     1      13.536  -6.171  30.617  0.00  0.00    +0.003 C 
ATOM      5  C   UNL     1      12.830  -6.083  31.033  0.00  0.00    +0.001 C 
ATOM      6  C   UNL     1      12.388  -6.748  31.240  0.00  0.00    +0.007 C 
ATOM      7  C   UNL     1      12.124  -5.996  31.449  0.00  0.00    +0.000 C 
ATOM      8  C   UNL     1      11.681  -6.660  31.656  0.00  0.00    +0.034 C 
ATOM      9  C   UNL     1      11.239  -7.325  31.863  0.00  0.00    +0.022 A 
ATOM     10  C   UNL     1      11.504  -8.079  31.654  0.00  0.00    +0.061 A 
ATOM     11  N   UNL     1      10.954  -8.627  31.932  0.00  0.00    -0.246 NA
ATOM     12  C   UNL     1      10.350  -8.215  32.312  0.00  0.00    +0.112 A 
ATOM     24  S   UNL     1      10.526  -7.410  32.270  0.00  0.00    -0.074 S 
ATOM     25  C   UNL     1      12.210  -8.166  31.238  0.00  0.00    +0.043 C 
ATOM     26  C   UNL     1      12.475  -8.919  31.029  0.00  0.00    +0.006 C 
ATOM     27  C   UNL     1      12.653  -7.502  31.031  0.00  0.00    +0.036 C 
ATOM     28  C   UNL     1      13.359  -7.589  30.615  0.00  0.00    +0.153 C 
ATOM     29  O   UNL     1      13.624  -8.342  30.406  0.00  0.00    -0.223 OA
ENDROOT
BRANCH   3   2
ATOM      1  C   UNL     1      14.502  -7.311  29.222  0.00  0.00    +0.010 C 
ATOM      2  C   UNL     1      14.509  -7.012  29.992  0.00  0.00    +0.079 C 
BRANCH   2  30
ATOM     30  C   UNL     1      15.223  -6.801  30.345  0.00  0.00    +0.225 C 
ATOM     31  O   UNL     1      15.351  -6.958  31.146  0.00  0.00    -0.275 OA
ATOM     32  N   UNL     1      15.812  -6.431  29.898  0.00  0.00    -0.274 N 
ATOM     33  C   UNL     1      16.526  -6.220  30.252  0.00  0.00    +0.125 C 
ATOM     34  C   UNL     1      17.114  -5.851  29.806  0.00  0.00    +0.164 C 
ATOM     35  O   UNL     1      16.986  -5.695  29.006  0.00  0.00    -0.350 OA
ATOM     36  C   UNL     1      16.272  -5.906  28.653  0.00  0.00    +0.164 C 
ATOM     37  C   UNL     1      15.684  -6.275  29.099  0.00  0.00    +0.125 C 
ENDBRANCH   2  30
ENDBRANCH   3   2
BRANCH  12  13
ATOM     13  C   UNL     1       9.686  -8.548  32.672  0.00  0.00    +0.208 C 
BRANCH  13  14
ATOM     14  S   UNL     1       9.056  -8.810  32.210  0.00  0.00    +0.015 S 
ATOM     15  O   UNL     1       9.373  -9.571  32.208  0.00  0.00    -0.168 OA
ATOM     16  O   UNL     1       8.737  -8.049  32.212  0.00  0.00    -0.168 OA
BRANCH  14  17
ATOM     17  C   UNL     1       8.424  -9.073  31.748  0.00  0.00    +0.106 A 
ATOM     18  C   UNL     1       7.870  -8.532  31.463  0.00  0.00    +0.019 A 
ATOM     19  C   UNL     1       7.238  -8.795  31.001  0.00  0.00    +0.013 A 
ATOM     20  C   UNL     1       7.161  -9.597  30.825  0.00  0.00    +0.058 A 
ATOM     21 CL   UNL     1       6.530  -9.859  30.363  0.00  0.00    -0.082 Cl
ATOM     22  C   UNL     1       7.716 -10.137  31.111  0.00  0.00    +0.013 A 
ATOM     23  C   UNL     1       8.347  -9.875  31.572  0.00  0.00    +0.019 A 
ENDBRANCH  14  17
ENDBRANCH  13  14
ENDBRANCH  12  13
TORSDOF 5
ENDMDL
MODEL 7
REMARK VINA RESULT:      -6.8     16.313     17.750
REMARK  Name = 
REMARK  5 active torsions:
REMARK  status: ('A' for Active; 'I' for Inactive)
REMARK    1  A    between atoms: C_2  and  C_3
REMARK    2  A    between atoms: C_2  and  C_30
REMARK    3  A    between atoms: C_12  and  C_13
REMARK    4  A    between atoms: C_13  and  S_14
REMARK    5  A    between atoms: S_14  and  C_17
REMARK                            x       y       z     vdW  Elec       q    Type
REMARK                         _______ _______ _______ _____ _____    ______ ____
ROOT
ATOM      3  C   UNL     1      12.041  -7.023  31.728  0.00  0.00    +0.039 C 
ATOM      4  C   UNL     1      11.967  -7.088  30.908  0.00  0.00    +0.003 C 
ATOM      5  C   UNL     1      12.556  -6.787  30.416  0.00  0.00    +0.001 C 
ATOM      6  C   UNL     1      13.218  -6.420  30.742  0.00  0.00    +0.007 C 
ATOM      7  C   UNL     1      13.144  -6.485  29.924  0.00  0.00    +0.000 C 
ATOM      8  C   UNL     1      13.807  -6.117  30.250  0.00  0.00    +0.034 C 
ATOM      9  C   UNL     1      14.469  -5.751  30.576  0.00  0.00    +0.022 A 
ATOM     10  C   UNL     1      14.544  -5.685  31.396  0.00  0.00    +0.061 A 
ATOM     11  N   UNL     1      15.254  -5.298  31.556  0.00  0.00    -0.246 NA
ATOM     12  C   UNL     1      15.619  -5.123  30.838  0.00  0.00    +0.112 A 
ATOM     24  S   UNL     1      15.134  -5.403  30.232  0.00  0.00    -0.074 S 
ATOM     25  C   UNL     1      13.955  -5.987  31.888  0.00  0.00    +0.043 C 
ATOM     26  C   UNL     1      14.029  -5.922  32.707  0.00  0.00    +0.006 C 
ATOM     27  C   UNL     1      13.292  -6.354  31.562  0.00  0.00    +0.036 C 
ATOM     28  C   UNL     1      12.704  -6.656  32.054  0.00  0.00    +0.153 C 
ATOM     29  O   UNL     1      12.778  -6.591  32.873  0.00  0.00    -0.223 OA
ENDROOT
BRANCH   3   2
ATOM      1  C   UNL     1      11.008  -6.817  32.695  0.00  0.00    +0.010 C 
ATOM      2  C   UNL     1      11.452  -7.325  32.221  0.00  0.00    +0.079 C 
BRANCH   2  30
ATOM     30  C   UNL     1      11.307  -8.137  32.239  0.00  0.00    +0.225 C 
ATOM     31  O   UNL     1      11.937  -8.670  32.217  0.00  0.00    -0.275 OA
ATOM     32  N   UNL     1      10.531  -8.417  32.279  0.00  0.00    -0.274 N 
ATOM     33  C   UNL     1      10.386  -9.228  32.298  0.00  0.00    +0.125 C 
ATOM     34  C   UNL     1       9.611  -9.508  32.338  0.00  0.00    +0.164 C 
ATOM     35  O   UNL     1       8.982  -8.976  32.360  0.00  0.00    -0.350 OA
ATOM     36  C   UNL     1       9.127  -8.165  32.342  0.00  0.00    +0.164 C 
ATOM     37  C   UNL     1       9.902  -7.885  32.302  0.00  0.00    +0.125 C 
ENDBRANCH   2  30
ENDBRANCH   3   2
BRANCH  12  13
ATOM     13  C   UNL     1      16.342  -4.737  30.742  0.00  0.00    +0.208 C 
BRANCH  13  14
ATOM     14  S   UNL     1      16.405  -3.933  30.914  0.00  0.00    +0.015 S 
ATOM     15  O   UNL     1      16.742  -4.115  31.644  0.00  0.00    -0.168 OA
ATOM     16  O   UNL     1      16.068  -3.750  30.183  0.00  0.00    -0.168 OA
BRANCH  14  17
ATOM     17  C   UNL     1      16.469  -3.128  31.086  0.00  0.00    +0.106 A 
ATOM     18  C   UNL     1      16.502  -2.876  31.870  0.00  0.00    +0.019 A 
ATOM     19  C   UNL     1      16.565  -2.071  32.042  0.00  0.00    +0.013 A 
ATOM     20  C   UNL     1      16.596  -1.519  31.430  0.00  0.00    +0.058 A 
ATOM     21 CL   UNL     1      16.659  -0.716  31.602  0.00  0.00    -0.082 Cl
ATOM     22  C   UNL     1      16.562  -1.773  30.645  0.00  0.00    +0.013 A 
ATOM     23  C   UNL     1      16.499  -2.576  30.473  0.00  0.00    +0.019 A 
ENDBRANCH  14  17
ENDBRANCH  13  14
ENDBRANCH  12  13
TORSDOF 5
ENDMDL
MODEL 8
REMARK VINA RESULT:      -6.8     17.982     19.284
REMARK  Name = 
REMARK  5 active torsions:
REMARK  status: ('A' for Active; 'I' for Inactive)
REMARK    1  A    between atoms: C_2  and  C_3
REMARK    2  A    between atoms: C_2  and  C_30
REMARK    3  A    between atoms: C_12  and  C_13
REMARK    4  A    between atoms: C_13  and  S_14
REMARK    5  A    between atoms: S_14  and  C_17
REMARK                            x       y       z     vdW  Elec       q    Type
REMARK                         _______ _______ _______ _____ _____    ______ ____
ROOT
ATOM      3  C   UNL     1      15.550  -6.925  28.401  0.00  0.00    +0.039 C 
ATOM      4  C   UNL     1      14.758  -7.039  28.605  0.00  0.00    +0.003 C 
ATOM      5  C   UNL     1      14.438  -6.642  29.253  0.00  0.00    +0.001 C 
ATOM      6  C   UNL     1      14.907  -6.130  29.696  0.00  0.00    +0.007 C 
ATOM      7  C   UNL     1      14.117  -6.244  29.900  0.00  0.00    +0.000 C 
ATOM      8  C   UNL     1      14.587  -5.731  30.344  0.00  0.00    +0.034 C 
ATOM      9  C   UNL     1      15.057  -5.219  30.787  0.00  0.00    +0.022 A 
ATOM     10  C   UNL     1      15.849  -5.104  30.583  0.00  0.00    +0.061 A 
ATOM     11  N   UNL     1      16.175  -4.569  31.119  0.00  0.00    -0.246 NA
ATOM     12  C   UNL     1      15.586  -4.353  31.655  0.00  0.00    +0.112 A 
ATOM     24  S   UNL     1      14.895  -4.754  31.449  0.00  0.00    -0.074 S 
ATOM     25  C   UNL     1      16.169  -5.502  29.936  0.00  0.00    +0.043 C 
ATOM     26  C   UNL     1      16.960  -5.387  29.732  0.00  0.00    +0.006 C 
ATOM     27  C   UNL     1      15.699  -6.015  29.492  0.00  0.00    +0.036 C 
ATOM     28  C   UNL     1      16.020  -6.412  28.845  0.00  0.00    +0.153 C 
ATOM     29  O   UNL     1      16.811  -6.298  28.641  0.00  0.00    -0.223 OA
ENDROOT
BRANCH   3   2
ATOM      1  C   UNL     1      16.153  -6.898  27.105  0.00  0.00    +0.010 C 
ATOM      2  C   UNL     1      15.870  -7.323  27.753  0.00  0.00    +0.079 C 
BRANCH   2  30
ATOM     30  C   UNL     1      15.907  -8.147  27.754  0.00  0.00    +0.225 C 
ATOM     31  O   UNL     1      16.116  -8.551  28.443  0.00  0.00    -0.275 OA
ATOM     32  N   UNL     1      15.736  -8.569  27.065  0.00  0.00    -0.274 N 
ATOM     33  C   UNL     1      15.773  -9.392  27.065  0.00  0.00    +0.125 C 
ATOM     34  C   UNL     1      15.601  -9.813  26.377  0.00  0.00    +0.164 C 
ATOM     35  O   UNL     1      15.392  -9.410  25.689  0.00  0.00    -0.350 OA
ATOM     36  C   UNL     1      15.355  -8.586  25.688  0.00  0.00    +0.164 C 
ATOM     37  C   UNL     1      15.527  -8.165  26.376  0.00  0.00    +0.125 C 
ENDBRANCH   2  30
ENDBRANCH   3   2
BRANCH  12  13
ATOM     13  C   UNL     1      15.672  -3.827  32.285  0.00  0.00    +0.208 C 
BRANCH  13  14
ATOM     14  S   UNL     1      16.002  -3.082  32.158  0.00  0.00    +0.015 S 
ATOM     15  O   UNL     1      16.735  -3.362  32.412  0.00  0.00    -0.168 OA
ATOM     16  O   UNL     1      15.269  -2.801  31.903  0.00  0.00    -0.168 OA
BRANCH  14  17
ATOM     17  C   UNL     1      16.332  -2.336  32.030  0.00  0.00    +0.106 A 
ATOM     18  C   UNL     1      16.295  -1.992  31.282  0.00  0.00    +0.019 A 
ATOM     19  C   UNL     1      16.625  -1.246  31.154  0.00  0.00    +0.013 A 
ATOM     20  C   UNL     1      16.991  -0.845  31.776  0.00  0.00    +0.058 A 
ATOM     21 CL   UNL     1      17.320  -0.100  31.648  0.00  0.00    -0.082 Cl
ATOM     22  C   UNL     1      17.026  -1.190  32.524  0.00  0.00    +0.013 A 
ATOM     23  C   UNL     1      16.697  -1.935  32.652  0.00  0.00    +0.019 A 
ENDBRANCH  14  17
ENDBRANCH  13  14
ENDBRANCH  12  13
TORSDOF 5
ENDMDL
MODEL 9
REMARK VINA RESULT:      -6.0     15.875     17.440
REMARK  Name = 
REMARK  5 active torsions:
REMARK  status: ('A' for Active; 'I' for Inactive)
REMARK    1  A    between atoms: C_2  and  C_3
REMARK    2  A    between atoms: C_2  and  C_30
REMARK    3  A    between atoms: C_12  and  C_13
REMARK    4  A    between atoms: C_13  and  S_14
REMARK    5  A    between atoms: S_14  and  C_17
REMARK                            x       y       z     vdW  Elec       q    Type
REMARK                         _______ _______ _______ _____ _____    ______ ____
ROOT
ATOM      3  C   UNL     1      11.450  -7.854  31.596  0.00  0.00    +0.039 C 
ATOM      4  C   UNL     1      11.294  -7.068  31.392  0.00  0.00    +0.003 C 
ATOM      5  C   UNL     1      11.839  -6.643  30.944  0.00  0.00    +0.001 C 
ATOM      6  C   UNL     1      12.540  -7.000  30.697  0.00  0.00    +0.007 C 
ATOM      7  C   UNL     1      12.384  -6.217  30.495  0.00  0.00    +0.000 C 
ATOM      8  C   UNL     1      13.085  -6.575  30.248  0.00  0.00    +0.034 C 
ATOM      9  C   UNL     1      13.786  -6.932  30.001  0.00  0.00    +0.022 A 
ATOM     10  C   UNL     1      13.942  -7.717  30.204  0.00  0.00    +0.061 A 
ATOM     11  N   UNL     1      14.675  -7.921  29.885  0.00  0.00    -0.246 NA
ATOM     12  C   UNL     1      14.972  -7.264  29.485  0.00  0.00    +0.112 A 
ATOM     24  S   UNL     1      14.422  -6.653  29.557  0.00  0.00    -0.074 S 
ATOM     25  C   UNL     1      13.397  -8.143  30.653  0.00  0.00    +0.043 C 
ATOM     26  C   UNL     1      13.554  -8.927  30.856  0.00  0.00    +0.006 C 
ATOM     27  C   UNL     1      12.696  -7.786  30.900  0.00  0.00    +0.036 C 
ATOM     28  C   UNL     1      12.151  -8.211  31.349  0.00  0.00    +0.153 C 
ATOM     29  O   UNL     1      12.307  -8.996  31.552  0.00  0.00    -0.223 OA
ENDROOT
BRANCH   3   2
ATOM      1  C   UNL     1      10.954  -9.102  32.085  0.00  0.00    +0.010 C 
ATOM      2  C   UNL     1      10.905  -8.280  32.045  0.00  0.00    +0.079 C 
BRANCH   2  30
ATOM     30  C   UNL     1      10.310  -7.882  32.455  0.00  0.00    +0.225 C 
ATOM     31  O   UNL     1      10.486  -7.192  32.873  0.00  0.00    -0.275 OA
ATOM     32  N   UNL     1       9.537  -8.174  32.448  0.00  0.00    -0.274 N 
ATOM     33  C   UNL     1       8.943  -7.777  32.858  0.00  0.00    +0.125 C 
ATOM     34  C   UNL     1       8.171  -8.068  32.851  0.00  0.00    +0.164 C 
ATOM     35  O   UNL     1       7.995  -8.757  32.433  0.00  0.00    -0.350 OA
ATOM     36  C   UNL     1       8.590  -9.154  32.023  0.00  0.00    +0.164 C 
ATOM     37  C   UNL     1       9.361  -8.863  32.030  0.00  0.00    +0.125 C 
ENDBRANCH   2  30
ENDBRANCH   3   2
BRANCH  12  13
ATOM     13  C   UNL     1      15.691  -7.225  29.083  0.00  0.00    +0.208 C 
BRANCH  13  14
ATOM     14  S   UNL     1      15.759  -7.546  28.327  0.00  0.00    +0.015 S 
ATOM     15  O   UNL     1      15.474  -6.844  28.002  0.00  0.00    -0.168 OA
ATOM     16  O   UNL     1      16.045  -8.249  28.651  0.00  0.00    -0.168 OA
BRANCH  14  17
ATOM     17  C   UNL     1      15.827  -7.869  27.570  0.00  0.00    +0.106 A 
ATOM     18  C   UNL     1      15.656  -7.406  26.909  0.00  0.00    +0.019 A 
ATOM     19  C   UNL     1      15.724  -7.729  26.151  0.00  0.00    +0.013 A 
ATOM     20  C   UNL     1      15.963  -8.512  26.057  0.00  0.00    +0.058 A 
ATOM     21 CL   UNL     1      16.031  -8.834  25.301  0.00  0.00    -0.082 Cl
ATOM     22  C   UNL     1      16.134  -8.974  26.719  0.00  0.00    +0.013 A 
ATOM     23  C   UNL     1      16.066  -8.652  27.475  0.00  0.00    +0.019 A 
ENDBRANCH  14  17
ENDBRANCH  13  14
ENDBRANCH  12  13
TORSDOF 5
ENDMDL
