MODEL 1
REMARK VINA RESULT:     -13.2      0.000      0.000
REMARK  Name = 
REMARK  7 active torsions:
REMARK  status: ('A' for Active; 'I' for Inactive)
REMARK    1  A    between atoms: C_2  and  C_3
REMARK    2  A    between atoms: C_2  and  C_26
REMARK    3  A    between atoms: C_10  and  N_11
REMARK    4  A    between atoms: C_12  and  C_14
REMARK    5  A    between atoms: C_14  and  C_15
REMARK    6  A    between atoms: N_28  and  C_29
REMARK    7  A    between atoms: C_29  and  C_30
REMARK                            x       y       z     vdW  Elec       q    Type
REMARK                         _______ _______ _______ _____ _____    ______ ____
ROOT
ATOM      3  C   UNL     1      -3.999   3.274  24.837  0.00  0.00    +0.039 C 
ATOM      4  C   UNL     1      -4.594   3.321  25.408  0.00  0.00    +0.003 C 
ATOM      5  C   UNL     1      -5.048   2.657  25.585  0.00  0.00    +0.000 C 
ATOM      6  C   UNL     1      -4.909   1.945  25.192  0.00  0.00    +0.002 C 
ATOM      7  C   UNL     1      -5.503   1.992  25.761  0.00  0.00    +0.000 C 
ATOM      8  C   UNL     1      -5.364   1.280  25.368  0.00  0.00    +0.002 C 
ATOM      9  C   UNL     1      -5.225   0.568  24.975  0.00  0.00    +0.022 C 
ATOM     10  C   UNL     1      -4.630   0.522  24.405  0.00  0.00    +0.095 C 
ATOM     21  C   UNL     1      -4.175   1.186  24.228  0.00  0.00    +0.022 C 
ATOM     22  C   UNL     1      -3.581   1.140  23.658  0.00  0.00    +0.002 C 
ATOM     23  C   UNL     1      -4.314   1.899  24.621  0.00  0.00    +0.032 C 
ATOM     24  C   UNL     1      -3.860   2.563  24.444  0.00  0.00    +0.152 C 
ATOM     25  O   UNL     1      -3.265   2.517  23.874  0.00  0.00    -0.223 OA
ENDROOT
BRANCH  10  11
ATOM     11  N   UNL     1      -4.491  -0.190  24.011  0.00  0.00    -0.207 NA
ATOM     12  C   UNL     1      -4.308  -0.870  24.441  0.00  0.00    +0.246 C 
ATOM     13  O   UNL     1      -4.263  -0.838  25.265  0.00  0.00    -0.273 OA
BRANCH  12  14
ATOM     14  C   UNL     1      -4.169  -1.582  24.048  0.00  0.00    +0.113 C 
BRANCH  14  15
ATOM     15  C   UNL     1      -3.556  -2.076  24.292  0.00  0.00    -0.013 A 
ATOM     16  C   UNL     1      -2.776  -1.898  24.088  0.00  0.00    -0.004 A 
ATOM     17  C   UNL     1      -2.162  -2.393  24.333  0.00  0.00    -0.000 A 
ATOM     18  C   UNL     1      -2.328  -3.064  24.782  0.00  0.00    -0.000 A 
ATOM     19  C   UNL     1      -3.108  -3.242  24.986  0.00  0.00    -0.000 A 
ATOM     20  C   UNL     1      -3.721  -2.748  24.742  0.00  0.00    -0.004 A 
ENDBRANCH  14  15
ENDBRANCH  12  14
ENDBRANCH  10  11
BRANCH   3   2
ATOM      1  C   UNL     1      -3.737   4.413  24.012  0.00  0.00    +0.010 C 
ATOM      2  C   UNL     1      -3.544   3.940  24.661  0.00  0.00    +0.081 C 
BRANCH   2  26
ATOM     26  C   UNL     1      -2.896   4.133  25.133  0.00  0.00    +0.241 C 
ATOM     27  O   UNL     1      -2.984   4.669  25.755  0.00  0.00    -0.273 OA
ATOM     28  N   UNL     1      -2.160   3.791  24.984  0.00  0.00    -0.199 NA
BRANCH  28  29
ATOM     29  C   UNL     1      -1.512   3.984  25.456  0.00  0.00    +0.160 C 
BRANCH  29  30
ATOM     30  C   UNL     1      -0.882   3.457  25.529  0.00  0.00    +0.081 A 
ATOM     31  N   UNL     1      -0.361   3.347  24.899  0.00  0.00    -0.246 NA
ATOM     32  C   UNL     1       0.269   2.820  24.973  0.00  0.00    +0.099 A 
ATOM     33  C   UNL     1       0.378   2.401  25.676  0.00  0.00    +0.021 A 
ATOM     34  C   UNL     1      -0.144   2.511  26.305  0.00  0.00    +0.003 A 
ATOM     35  C   UNL     1      -0.775   3.039  26.232  0.00  0.00    +0.017 A 
ENDBRANCH  29  30
ENDBRANCH  28  29
ENDBRANCH   2  26
ENDBRANCH   3   2
TORSDOF 7
ENDMDL
MODEL 2
REMARK VINA RESULT:     -12.9      1.778      3.716
REMARK  Name = 
REMARK  7 active torsions:
REMARK  status: ('A' for Active; 'I' for Inactive)
REMARK    1  A    between atoms: C_2  and  C_3
REMARK    2  A    between atoms: C_2  and  C_26
REMARK    3  A    between atoms: C_10  and  N_11
REMARK    4  A    between atoms: C_12  and  C_14
REMARK    5  A    between atoms: C_14  and  C_15
REMARK    6  A    between atoms: N_28  and  C_29
REMARK    7  A    between atoms: C_29  and  C_30
REMARK                            x       y       z     vdW  Elec       q    Type
REMARK                         _______ _______ _______ _____ _____    ______ ____
ROOT
ATOM      3  C   UNL     1      -0.246   2.278  25.195  0.00  0.00    +0.039 C 
ATOM      4  C   UNL     1       0.185   2.351  24.494  0.00  0.00    +0.003 C 
ATOM      5  C   UNL     1       0.315   1.691  24.019  0.00  0.00    +0.000 C 
ATOM      6  C   UNL     1       0.014   0.956  24.242  0.00  0.00    +0.002 C 
ATOM      7  C   UNL     1       0.444   1.030  23.543  0.00  0.00    +0.000 C 
ATOM      8  C   UNL     1       0.144   0.295  23.766  0.00  0.00    +0.002 C 
ATOM      9  C   UNL     1      -0.157  -0.440  23.990  0.00  0.00    +0.022 C 
ATOM     10  C   UNL     1      -0.588  -0.514  24.690  0.00  0.00    +0.095 C 
ATOM     21  C   UNL     1      -0.718   0.147  25.166  0.00  0.00    +0.022 C 
ATOM     22  C   UNL     1      -1.149   0.073  25.866  0.00  0.00    +0.002 C 
ATOM     23  C   UNL     1      -0.417   0.882  24.943  0.00  0.00    +0.032 C 
ATOM     24  C   UNL     1      -0.547   1.543  25.418  0.00  0.00    +0.152 C 
ATOM     25  O   UNL     1      -0.978   1.469  26.118  0.00  0.00    -0.223 OA
ENDROOT
BRANCH  10  11
ATOM     11  N   UNL     1      -0.889  -1.249  24.913  0.00  0.00    -0.207 NA
ATOM     12  C   UNL     1      -1.326  -1.697  24.376  0.00  0.00    +0.246 C 
ATOM     13  O   UNL     1      -1.463  -1.409  23.614  0.00  0.00    -0.273 OA
BRANCH  12  14
ATOM     14  C   UNL     1      -1.627  -2.432  24.600  0.00  0.00    +0.113 C 
BRANCH  14  15
ATOM     15  C   UNL     1      -2.439  -2.571  24.573  0.00  0.00    -0.013 A 
ATOM     16  C   UNL     1      -2.893  -2.495  25.258  0.00  0.00    -0.004 A 
ATOM     17  C   UNL     1      -3.706  -2.635  25.231  0.00  0.00    -0.000 A 
ATOM     18  C   UNL     1      -4.065  -2.850  24.521  0.00  0.00    -0.000 A 
ATOM     19  C   UNL     1      -3.610  -2.927  23.836  0.00  0.00    -0.000 A 
ATOM     20  C   UNL     1      -2.798  -2.787  23.862  0.00  0.00    -0.004 A 
ENDBRANCH  14  15
ENDBRANCH  12  14
ENDBRANCH  10  11
BRANCH   3   2
ATOM      1  C   UNL     1       0.006   3.006  26.399  0.00  0.00    +0.010 C 
ATOM      2  C   UNL     1      -0.376   2.939  25.671  0.00  0.00    +0.081 C 
BRANCH   2  26
ATOM     26  C   UNL     1      -0.888   3.534  25.418  0.00  0.00    +0.241 C 
ATOM     27  O   UNL     1      -0.589   4.201  25.033  0.00  0.00    -0.273 OA
ATOM     28  N   UNL     1      -1.700   3.464  25.550  0.00  0.00    -0.199 NA
BRANCH  28  29
ATOM     29  C   UNL     1      -2.212   4.058  25.297  0.00  0.00    +0.160 C 
BRANCH  29  30
ATOM     30  C   UNL     1      -3.025   3.918  25.268  0.00  0.00    +0.081 A 
ATOM     31  N   UNL     1      -3.469   3.918  25.963  0.00  0.00    -0.246 NA
ATOM     32  C   UNL     1      -4.281   3.778  25.932  0.00  0.00    +0.099 A 
ATOM     33  C   UNL     1      -4.650   3.639  25.207  0.00  0.00    +0.021 A 
ATOM     34  C   UNL     1      -4.205   3.639  24.512  0.00  0.00    +0.003 A 
ATOM     35  C   UNL     1      -3.392   3.779  24.542  0.00  0.00    +0.017 A 
ENDBRANCH  29  30
ENDBRANCH  28  29
ENDBRANCH   2  26
ENDBRANCH   3   2
TORSDOF 7
ENDMDL
MODEL 3
REMARK VINA RESULT:     -12.6      2.896      5.118
REMARK  Name = 
REMARK  7 active torsions:
REMARK  status: ('A' for Active; 'I' for Inactive)
REMARK    1  A    between atoms: C_2  and  C_3
REMARK    2  A    between atoms: C_2  and  C_26
REMARK    3  A    between atoms: C_10  and  N_11
REMARK    4  A    between atoms: C_12  and  C_14
REMARK    5  A    between atoms: C_14  and  C_15
REMARK    6  A    between atoms: N_28  and  C_29
REMARK    7  A    between atoms: C_29  and  C_30
REMARK                            x       y       z     vdW  Elec       q    Type
REMARK                         _______ _______ _______ _____ _____    ______ ____
ROOT
ATOM      3  C   UNL     1       0.058   0.793  23.889  0.00  0.00    +0.039 C 
ATOM      4  C   UNL     1       0.521   1.350  24.285  0.00  0.00    +0.003 C 
ATOM      5  C   UNL     1       0.188   2.062  24.533  0.00  0.00    +0.000 C 
ATOM      6  C   UNL     1      -0.608   2.219  24.386  0.00  0.00    +0.002 C 
ATOM      7  C   UNL     1      -0.145   2.774  24.781  0.00  0.00    +0.000 C 
ATOM      8  C   UNL     1      -0.942   2.931  24.634  0.00  0.00    +0.002 C 
ATOM      9  C   UNL     1      -1.737   3.088  24.487  0.00  0.00    +0.022 C 
ATOM     10  C   UNL     1      -2.201   2.531  24.091  0.00  0.00    +0.095 C 
ATOM     21  C   UNL     1      -1.868   1.819  23.843  0.00  0.00    +0.022 C 
ATOM     22  C   UNL     1      -2.331   1.263  23.447  0.00  0.00    +0.002 C 
ATOM     23  C   UNL     1      -1.071   1.662  23.990  0.00  0.00    +0.032 C 
ATOM     24  C   UNL     1      -0.738   0.950  23.742  0.00  0.00    +0.152 C 
ATOM     25  O   UNL     1      -1.201   0.393  23.346  0.00  0.00    -0.223 OA
ENDROOT
BRANCH  10  11
ATOM     11  N   UNL     1      -2.998   2.688  23.944  0.00  0.00    -0.207 NA
ATOM     12  C   UNL     1      -3.466   3.030  24.529  0.00  0.00    +0.246 C 
ATOM     13  O   UNL     1      -3.138   3.216  25.264  0.00  0.00    -0.273 OA
BRANCH  12  14
ATOM     14  C   UNL     1      -4.263   3.187  24.382  0.00  0.00    +0.113 C 
BRANCH  14  15
ATOM     15  C   UNL     1      -4.846   2.836  24.848  0.00  0.00    -0.013 A 
ATOM     16  C   UNL     1      -5.228   2.152  24.585  0.00  0.00    -0.004 A 
ATOM     17  C   UNL     1      -5.811   1.801  25.051  0.00  0.00    -0.000 A 
ATOM     18  C   UNL     1      -6.013   2.133  25.779  0.00  0.00    -0.000 A 
ATOM     19  C   UNL     1      -5.631   2.816  26.041  0.00  0.00    -0.000 A 
ATOM     20  C   UNL     1      -5.048   3.167  25.576  0.00  0.00    -0.004 A 
ENDBRANCH  14  15
ENDBRANCH  12  14
ENDBRANCH  10  11
BRANCH   3   2
ATOM      1  C   UNL     1       0.168  -0.628  23.999  0.00  0.00    +0.010 C 
ATOM      2  C   UNL     1       0.392   0.081  23.641  0.00  0.00    +0.081 C 
BRANCH   2  26
ATOM     26  C   UNL     1       0.950   0.077  23.034  0.00  0.00    +0.241 C 
ATOM     27  O   UNL     1       0.704   0.052  22.246  0.00  0.00    -0.273 OA
ATOM     28  N   UNL     1       1.756   0.098  23.214  0.00  0.00    -0.199 NA
BRANCH  28  29
ATOM     29  C   UNL     1       2.314   0.094  22.607  0.00  0.00    +0.160 C 
BRANCH  29  30
ATOM     30  C   UNL     1       3.115   0.178  22.783  0.00  0.00    +0.081 A 
ATOM     31  N   UNL     1       3.530  -0.446  23.129  0.00  0.00    -0.246 NA
ATOM     32  C   UNL     1       4.331  -0.361  23.304  0.00  0.00    +0.099 A 
ATOM     33  C   UNL     1       4.719   0.347  23.134  0.00  0.00    +0.021 A 
ATOM     34  C   UNL     1       4.304   0.971  22.788  0.00  0.00    +0.003 A 
ATOM     35  C   UNL     1       3.502   0.887  22.613  0.00  0.00    +0.017 A 
ENDBRANCH  29  30
ENDBRANCH  28  29
ENDBRANCH   2  26
ENDBRANCH   3   2
TORSDOF 7
ENDMDL
MODEL 4
REMARK VINA RESULT:     -11.9      3.162      5.702
REMARK  Name = 
REMARK  7 active torsions:
REMARK  status: ('A' for Active; 'I' for Inactive)
REMARK    1  A    between atoms: C_2  and  C_3
REMARK    2  A    between atoms: C_2  and  C_26
REMARK    3  A    between atoms: C_10  and  N_11
REMARK    4  A    between atoms: C_12  and  C_14
REMARK    5  A    between atoms: C_14  and  C_15
REMARK    6  A    between atoms: N_28  and  C_29
REMARK    7  A    between atoms: C_29  and  C_30
REMARK                            x       y       z     vdW  Elec       q    Type
REMARK                         _______ _______ _______ _____ _____    ______ ____
ROOT
ATOM      3  C   UNL     1      -1.585   0.669  24.735  0.00  0.00    +0.039 C 
ATOM      4  C   UNL     1      -1.470   1.447  24.989  0.00  0.00    +0.003 C 
ATOM      5  C   UNL     1      -0.767   1.838  24.811  0.00  0.00    +0.000 C 
ATOM      6  C   UNL     1      -0.178   1.454  24.380  0.00  0.00    +0.002 C 
ATOM      7  C   UNL     1      -0.063   2.229  24.634  0.00  0.00    +0.000 C 
ATOM      8  C   UNL     1       0.526   1.845  24.203  0.00  0.00    +0.002 C 
ATOM      9  C   UNL     1       1.115   1.461  23.772  0.00  0.00    +0.022 C 
ATOM     10  C   UNL     1       0.999   0.683  23.518  0.00  0.00    +0.095 C 
ATOM     21  C   UNL     1       0.296   0.292  23.695  0.00  0.00    +0.022 C 
ATOM     22  C   UNL     1       0.181  -0.485  23.442  0.00  0.00    +0.002 C 
ATOM     23  C   UNL     1      -0.293   0.676  24.127  0.00  0.00    +0.032 C 
ATOM     24  C   UNL     1      -0.997   0.285  24.304  0.00  0.00    +0.152 C 
ATOM     25  O   UNL     1      -1.112  -0.492  24.051  0.00  0.00    -0.223 OA
ENDROOT
BRANCH  10  11
ATOM     11  N   UNL     1       1.589   0.299  23.087  0.00  0.00    -0.207 NA
ATOM     12  C   UNL     1       2.346   0.622  23.044  0.00  0.00    +0.246 C 
ATOM     13  O   UNL     1       2.515   1.330  23.433  0.00  0.00    -0.273 OA
BRANCH  12  14
ATOM     14  C   UNL     1       2.935   0.237  22.613  0.00  0.00    +0.113 C 
BRANCH  14  15
ATOM     15  C   UNL     1       3.686   0.138  22.938  0.00  0.00    -0.013 A 
ATOM     16  C   UNL     1       3.875  -0.561  23.336  0.00  0.00    -0.004 A 
ATOM     17  C   UNL     1       4.627  -0.660  23.661  0.00  0.00    -0.000 A 
ATOM     18  C   UNL     1       5.190  -0.063  23.589  0.00  0.00    -0.000 A 
ATOM     19  C   UNL     1       5.002   0.636  23.191  0.00  0.00    -0.000 A 
ATOM     20  C   UNL     1       4.251   0.736  22.866  0.00  0.00    -0.004 A 
ENDBRANCH  14  15
ENDBRANCH  12  14
ENDBRANCH  10  11
BRANCH   3   2
ATOM      1  C   UNL     1      -2.291  -0.347  25.453  0.00  0.00    +0.010 C 
ATOM      2  C   UNL     1      -2.290   0.278  24.913  0.00  0.00    +0.081 C 
BRANCH   2  26
ATOM     26  C   UNL     1      -2.993   0.511  24.551  0.00  0.00    +0.241 C 
ATOM     27  O   UNL     1      -3.176   0.243  23.791  0.00  0.00    -0.273 OA
ATOM     28  N   UNL     1      -3.516   1.012  24.948  0.00  0.00    -0.199 NA
BRANCH  28  29
ATOM     29  C   UNL     1      -4.219   1.245  24.586  0.00  0.00    +0.160 C 
BRANCH  29  30
ATOM     30  C   UNL     1      -4.707   1.800  24.952  0.00  0.00    +0.081 A 
ATOM     31  N   UNL     1      -4.529   2.604  24.901  0.00  0.00    -0.246 NA
ATOM     32  C   UNL     1      -5.018   3.158  25.267  0.00  0.00    +0.099 A 
ATOM     33  C   UNL     1      -5.685   2.909  25.684  0.00  0.00    +0.021 A 
ATOM     34  C   UNL     1      -5.863   2.105  25.734  0.00  0.00    +0.003 A 
ATOM     35  C   UNL     1      -5.374   1.550  25.368  0.00  0.00    +0.017 A 
ENDBRANCH  29  30
ENDBRANCH  28  29
ENDBRANCH   2  26
ENDBRANCH   3   2
TORSDOF 7
ENDMDL
MODEL 5
REMARK VINA RESULT:     -11.8      1.479      3.332
REMARK  Name = 
REMARK  7 active torsions:
REMARK  status: ('A' for Active; 'I' for Inactive)
REMARK    1  A    between atoms: C_2  and  C_3
REMARK    2  A    between atoms: C_2  and  C_26
REMARK    3  A    between atoms: C_10  and  N_11
REMARK    4  A    between atoms: C_12  and  C_14
REMARK    5  A    between atoms: C_14  and  C_15
REMARK    6  A    between atoms: N_28  and  C_29
REMARK    7  A    between atoms: C_29  and  C_30
REMARK                            x       y       z     vdW  Elec       q    Type
REMARK                         _______ _______ _______ _____ _____    ______ ____
ROOT
ATOM      3  C   UNL     1      -1.393   3.155  25.175  0.00  0.00    +0.039 C 
ATOM      4  C   UNL     1      -0.896   3.106  25.833  0.00  0.00    +0.003 C 
ATOM      5  C   UNL     1      -0.578   2.379  26.056  0.00  0.00    +0.000 C 
ATOM      6  C   UNL     1      -0.755   1.701  25.622  0.00  0.00    +0.002 C 
ATOM      7  C   UNL     1      -0.259   1.652  26.278  0.00  0.00    +0.000 C 
ATOM      8  C   UNL     1      -0.436   0.973  25.844  0.00  0.00    +0.002 C 
ATOM      9  C   UNL     1      -0.614   0.294  25.411  0.00  0.00    +0.022 C 
ATOM     10  C   UNL     1      -1.111   0.343  24.753  0.00  0.00    +0.095 C 
ATOM     21  C   UNL     1      -1.429   1.070  24.530  0.00  0.00    +0.022 C 
ATOM     22  C   UNL     1      -1.926   1.119  23.873  0.00  0.00    +0.002 C 
ATOM     23  C   UNL     1      -1.252   1.750  24.964  0.00  0.00    +0.032 C 
ATOM     24  C   UNL     1      -1.570   2.477  24.741  0.00  0.00    +0.152 C 
ATOM     25  O   UNL     1      -2.067   2.526  24.084  0.00  0.00    -0.223 OA
ENDROOT
BRANCH  10  11
ATOM     11  N   UNL     1      -1.288  -0.336  24.319  0.00  0.00    -0.207 NA
ATOM     12  C   UNL     1      -1.538  -1.019  24.706  0.00  0.00    +0.246 C 
ATOM     13  O   UNL     1      -1.612  -1.025  25.528  0.00  0.00    -0.273 OA
BRANCH  12  14
ATOM     14  C   UNL     1      -1.715  -1.699  24.272  0.00  0.00    +0.113 C 
BRANCH  14  15
ATOM     15  C   UNL     1      -2.448  -2.066  24.361  0.00  0.00    -0.013 A 
ATOM     16  C   UNL     1      -2.536  -2.686  24.900  0.00  0.00    -0.004 A 
ATOM     17  C   UNL     1      -3.270  -3.053  24.989  0.00  0.00    -0.000 A 
ATOM     18  C   UNL     1      -3.914  -2.802  24.540  0.00  0.00    -0.000 A 
ATOM     19  C   UNL     1      -3.826  -2.183  24.001  0.00  0.00    -0.000 A 
ATOM     20  C   UNL     1      -3.094  -1.815  23.912  0.00  0.00    -0.004 A 
ENDBRANCH  14  15
ENDBRANCH  12  14
ENDBRANCH  10  11
BRANCH   3   2
ATOM      1  C   UNL     1      -1.404   4.288  24.303  0.00  0.00    +0.010 C 
ATOM      2  C   UNL     1      -1.712   3.883  24.953  0.00  0.00    +0.081 C 
BRANCH   2  26
ATOM     26  C   UNL     1      -2.339   4.206  25.380  0.00  0.00    +0.241 C 
ATOM     27  O   UNL     1      -2.207   4.843  25.889  0.00  0.00    -0.273 OA
ATOM     28  N   UNL     1      -3.098   3.893  25.300  0.00  0.00    -0.199 NA
BRANCH  28  29
ATOM     29  C   UNL     1      -3.725   4.216  25.727  0.00  0.00    +0.160 C 
BRANCH  29  30
ATOM     30  C   UNL     1      -4.470   3.864  25.696  0.00  0.00    +0.081 A 
ATOM     31  N   UNL     1      -5.093   4.249  25.317  0.00  0.00    -0.246 NA
ATOM     32  C   UNL     1      -5.838   3.897  25.286  0.00  0.00    +0.099 A 
ATOM     33  C   UNL     1      -5.961   3.159  25.636  0.00  0.00    +0.021 A 
ATOM     34  C   UNL     1      -5.338   2.774  26.016  0.00  0.00    +0.003 A 
ATOM     35  C   UNL     1      -4.592   3.127  26.046  0.00  0.00    +0.017 A 
ENDBRANCH  29  30
ENDBRANCH  28  29
ENDBRANCH   2  26
ENDBRANCH   3   2
TORSDOF 7
ENDMDL
MODEL 6
REMARK VINA RESULT:     -11.8      1.882      5.250
REMARK  Name = 
REMARK  7 active torsions:
REMARK  status: ('A' for Active; 'I' for Inactive)
REMARK    1  A    between atoms: C_2  and  C_3
REMARK    2  A    between atoms: C_2  and  C_26
REMARK    3  A    between atoms: C_10  and  N_11
REMARK    4  A    between atoms: C_12  and  C_14
REMARK    5  A    between atoms: C_14  and  C_15
REMARK    6  A    between atoms: N_28  and  C_29
REMARK    7  A    between atoms: C_29  and  C_30
REMARK                            x       y       z     vdW  Elec       q    Type
REMARK                         _______ _______ _______ _____ _____    ______ ____
ROOT
ATOM      3  C   UNL     1      -0.253   0.742  24.187  0.00  0.00    +0.039 C 
ATOM      4  C   UNL     1       0.271   1.089  24.724  0.00  0.00    +0.003 C 
ATOM      5  C   UNL     1       0.081   1.808  25.079  0.00  0.00    +0.000 C 
ATOM      6  C   UNL     1      -0.632   2.181  24.899  0.00  0.00    +0.002 C 
ATOM      7  C   UNL     1      -0.109   2.527  25.434  0.00  0.00    +0.000 C 
ATOM      8  C   UNL     1      -0.822   2.901  25.254  0.00  0.00    +0.002 C 
ATOM      9  C   UNL     1      -1.535   3.275  25.074  0.00  0.00    +0.022 C 
ATOM     10  C   UNL     1      -2.059   2.928  24.538  0.00  0.00    +0.095 C 
ATOM     21  C   UNL     1      -1.869   2.209  24.183  0.00  0.00    +0.022 C 
ATOM     22  C   UNL     1      -2.392   1.863  23.647  0.00  0.00    +0.002 C 
ATOM     23  C   UNL     1      -1.156   1.835  24.363  0.00  0.00    +0.032 C 
ATOM     24  C   UNL     1      -0.966   1.115  24.007  0.00  0.00    +0.152 C 
ATOM     25  O   UNL     1      -1.489   0.769  23.472  0.00  0.00    -0.223 OA
ENDROOT
BRANCH  10  11
ATOM     11  N   UNL     1      -2.772   3.303  24.358  0.00  0.00    -0.207 NA
ATOM     12  C   UNL     1      -3.306   3.483  24.959  0.00  0.00    +0.246 C 
ATOM     13  O   UNL     1      -3.128   3.290  25.742  0.00  0.00    -0.273 OA
BRANCH  12  14
ATOM     14  C   UNL     1      -4.020   3.858  24.779  0.00  0.00    +0.113 C 
BRANCH  14  15
ATOM     15  C   UNL     1      -4.732   3.539  25.045  0.00  0.00    -0.013 A 
ATOM     16  C   UNL     1      -5.019   2.838  24.716  0.00  0.00    -0.004 A 
ATOM     17  C   UNL     1      -5.732   2.520  24.983  0.00  0.00    -0.000 A 
ATOM     18  C   UNL     1      -6.158   2.901  25.578  0.00  0.00    -0.000 A 
ATOM     19  C   UNL     1      -5.870   3.602  25.907  0.00  0.00    -0.000 A 
ATOM     20  C   UNL     1      -5.158   3.920  25.641  0.00  0.00    -0.004 A 
ENDBRANCH  14  15
ENDBRANCH  12  14
ENDBRANCH  10  11
BRANCH   3   2
ATOM      1  C   UNL     1       0.259   0.008  23.073  0.00  0.00    +0.010 C 
ATOM      2  C   UNL     1      -0.063   0.022  23.832  0.00  0.00    +0.081 C 
BRANCH   2  26
ATOM     26  C   UNL     1      -0.194  -0.685  24.237  0.00  0.00    +0.241 C 
ATOM     27  O   UNL     1       0.426  -1.051  24.641  0.00  0.00    -0.273 OA
ATOM     28  N   UNL     1      -0.946  -1.026  24.238  0.00  0.00    -0.199 NA
BRANCH  28  29
ATOM     29  C   UNL     1      -1.078  -1.732  24.643  0.00  0.00    +0.160 C 
BRANCH  29  30
ATOM     30  C   UNL     1      -1.842  -2.035  24.707  0.00  0.00    +0.081 A 
ATOM     31  N   UNL     1      -2.108  -2.602  24.170  0.00  0.00    -0.246 NA
ATOM     32  C   UNL     1      -2.872  -2.905  24.235  0.00  0.00    +0.099 A 
ATOM     33  C   UNL     1      -3.372  -2.640  24.836  0.00  0.00    +0.021 A 
ATOM     34  C   UNL     1      -3.106  -2.073  25.373  0.00  0.00    +0.003 A 
ATOM     35  C   UNL     1      -2.340  -1.770  25.308  0.00  0.00    +0.017 A 
ENDBRANCH  29  30
ENDBRANCH  28  29
ENDBRANCH   2  26
ENDBRANCH   3   2
TORSDOF 7
ENDMDL
MODEL 7
REMARK VINA RESULT:     -11.6      1.231      4.864
REMARK  Name = 
REMARK  7 active torsions:
REMARK  status: ('A' for Active; 'I' for Inactive)
REMARK    1  A    between atoms: C_2  and  C_3
REMARK    2  A    between atoms: C_2  and  C_26
REMARK    3  A    between atoms: C_10  and  N_11
REMARK    4  A    between atoms: C_12  and  C_14
REMARK    5  A    between atoms: C_14  and  C_15
REMARK    6  A    between atoms: N_28  and  C_29
REMARK    7  A    between atoms: C_29  and  C_30
REMARK                            x       y       z     vdW  Elec       q    Type
REMARK                         _______ _______ _______ _____ _____    ______ ____
ROOT
ATOM      3  C   UNL     1      -4.391   0.120  24.408  0.00  0.00    +0.039 C 
ATOM      4  C   UNL     1      -5.044   0.142  24.912  0.00  0.00    +0.003 C 
ATOM      5  C   UNL     1      -5.276   0.855  25.256  0.00  0.00    +0.000 C 
ATOM      6  C   UNL     1      -4.856   1.546  25.096  0.00  0.00    +0.002 C 
ATOM      7  C   UNL     1      -5.508   1.568  25.599  0.00  0.00    +0.000 C 
ATOM      8  C   UNL     1      -5.087   2.259  25.440  0.00  0.00    +0.002 C 
ATOM      9  C   UNL     1      -4.667   2.950  25.280  0.00  0.00    +0.022 C 
ATOM     10  C   UNL     1      -4.013   2.928  24.776  0.00  0.00    +0.095 C 
ATOM     21  C   UNL     1      -3.781   2.216  24.432  0.00  0.00    +0.022 C 
ATOM     22  C   UNL     1      -3.128   2.194  23.928  0.00  0.00    +0.002 C 
ATOM     23  C   UNL     1      -4.202   1.524  24.592  0.00  0.00    +0.032 C 
ATOM     24  C   UNL     1      -3.970   0.811  24.248  0.00  0.00    +0.152 C 
ATOM     25  O   UNL     1      -3.317   0.789  23.744  0.00  0.00    -0.223 OA
ENDROOT
BRANCH  10  11
ATOM     11  N   UNL     1      -3.592   3.620  24.616  0.00  0.00    -0.207 NA
ATOM     12  C   UNL     1      -3.230   4.034  25.230  0.00  0.00    +0.246 C 
ATOM     13  O   UNL     1      -3.288   3.756  26.006  0.00  0.00    -0.273 OA
BRANCH  12  14
ATOM     14  C   UNL     1      -2.810   4.726  25.071  0.00  0.00    +0.113 C 
BRANCH  14  15
ATOM     15  C   UNL     1      -1.985   4.717  25.070  0.00  0.00    -0.013 A 
ATOM     16  C   UNL     1      -1.568   5.238  24.584  0.00  0.00    -0.004 A 
ATOM     17  C   UNL     1      -0.742   5.229  24.583  0.00  0.00    -0.000 A 
ATOM     18  C   UNL     1      -0.335   4.700  25.067  0.00  0.00    -0.000 A 
ATOM     19  C   UNL     1      -0.753   4.179  25.553  0.00  0.00    -0.000 A 
ATOM     20  C   UNL     1      -1.577   4.188  25.554  0.00  0.00    -0.004 A 
ENDBRANCH  14  15
ENDBRANCH  12  14
ENDBRANCH  10  11
BRANCH   3   2
ATOM      1  C   UNL     1      -4.284  -0.725  23.259  0.00  0.00    +0.010 C 
ATOM      2  C   UNL     1      -4.159  -0.593  24.064  0.00  0.00    +0.081 C 
BRANCH   2  26
ATOM     26  C   UNL     1      -3.802  -1.176  24.526  0.00  0.00    +0.241 C 
ATOM     27  O   UNL     1      -4.266  -1.673  24.995  0.00  0.00    -0.273 OA
ATOM     28  N   UNL     1      -2.981  -1.263  24.520  0.00  0.00    -0.199 NA
BRANCH  28  29
ATOM     29  C   UNL     1      -2.624  -1.845  24.982  0.00  0.00    +0.160 C 
BRANCH  29  30
ATOM     30  C   UNL     1      -1.802  -1.874  25.047  0.00  0.00    +0.081 A 
ATOM     31  N   UNL     1      -1.406  -1.323  25.517  0.00  0.00    -0.246 NA
ATOM     32  C   UNL     1      -0.585  -1.353  25.582  0.00  0.00    +0.099 A 
ATOM     33  C   UNL     1      -0.159  -1.933  25.179  0.00  0.00    +0.021 A 
ATOM     34  C   UNL     1      -0.555  -2.483  24.709  0.00  0.00    +0.003 A 
ATOM     35  C   UNL     1      -1.378  -2.454  24.643  0.00  0.00    +0.017 A 
ENDBRANCH  29  30
ENDBRANCH  28  29
ENDBRANCH   2  26
ENDBRANCH   3   2
TORSDOF 7
ENDMDL
