REMARK  Name = 
REMARK  5 active torsions:
REMARK  status: ('A' for Active; 'I' for Inactive)
REMARK    1  A    between atoms: C_2  and  C_3
REMARK    2  A    between atoms: C_5  and  C_6
REMARK    3  A    between atoms: C_6  and  N_7
REMARK    4  A    between atoms: N_10  and  C_11
REMARK    5  A    between atoms: C_19  and  N_22
REMARK                            x       y       z     vdW  Elec       q    Type
REMARK                         _______ _______ _______ _____ _____    ______ ____
ROOT
ATOM      3  C   UNL     1      -0.893  -1.483   0.000  0.00  0.00    +0.180 C 
ATOM      4  O   UNL     1      -0.086  -1.655   0.000  0.00  0.00    -0.350 OA
ATOM      5  C   UNL     1       0.000  -2.475   0.000  0.00  0.00    +0.154 C 
ATOM     19  C   UNL     1      -0.754  -2.811   0.000  0.00  0.00    +0.120 C 
ATOM     20  C   UNL     1      -1.306  -2.197   0.000  0.00  0.00    +0.198 C 
ATOM     21  O   UNL     1      -2.126  -2.284   0.000  0.00  0.00    -0.219 OA
ENDROOT
BRANCH  19  22
ATOM     22  N   UNL     1      -0.925  -3.618   0.000  0.00  0.00    -0.270 NA
ATOM     23  C   UNL     1      -0.373  -4.231   0.000  0.00  0.00    +0.072 C 
ATOM     24  C   UNL     1      -0.786  -4.945   0.000  0.00  0.00    +0.019 C 
ATOM     25  C   UNL     1      -1.593  -4.774   0.000  0.00  0.00    +0.019 C 
ATOM     26  C   UNL     1      -1.679  -3.953   0.000  0.00  0.00    +0.072 C 
ENDBRANCH  19  22
BRANCH   3   2
ATOM      1  O   UNL     1      -2.049  -0.643   0.000  0.00  0.00    -0.218 OA
ATOM      2  C   UNL     1      -1.229  -0.729   0.000  0.00  0.00    +0.214 C 
ENDBRANCH   3   2
BRANCH   5   6
ATOM      6  C   UNL     1       0.715  -2.888   0.000  0.00  0.00    +0.148 C 
BRANCH   6   7
ATOM      7  N   UNL     1       1.429  -2.475   0.000  0.00  0.00    -0.184 NA
ATOM      8  C   UNL     1       2.143  -2.888   0.000  0.00  0.00    +0.344 C 
ATOM      9  O   UNL     1       2.143  -3.712   0.000  0.00  0.00    -0.249 OA
ATOM     10  N   UNL     1       2.858  -2.475   0.000  0.00  0.00    -0.159 NA
BRANCH  10  11
ATOM     11  C   UNL     1       3.572  -2.888   0.000  0.00  0.00    +0.102 A 
ATOM     12  C   UNL     1       4.287  -2.475   0.000  0.00  0.00    +0.021 A 
ATOM     13  C   UNL     1       5.001  -2.888   0.000  0.00  0.00    +0.031 A 
ATOM     14  C   UNL     1       5.001  -3.712   0.000  0.00  0.00    +0.142 A 
ATOM     15  F   UNL     1       5.716  -4.125   0.000  0.00  0.00    -0.204 F 
ATOM     16  C   UNL     1       4.287  -4.125   0.000  0.00  0.00    +0.061 A 
ATOM     17  C   UNL     1       3.572  -3.712   0.000  0.00  0.00    +0.158 A 
ATOM     18  F   UNL     1       2.858  -4.125   0.000  0.00  0.00    -0.203 F 
ENDBRANCH  10  11
ENDBRANCH   6   7
ENDBRANCH   5   6
TORSDOF 5
