MODEL 1
REMARK VINA RESULT:      -9.0      0.000      0.000
REMARK  Name = 
REMARK  8 active torsions:
REMARK  status: ('A' for Active; 'I' for Inactive)
REMARK    1  A    between atoms: O_2  and  C_3
REMARK    2  A    between atoms: C_6  and  N_7
REMARK    3  A    between atoms: C_8  and  O_10
REMARK    4  A    between atoms: O_10  and  C_11
REMARK    5  A    between atoms: C_15  and  N_19
REMARK    6  A    between atoms: N_19  and  C_20
REMARK    7  A    between atoms: C_20  and  C_21
REMARK    8  A    between atoms: C_24  and  C_27
REMARK                            x       y       z     vdW  Elec       q    Type
REMARK                         _______ _______ _______ _____ _____    ______ ____
ROOT
ATOM     11  C   UNL     1       0.776   0.240  23.161  0.00  0.00    +0.229 C 
ATOM     12  C   UNL     1       0.632   1.023  23.378  0.00  0.00    +0.188 C 
ATOM     13  O   UNL     1      -0.072   1.043  23.807  0.00  0.00    -0.348 OA
ATOM     14  C   UNL     1      -0.364   0.274  23.855  0.00  0.00    +0.164 C 
ATOM     15  C   UNL     1      -0.979  -0.190  24.150  0.00  0.00    +0.132 C 
ATOM     16  C   UNL     1      -0.836  -0.973  23.933  0.00  0.00    +0.162 C 
ATOM     17  O   UNL     1      -0.132  -0.993  23.504  0.00  0.00    -0.348 OA
ATOM     18  C   UNL     1       0.160  -0.223  23.456  0.00  0.00    +0.186 C 
ENDROOT
BRANCH  11  10
ATOM     10  O   UNL     1       1.422  -0.032  22.725  0.00  0.00    -0.432 OA
BRANCH  10   8
ATOM      7  N   UNL     1       2.820  -0.324  22.740  0.00  0.00    -0.142 NA
ATOM      8  C   UNL     1       2.189   0.157  22.963  0.00  0.00    +0.425 C 
ATOM      9  O   UNL     1       2.324   0.829  23.423  0.00  0.00    -0.224 OA
BRANCH   7   6
ATOM      3  C   UNL     1       5.122   0.244  23.452  0.00  0.00    +0.139 A 
ATOM      4  C   UNL     1       4.724   0.729  22.916  0.00  0.00    +0.038 A 
ATOM      5  C   UNL     1       3.957   0.539  22.679  0.00  0.00    +0.020 A 
ATOM      6  C   UNL     1       3.588  -0.135  22.978  0.00  0.00    +0.077 A 
ATOM     33  C   UNL     1       3.985  -0.619  23.514  0.00  0.00    +0.020 A 
ATOM     34  C   UNL     1       4.752  -0.430  23.751  0.00  0.00    +0.038 A 
BRANCH   3   2
ATOM      1  C   UNL     1       6.516  -0.065  23.492  0.00  0.00    +0.252 C 
ATOM      2  O   UNL     1       5.889   0.434  23.689  0.00  0.00    -0.471 OA
ENDBRANCH   3   2
ENDBRANCH   7   6
ENDBRANCH  10   8
ENDBRANCH  11  10
BRANCH  15  19
ATOM     19  N   UNL     1      -1.625   0.082  24.585  0.00  0.00    -0.210 NA
BRANCH  19  20
ATOM     20  C   UNL     1      -2.388  -0.160  24.386  0.00  0.00    +0.115 C 
BRANCH  20  21
ATOM     21  C   UNL     1      -3.035   0.315  24.578  0.00  0.00    -0.005 A 
ATOM     22  C   UNL     1      -3.197   0.991  24.133  0.00  0.00    -0.003 A 
ATOM     23  C   UNL     1      -3.843   1.466  24.324  0.00  0.00    -0.000 A 
ATOM     24  C   UNL     1      -4.328   1.265  24.961  0.00  0.00    -0.000 A 
ATOM     25  C   UNL     1      -4.166   0.590  25.405  0.00  0.00    -0.000 A 
ATOM     26  C   UNL     1      -3.520   0.114  25.214  0.00  0.00    -0.003 A 
BRANCH  24  27
ATOM     27  C   UNL     1      -4.975   1.740  25.153  0.00  0.00    -0.000 A 
ATOM     28  C   UNL     1      -4.854   2.496  25.462  0.00  0.00    -0.000 A 
ATOM     29  C   UNL     1      -5.500   2.971  25.653  0.00  0.00    +0.000 A 
ATOM     30  C   UNL     1      -6.268   2.691  25.536  0.00  0.00    +0.000 A 
ATOM     31  C   UNL     1      -6.388   1.936  25.227  0.00  0.00    +0.000 A 
ATOM     32  C   UNL     1      -5.741   1.460  25.035  0.00  0.00    -0.000 A 
ENDBRANCH  24  27
ENDBRANCH  20  21
ENDBRANCH  19  20
ENDBRANCH  15  19
TORSDOF 8
ENDMDL
MODEL 2
REMARK VINA RESULT:      -7.5      1.459      7.985
REMARK  Name = 
REMARK  8 active torsions:
REMARK  status: ('A' for Active; 'I' for Inactive)
REMARK    1  A    between atoms: O_2  and  C_3
REMARK    2  A    between atoms: C_6  and  N_7
REMARK    3  A    between atoms: C_8  and  O_10
REMARK    4  A    between atoms: O_10  and  C_11
REMARK    5  A    between atoms: C_15  and  N_19
REMARK    6  A    between atoms: N_19  and  C_20
REMARK    7  A    between atoms: C_20  and  C_21
REMARK    8  A    between atoms: C_24  and  C_27
REMARK                            x       y       z     vdW  Elec       q    Type
REMARK                         _______ _______ _______ _____ _____    ______ ____
ROOT
ATOM     11  C   UNL     1      -1.364   0.448  24.348  0.00  0.00    +0.229 C 
ATOM     12  C   UNL     1      -1.024   1.100  24.721  0.00  0.00    +0.188 C 
ATOM     13  O   UNL     1      -0.255   1.183  24.436  0.00  0.00    -0.348 OA
ATOM     14  C   UNL     1      -0.120   0.584  23.887  0.00  0.00    +0.164 C 
ATOM     15  C   UNL     1       0.439   0.263  23.371  0.00  0.00    +0.132 C 
ATOM     16  C   UNL     1       0.098  -0.389  22.998  0.00  0.00    +0.162 C 
ATOM     17  O   UNL     1      -0.671  -0.472  23.283  0.00  0.00    -0.348 OA
ATOM     18  C   UNL     1      -0.806   0.129  23.833  0.00  0.00    +0.186 C 
ENDROOT
BRANCH  11  10
ATOM     10  O   UNL     1      -2.130   0.165  24.470  0.00  0.00    -0.432 OA
BRANCH  10   8
ATOM      7  N   UNL     1      -3.436   0.711  24.273  0.00  0.00    -0.142 NA
ATOM      8  C   UNL     1      -2.730   0.683  24.698  0.00  0.00    +0.425 C 
ATOM      9  O   UNL     1      -2.624   1.175  25.353  0.00  0.00    -0.224 OA
BRANCH   7   6
ATOM      3  C   UNL     1      -5.237   2.264  24.959  0.00  0.00    +0.139 A 
ATOM      4  C   UNL     1      -5.214   1.498  25.265  0.00  0.00    +0.038 A 
ATOM      5  C   UNL     1      -4.614   0.981  25.036  0.00  0.00    +0.020 A 
ATOM      6  C   UNL     1      -4.036   1.229  24.501  0.00  0.00    +0.077 A 
ATOM     33  C   UNL     1      -4.060   1.994  24.196  0.00  0.00    +0.020 A 
ATOM     34  C   UNL     1      -4.660   2.512  24.424  0.00  0.00    +0.038 A 
BRANCH   3   2
ATOM      1  C   UNL     1      -5.666   3.418  25.683  0.00  0.00    +0.252 C 
ATOM      2  O   UNL     1      -5.838   2.781  25.187  0.00  0.00    -0.471 OA
ENDBRANCH   3   2
ENDBRANCH   7   6
ENDBRANCH  10   8
ENDBRANCH  11  10
BRANCH  15  19
ATOM     19  N   UNL     1       1.204   0.546  23.249  0.00  0.00    -0.210 NA
BRANCH  19  20
ATOM     20  C   UNL     1       1.714   0.150  22.735  0.00  0.00    +0.115 C 
BRANCH  20  21
ATOM     21  C   UNL     1       2.525   0.138  22.886  0.00  0.00    -0.005 A 
ATOM     22  C   UNL     1       2.880  -0.546  23.181  0.00  0.00    -0.003 A 
ATOM     23  C   UNL     1       3.690  -0.559  23.333  0.00  0.00    -0.000 A 
ATOM     24  C   UNL     1       4.147   0.114  23.188  0.00  0.00    -0.000 A 
ATOM     25  C   UNL     1       3.792   0.797  22.894  0.00  0.00    -0.000 A 
ATOM     26  C   UNL     1       2.981   0.810  22.742  0.00  0.00    -0.003 A 
BRANCH  24  27
ATOM     27  C   UNL     1       4.958   0.102  23.339  0.00  0.00    -0.000 A 
ATOM     28  C   UNL     1       5.257   0.469  24.016  0.00  0.00    -0.000 A 
ATOM     29  C   UNL     1       6.067   0.457  24.166  0.00  0.00    +0.000 A 
ATOM     30  C   UNL     1       6.580   0.078  23.642  0.00  0.00    +0.000 A 
ATOM     31  C   UNL     1       6.280  -0.289  22.967  0.00  0.00    +0.000 A 
ATOM     32  C   UNL     1       5.469  -0.277  22.815  0.00  0.00    -0.000 A 
ENDBRANCH  24  27
ENDBRANCH  20  21
ENDBRANCH  19  20
ENDBRANCH  15  19
TORSDOF 8
ENDMDL
MODEL 3
REMARK VINA RESULT:      -6.6     17.197     17.949
REMARK  Name = 
REMARK  8 active torsions:
REMARK  status: ('A' for Active; 'I' for Inactive)
REMARK    1  A    between atoms: O_2  and  C_3
REMARK    2  A    between atoms: C_6  and  N_7
REMARK    3  A    between atoms: C_8  and  O_10
REMARK    4  A    between atoms: O_10  and  C_11
REMARK    5  A    between atoms: C_15  and  N_19
REMARK    6  A    between atoms: N_19  and  C_20
REMARK    7  A    between atoms: C_20  and  C_21
REMARK    8  A    between atoms: C_24  and  C_27
REMARK                            x       y       z     vdW  Elec       q    Type
REMARK                         _______ _______ _______ _____ _____    ______ ____
ROOT
ATOM     11  C   UNL     1      -5.500  -9.903  10.454  0.00  0.00    +0.229 C 
ATOM     12  C   UNL     1      -5.784  -9.302  10.942  0.00  0.00    +0.188 C 
ATOM     13  O   UNL     1      -6.450  -8.975  10.582  0.00  0.00    -0.348 OA
ATOM     14  C   UNL     1      -6.578  -9.373   9.872  0.00  0.00    +0.164 C 
ATOM     15  C   UNL     1      -7.068  -9.418   9.210  0.00  0.00    +0.132 C 
ATOM     16  C   UNL     1      -6.784 -10.019   8.721  0.00  0.00    +0.162 C 
ATOM     17  O   UNL     1      -6.118 -10.346   9.081  0.00  0.00    -0.348 OA
ATOM     18  C   UNL     1      -5.991  -9.947   9.793  0.00  0.00    +0.186 C 
ENDROOT
BRANCH  11  10
ATOM     10  O   UNL     1      -4.841 -10.377  10.601  0.00  0.00    -0.432 OA
BRANCH  10   8
ATOM      7  N   UNL     1      -3.418 -10.262  10.545  0.00  0.00    -0.142 NA
ATOM      8  C   UNL     1      -4.140 -10.037  10.873  0.00  0.00    +0.425 C 
ATOM      9  O   UNL     1      -4.163  -9.471  11.473  0.00  0.00    -0.224 OA
BRANCH   7   6
ATOM      3  C   UNL     1      -1.315  -9.242  11.361  0.00  0.00    +0.139 A 
ATOM      4  C   UNL     1      -1.629  -9.902  11.744  0.00  0.00    +0.038 A 
ATOM      5  C   UNL     1      -2.330 -10.242  11.471  0.00  0.00    +0.020 A 
ATOM      6  C   UNL     1      -2.717  -9.922  10.817  0.00  0.00    +0.077 A 
ATOM     33  C   UNL     1      -2.403  -9.262  10.435  0.00  0.00    +0.020 A 
ATOM     34  C   UNL     1      -1.702  -8.922  10.706  0.00  0.00    +0.038 A 
BRANCH   3   2
ATOM      1  C   UNL     1       0.042  -8.855  11.134  0.00  0.00    +0.252 C 
ATOM      2  O   UNL     1      -0.614  -8.902  11.633  0.00  0.00    -0.471 OA
ENDBRANCH   3   2
ENDBRANCH   7   6
ENDBRANCH  10   8
ENDBRANCH  11  10
BRANCH  15  19
ATOM     19  N   UNL     1      -7.727  -8.944   9.062  0.00  0.00    -0.210 NA
BRANCH  19  20
ATOM     20  C   UNL     1      -7.735  -8.440   8.409  0.00  0.00    +0.115 C 
BRANCH  20  21
ATOM     21  C   UNL     1      -8.182  -7.746   8.428  0.00  0.00    -0.005 A 
ATOM     22  C   UNL     1      -7.822  -7.019   8.279  0.00  0.00    -0.003 A 
ATOM     23  C   UNL     1      -8.267  -6.325   8.298  0.00  0.00    -0.000 A 
ATOM     24  C   UNL     1      -9.075  -6.360   8.467  0.00  0.00    -0.000 A 
ATOM     25  C   UNL     1      -9.435  -7.086   8.616  0.00  0.00    -0.000 A 
ATOM     26  C   UNL     1      -8.989  -7.780   8.597  0.00  0.00    -0.003 A 
BRANCH  24  27
ATOM     27  C   UNL     1      -9.522  -5.666   8.486  0.00  0.00    -0.000 A 
ATOM     28  C   UNL     1     -10.263  -5.643   8.124  0.00  0.00    -0.000 A 
ATOM     29  C   UNL     1     -10.709  -4.950   8.143  0.00  0.00    +0.000 A 
ATOM     30  C   UNL     1     -10.415  -4.280   8.524  0.00  0.00    +0.000 A 
ATOM     31  C   UNL     1      -9.674  -4.303   8.886  0.00  0.00    +0.000 A 
ATOM     32  C   UNL     1      -9.228  -4.997   8.867  0.00  0.00    -0.000 A 
ENDBRANCH  24  27
ENDBRANCH  20  21
ENDBRANCH  19  20
ENDBRANCH  15  19
TORSDOF 8
ENDMDL
MODEL 4
REMARK VINA RESULT:      -6.4     16.465     17.336
REMARK  Name = 
REMARK  8 active torsions:
REMARK  status: ('A' for Active; 'I' for Inactive)
REMARK    1  A    between atoms: O_2  and  C_3
REMARK    2  A    between atoms: C_6  and  N_7
REMARK    3  A    between atoms: C_8  and  O_10
REMARK    4  A    between atoms: O_10  and  C_11
REMARK    5  A    between atoms: C_15  and  N_19
REMARK    6  A    between atoms: N_19  and  C_20
REMARK    7  A    between atoms: C_20  and  C_21
REMARK    8  A    between atoms: C_24  and  C_27
REMARK                            x       y       z     vdW  Elec       q    Type
REMARK                         _______ _______ _______ _____ _____    ______ ____
ROOT
ATOM     11  C   UNL     1      -4.325 -10.088  11.368  0.00  0.00    +0.229 C 
ATOM     12  C   UNL     1      -4.783  -9.637  11.884  0.00  0.00    +0.188 C 
ATOM     13  O   UNL     1      -5.420  -9.332  11.459  0.00  0.00    -0.348 OA
ATOM     14  C   UNL     1      -5.356  -9.594  10.680  0.00  0.00    +0.164 C 
ATOM     15  C   UNL     1      -5.710  -9.568   9.935  0.00  0.00    +0.132 C 
ATOM     16  C   UNL     1      -5.252 -10.019   9.419  0.00  0.00    +0.162 C 
ATOM     17  O   UNL     1      -4.615 -10.323   9.844  0.00  0.00    -0.348 OA
ATOM     18  C   UNL     1      -4.679 -10.061  10.624  0.00  0.00    +0.186 C 
ENDROOT
BRANCH  11  10
ATOM     10  O   UNL     1      -3.633 -10.494  11.561  0.00  0.00    -0.432 OA
BRANCH  10   8
ATOM      7  N   UNL     1      -2.467 -10.411  12.384  0.00  0.00    -0.142 NA
ATOM      8  C   UNL     1      -3.287 -10.391  12.303  0.00  0.00    +0.425 C 
ATOM      9  O   UNL     1      -3.764 -10.269  12.966  0.00  0.00    -0.224 OA
BRANCH   7   6
ATOM      3  C   UNL     1      -1.431 -10.101  14.610  0.00  0.00    +0.139 A 
ATOM      4  C   UNL     1      -1.197  -9.628  13.976  0.00  0.00    +0.038 A 
ATOM      5  C   UNL     1      -1.542  -9.731  13.234  0.00  0.00    +0.020 A 
ATOM      6  C   UNL     1      -2.122 -10.308  13.126  0.00  0.00    +0.077 A 
ATOM     33  C   UNL     1      -2.356 -10.781  13.759  0.00  0.00    +0.020 A 
ATOM     34  C   UNL     1      -2.011 -10.678  14.501  0.00  0.00    +0.038 A 
BRANCH   3   2
ATOM      1  C   UNL     1      -1.311 -10.480  15.983  0.00  0.00    +0.252 C 
ATOM      2  O   UNL     1      -1.085  -9.998  15.352  0.00  0.00    -0.471 OA
ENDBRANCH   3   2
ENDBRANCH   7   6
ENDBRANCH  10   8
ENDBRANCH  11  10
BRANCH  15  19
ATOM     19  N   UNL     1      -6.402  -9.162   9.742  0.00  0.00    -0.210 NA
BRANCH  19  20
ATOM     20  C   UNL     1      -6.446  -8.734   9.038  0.00  0.00    +0.115 C 
BRANCH  20  21
ATOM     21  C   UNL     1      -7.102  -8.256   8.885  0.00  0.00    -0.005 A 
ATOM     22  C   UNL     1      -7.043  -7.636   8.345  0.00  0.00    -0.003 A 
ATOM     23  C   UNL     1      -7.697  -7.157   8.192  0.00  0.00    -0.000 A 
ATOM     24  C   UNL     1      -8.412  -7.301   8.581  0.00  0.00    -0.000 A 
ATOM     25  C   UNL     1      -8.470  -7.921   9.121  0.00  0.00    -0.000 A 
ATOM     26  C   UNL     1      -7.815  -8.399   9.273  0.00  0.00    -0.003 A 
BRANCH  24  27
ATOM     27  C   UNL     1      -9.067  -6.823   8.428  0.00  0.00    -0.000 A 
ATOM     28  C   UNL     1      -8.982  -6.002   8.406  0.00  0.00    -0.000 A 
ATOM     29  C   UNL     1      -9.637  -5.525   8.254  0.00  0.00    +0.000 A 
ATOM     30  C   UNL     1     -10.376  -5.867   8.124  0.00  0.00    +0.000 A 
ATOM     31  C   UNL     1     -10.460  -6.687   8.146  0.00  0.00    +0.000 A 
ATOM     32  C   UNL     1      -9.805  -7.165   8.299  0.00  0.00    -0.000 A 
ENDBRANCH  24  27
ENDBRANCH  20  21
ENDBRANCH  19  20
ENDBRANCH  15  19
TORSDOF 8
ENDMDL
MODEL 5
REMARK VINA RESULT:      -5.8     15.593     17.903
REMARK  Name = 
REMARK  8 active torsions:
REMARK  status: ('A' for Active; 'I' for Inactive)
REMARK    1  A    between atoms: O_2  and  C_3
REMARK    2  A    between atoms: C_6  and  N_7
REMARK    3  A    between atoms: C_8  and  O_10
REMARK    4  A    between atoms: O_10  and  C_11
REMARK    5  A    between atoms: C_15  and  N_19
REMARK    6  A    between atoms: N_19  and  C_20
REMARK    7  A    between atoms: C_20  and  C_21
REMARK    8  A    between atoms: C_24  and  C_27
REMARK                            x       y       z     vdW  Elec       q    Type
REMARK                         _______ _______ _______ _____ _____    ______ ____
ROOT
ATOM     11  C   UNL     1      -9.441 -10.183  14.613  0.00  0.00    +0.229 C 
ATOM     12  C   UNL     1      -8.731 -10.451  14.934  0.00  0.00    +0.188 C 
ATOM     13  O   UNL     1      -8.158 -10.425  14.341  0.00  0.00    -0.348 OA
ATOM     14  C   UNL     1      -8.514 -10.141  13.654  0.00  0.00    +0.164 C 
ATOM     15  C   UNL     1      -8.381  -9.949  12.863  0.00  0.00    +0.132 C 
ATOM     16  C   UNL     1      -9.091  -9.680  12.542  0.00  0.00    +0.162 C 
ATOM     17  O   UNL     1      -9.664  -9.706  13.134  0.00  0.00    -0.348 OA
ATOM     18  C   UNL     1      -9.307  -9.991  13.822  0.00  0.00    +0.186 C 
ENDROOT
BRANCH  11  10
ATOM     10  O   UNL     1     -10.161 -10.118  15.013  0.00  0.00    -0.432 OA
BRANCH  10   8
ATOM      7  N   UNL     1     -10.630  -9.651  16.279  0.00  0.00    -0.142 NA
ATOM      8  C   UNL     1     -10.183 -10.183  15.835  0.00  0.00    +0.425 C 
ATOM      9  O   UNL     1      -9.758 -10.781  16.213  0.00  0.00    -0.224 OA
BRANCH   7   6
ATOM      3  C   UNL     1     -10.697  -9.846  18.746  0.00  0.00    +0.139 A 
ATOM      4  C   UNL     1     -10.719 -10.526  18.277  0.00  0.00    +0.038 A 
ATOM      5  C   UNL     1     -10.697 -10.460  17.455  0.00  0.00    +0.020 A 
ATOM      6  C   UNL     1     -10.652  -9.716  17.101  0.00  0.00    +0.077 A 
ATOM     33  C   UNL     1     -10.630  -9.038  17.570  0.00  0.00    +0.020 A 
ATOM     34  C   UNL     1     -10.652  -9.103  18.392  0.00  0.00    +0.038 A 
BRANCH   3   2
ATOM      1  C   UNL     1     -10.328 -10.535  19.942  0.00  0.00    +0.252 C 
ATOM      2  O   UNL     1     -10.719  -9.912  19.568  0.00  0.00    -0.471 OA
ENDBRANCH   3   2
ENDBRANCH   7   6
ENDBRANCH  10   8
ENDBRANCH  11  10
BRANCH  15  19
ATOM     19  N   UNL     1      -7.662 -10.014  12.463  0.00  0.00    -0.210 NA
BRANCH  19  20
ATOM     20  C   UNL     1      -7.459  -9.460  11.886  0.00  0.00    +0.115 C 
BRANCH  20  21
ATOM     21  C   UNL     1      -6.689  -9.435  11.591  0.00  0.00    -0.005 A 
ATOM     22  C   UNL     1      -6.388 -10.076  11.168  0.00  0.00    -0.003 A 
ATOM     23  C   UNL     1      -5.618 -10.051  10.873  0.00  0.00    -0.000 A 
ATOM     24  C   UNL     1      -5.149  -9.383  11.001  0.00  0.00    -0.000 A 
ATOM     25  C   UNL     1      -5.451  -8.743  11.423  0.00  0.00    -0.000 A 
ATOM     26  C   UNL     1      -6.221  -8.768  11.718  0.00  0.00    -0.003 A 
BRANCH  24  27
ATOM     27  C   UNL     1      -4.379  -9.358  10.706  0.00  0.00    -0.000 A 
ATOM     28  C   UNL     1      -4.227  -8.996   9.979  0.00  0.00    -0.000 A 
ATOM     29  C   UNL     1      -3.458  -8.971   9.685  0.00  0.00    +0.000 A 
ATOM     30  C   UNL     1      -2.839  -9.306  10.116  0.00  0.00    +0.000 A 
ATOM     31  C   UNL     1      -2.991  -9.667  10.842  0.00  0.00    +0.000 A 
ATOM     32  C   UNL     1      -3.761  -9.693  11.137  0.00  0.00    -0.000 A 
ENDBRANCH  24  27
ENDBRANCH  20  21
ENDBRANCH  19  20
ENDBRANCH  15  19
TORSDOF 8
ENDMDL
MODEL 6
REMARK VINA RESULT:      -5.6     16.025     18.241
REMARK  Name = 
REMARK  8 active torsions:
REMARK  status: ('A' for Active; 'I' for Inactive)
REMARK    1  A    between atoms: O_2  and  C_3
REMARK    2  A    between atoms: C_6  and  N_7
REMARK    3  A    between atoms: C_8  and  O_10
REMARK    4  A    between atoms: O_10  and  C_11
REMARK    5  A    between atoms: C_15  and  N_19
REMARK    6  A    between atoms: N_19  and  C_20
REMARK    7  A    between atoms: C_20  and  C_21
REMARK    8  A    between atoms: C_24  and  C_27
REMARK                            x       y       z     vdW  Elec       q    Type
REMARK                         _______ _______ _______ _____ _____    ______ ____
ROOT
ATOM     11  C   UNL     1      -4.230  -9.830   9.869  0.00  0.00    +0.229 C 
ATOM     12  C   UNL     1      -4.075  -9.133   9.457  0.00  0.00    +0.188 C 
ATOM     13  O   UNL     1      -3.340  -8.851   9.702  0.00  0.00    -0.348 OA
ATOM     14  C   UNL     1      -3.040  -9.373  10.264  0.00  0.00    +0.164 C 
ATOM     15  C   UNL     1      -2.400  -9.523  10.763  0.00  0.00    +0.132 C 
ATOM     16  C   UNL     1      -2.555 -10.221  11.175  0.00  0.00    +0.162 C 
ATOM     17  O   UNL     1      -3.291 -10.503  10.931  0.00  0.00    -0.348 OA
ATOM     18  C   UNL     1      -3.590  -9.979  10.368  0.00  0.00    +0.186 C 
ENDROOT
BRANCH  11  10
ATOM     10  O   UNL     1      -4.906 -10.298   9.795  0.00  0.00    -0.432 OA
BRANCH  10   8
ATOM      7  N   UNL     1      -6.279  -9.966  10.011  0.00  0.00    -0.142 NA
ATOM      8  C   UNL     1      -5.612  -9.963   9.527  0.00  0.00    +0.425 C 
ATOM      9  O   UNL     1      -5.648  -9.626   8.775  0.00  0.00    -0.224 OA
BRANCH   7   6
ATOM      3  C   UNL     1      -8.395  -8.964   9.208  0.00  0.00    +0.139 A 
ATOM      4  C   UNL     1      -8.174  -9.718   8.957  0.00  0.00    +0.038 A 
ATOM      5  C   UNL     1      -7.469 -10.051   9.225  0.00  0.00    +0.020 A 
ATOM      6  C   UNL     1      -6.985  -9.631   9.744  0.00  0.00    +0.077 A 
ATOM     33  C   UNL     1      -7.206  -8.878   9.995  0.00  0.00    +0.020 A 
ATOM     34  C   UNL     1      -7.911  -8.543   9.727  0.00  0.00    +0.038 A 
BRANCH   3   2
ATOM      1  C   UNL     1      -9.557  -8.167   9.449  0.00  0.00    +0.252 C 
ATOM      2  O   UNL     1      -9.101  -8.630   8.940  0.00  0.00    -0.471 OA
ENDBRANCH   3   2
ENDBRANCH   7   6
ENDBRANCH  10   8
ENDBRANCH  11  10
BRANCH  15  19
ATOM     19  N   UNL     1      -1.724  -9.056  10.837  0.00  0.00    -0.210 NA
BRANCH  19  20
ATOM     20  C   UNL     1      -1.099  -9.308  11.313  0.00  0.00    +0.115 C 
BRANCH  20  21
ATOM     21  C   UNL     1      -0.463  -8.803  11.460  0.00  0.00    -0.005 A 
ATOM     22  C   UNL     1       0.186  -8.797  10.951  0.00  0.00    -0.003 A 
ATOM     23  C   UNL     1       0.822  -8.292  11.098  0.00  0.00    -0.000 A 
ATOM     24  C   UNL     1       0.808  -7.794  11.756  0.00  0.00    -0.000 A 
ATOM     25  C   UNL     1       0.159  -7.800  12.265  0.00  0.00    -0.000 A 
ATOM     26  C   UNL     1      -0.477  -8.305  12.118  0.00  0.00    -0.003 A 
BRANCH  24  27
ATOM     27  C   UNL     1       1.444  -7.288  11.904  0.00  0.00    -0.000 A 
ATOM     28  C   UNL     1       2.214  -7.535  11.737  0.00  0.00    -0.000 A 
ATOM     29  C   UNL     1       2.849  -7.030  11.885  0.00  0.00    +0.000 A 
ATOM     30  C   UNL     1       2.715  -6.279  12.199  0.00  0.00    +0.000 A 
ATOM     31  C   UNL     1       1.945  -6.033  12.365  0.00  0.00    +0.000 A 
ATOM     32  C   UNL     1       1.309  -6.538  12.217  0.00  0.00    -0.000 A 
ENDBRANCH  24  27
ENDBRANCH  20  21
ENDBRANCH  19  20
ENDBRANCH  15  19
TORSDOF 8
ENDMDL
MODEL 7
REMARK VINA RESULT:      -5.5     17.039     19.148
REMARK  Name = 
REMARK  8 active torsions:
REMARK  status: ('A' for Active; 'I' for Inactive)
REMARK    1  A    between atoms: O_2  and  C_3
REMARK    2  A    between atoms: C_6  and  N_7
REMARK    3  A    between atoms: C_8  and  O_10
REMARK    4  A    between atoms: O_10  and  C_11
REMARK    5  A    between atoms: C_15  and  N_19
REMARK    6  A    between atoms: N_19  and  C_20
REMARK    7  A    between atoms: C_20  and  C_21
REMARK    8  A    between atoms: C_24  and  C_27
REMARK                            x       y       z     vdW  Elec       q    Type
REMARK                         _______ _______ _______ _____ _____    ______ ____
ROOT
ATOM     11  C   UNL     1      -6.682  -9.937   9.605  0.00  0.00    +0.229 C 
ATOM     12  C   UNL     1      -6.300  -9.626   8.944  0.00  0.00    +0.188 C 
ATOM     13  O   UNL     1      -5.492  -9.600   9.107  0.00  0.00    -0.348 OA
ATOM     14  C   UNL     1      -5.374  -9.895   9.867  0.00  0.00    +0.164 C 
ATOM     15  C   UNL     1      -4.803 -10.063  10.438  0.00  0.00    +0.132 C 
ATOM     16  C   UNL     1      -5.185 -10.374  11.099  0.00  0.00    +0.162 C 
ATOM     17  O   UNL     1      -5.993 -10.400  10.937  0.00  0.00    -0.348 OA
ATOM     18  C   UNL     1      -6.110 -10.104  10.175  0.00  0.00    +0.186 C 
ENDROOT
BRANCH  11  10
ATOM     10  O   UNL     1      -7.495 -10.061   9.683  0.00  0.00    -0.432 OA
BRANCH  10   8
ATOM      7  N   UNL     1      -8.577  -9.131   9.761  0.00  0.00    -0.142 NA
ATOM      8  C   UNL     1      -8.027  -9.550   9.312  0.00  0.00    +0.425 C 
ATOM      9  O   UNL     1      -8.008  -9.459   8.492  0.00  0.00    -0.224 OA
BRANCH   7   6
ATOM      3  C   UNL     1     -10.173  -7.599   8.650  0.00  0.00    +0.139 A 
ATOM      4  C   UNL     1      -9.428  -7.325   8.877  0.00  0.00    +0.038 A 
ATOM      5  C   UNL     1      -8.896  -7.837   9.247  0.00  0.00    +0.020 A 
ATOM      6  C   UNL     1      -9.109  -8.620   9.391  0.00  0.00    +0.077 A 
ATOM     33  C   UNL     1      -9.853  -8.893   9.164  0.00  0.00    +0.020 A 
ATOM     34  C   UNL     1     -10.385  -8.383   8.794  0.00  0.00    +0.038 A 
BRANCH   3   2
ATOM      1  C   UNL     1     -10.616  -6.271   8.363  0.00  0.00    +0.252 C 
ATOM      2  O   UNL     1     -10.704  -7.088   8.280  0.00  0.00    -0.471 OA
ENDBRANCH   3   2
ENDBRANCH   7   6
ENDBRANCH  10   8
ENDBRANCH  11  10
BRANCH  15  19
ATOM     19  N   UNL     1      -3.990  -9.939  10.361  0.00  0.00    -0.210 NA
BRANCH  19  20
ATOM     20  C   UNL     1      -3.474 -10.215  10.943  0.00  0.00    +0.115 C 
BRANCH  20  21
ATOM     21  C   UNL     1      -2.732  -9.866  11.035  0.00  0.00    -0.005 A 
ATOM     22  C   UNL     1      -2.518  -9.222  10.565  0.00  0.00    -0.003 A 
ATOM     23  C   UNL     1      -1.776  -8.873  10.657  0.00  0.00    -0.000 A 
ATOM     24  C   UNL     1      -1.248  -9.169  11.219  0.00  0.00    -0.000 A 
ATOM     25  C   UNL     1      -1.463  -9.812  11.687  0.00  0.00    -0.000 A 
ATOM     26  C   UNL     1      -2.205 -10.162  11.596  0.00  0.00    -0.003 A 
BRANCH  24  27
ATOM     27  C   UNL     1      -0.506  -8.820  11.310  0.00  0.00    -0.000 A 
ATOM     28  C   UNL     1      -0.364  -8.315  11.948  0.00  0.00    -0.000 A 
ATOM     29  C   UNL     1       0.378  -7.967  12.040  0.00  0.00    +0.000 A 
ATOM     30  C   UNL     1       0.978  -8.123  11.495  0.00  0.00    +0.000 A 
ATOM     31  C   UNL     1       0.835  -8.627  10.858  0.00  0.00    +0.000 A 
ATOM     32  C   UNL     1       0.093  -8.976  10.766  0.00  0.00    -0.000 A 
ENDBRANCH  24  27
ENDBRANCH  20  21
ENDBRANCH  19  20
ENDBRANCH  15  19
TORSDOF 8
ENDMDL
MODEL 8
REMARK VINA RESULT:      -5.4     15.315     17.744
REMARK  Name = 
REMARK  8 active torsions:
REMARK  status: ('A' for Active; 'I' for Inactive)
REMARK    1  A    between atoms: O_2  and  C_3
REMARK    2  A    between atoms: C_6  and  N_7
REMARK    3  A    between atoms: C_8  and  O_10
REMARK    4  A    between atoms: O_10  and  C_11
REMARK    5  A    between atoms: C_15  and  N_19
REMARK    6  A    between atoms: N_19  and  C_20
REMARK    7  A    between atoms: C_20  and  C_21
REMARK    8  A    between atoms: C_24  and  C_27
REMARK                            x       y       z     vdW  Elec       q    Type
REMARK                         _______ _______ _______ _____ _____    ______ ____
ROOT
ATOM     11  C   UNL     1      -6.836 -10.266  13.110  0.00  0.00    +0.229 C 
ATOM     12  C   UNL     1      -6.389  -9.965  13.735  0.00  0.00    +0.188 C 
ATOM     13  O   UNL     1      -5.597  -9.972  13.507  0.00  0.00    -0.348 OA
ATOM     14  C   UNL     1      -5.553 -10.277  12.743  0.00  0.00    +0.164 C 
ATOM     15  C   UNL     1      -5.037 -10.471  12.129  0.00  0.00    +0.132 C 
ATOM     16  C   UNL     1      -5.483 -10.772  11.504  0.00  0.00    +0.162 C 
ATOM     17  O   UNL     1      -6.276 -10.765  11.732  0.00  0.00    -0.348 OA
ATOM     18  C   UNL     1      -6.319 -10.459  12.497  0.00  0.00    +0.186 C 
ENDROOT
BRANCH  11  10
ATOM     10  O   UNL     1      -7.656 -10.359  13.100  0.00  0.00    -0.432 OA
BRANCH  10   8
ATOM      7  N   UNL     1      -8.780  -9.790  13.776  0.00  0.00    -0.142 NA
ATOM      8  C   UNL     1      -8.092 -10.245  13.791  0.00  0.00    +0.425 C 
ATOM      9  O   UNL     1      -7.840 -10.588  14.499  0.00  0.00    -0.224 OA
BRANCH   7   6
ATOM      3  C   UNL     1     -10.088  -9.449  15.849  0.00  0.00    +0.139 A 
ATOM      4  C   UNL     1      -9.538  -8.882  15.610  0.00  0.00    +0.038 A 
ATOM      5  C   UNL     1      -9.102  -8.997  14.919  0.00  0.00    +0.020 A 
ATOM      6  C   UNL     1      -9.216  -9.677  14.467  0.00  0.00    +0.077 A 
ATOM     33  C   UNL     1      -9.766 -10.243  14.705  0.00  0.00    +0.020 A 
ATOM     34  C   UNL     1     -10.202 -10.129  15.396  0.00  0.00    +0.038 A 
BRANCH   3   2
ATOM      1  C   UNL     1     -10.719  -8.571  16.782  0.00  0.00    +0.252 C 
ATOM      2  O   UNL     1     -10.524  -9.335  16.540  0.00  0.00    -0.471 OA
ENDBRANCH   3   2
ENDBRANCH   7   6
ENDBRANCH  10   8
ENDBRANCH  11  10
BRANCH  15  19
ATOM     19  N   UNL     1      -4.216 -10.378  12.139  0.00  0.00    -0.210 NA
BRANCH  19  20
ATOM     20  C   UNL     1      -3.792 -10.390  11.431  0.00  0.00    +0.115 C 
BRANCH  20  21
ATOM     21  C   UNL     1      -3.039 -10.054  11.397  0.00  0.00    -0.005 A 
ATOM     22  C   UNL     1      -2.437 -10.339  11.884  0.00  0.00    -0.003 A 
ATOM     23  C   UNL     1      -1.684 -10.004  11.850  0.00  0.00    -0.000 A 
ATOM     24  C   UNL     1      -1.533  -9.382  11.327  0.00  0.00    -0.000 A 
ATOM     25  C   UNL     1      -2.135  -9.098  10.841  0.00  0.00    -0.000 A 
ATOM     26  C   UNL     1      -2.888  -9.434  10.875  0.00  0.00    -0.003 A 
BRANCH  24  27
ATOM     27  C   UNL     1      -0.780  -9.047  11.293  0.00  0.00    -0.000 A 
ATOM     28  C   UNL     1      -0.240  -9.304  10.724  0.00  0.00    -0.000 A 
ATOM     29  C   UNL     1       0.513  -8.968  10.690  0.00  0.00    +0.000 A 
ATOM     30  C   UNL     1       0.725  -8.376  11.223  0.00  0.00    +0.000 A 
ATOM     31  C   UNL     1       0.185  -8.119  11.791  0.00  0.00    +0.000 A 
ATOM     32  C   UNL     1      -0.568  -8.455  11.826  0.00  0.00    -0.000 A 
ENDBRANCH  24  27
ENDBRANCH  20  21
ENDBRANCH  19  20
ENDBRANCH  15  19
TORSDOF 8
ENDMDL
