MODEL 1
REMARK VINA RESULT:     -11.8      0.000      0.000
REMARK  Name = 
REMARK  3 active torsions:
REMARK  status: ('A' for Active; 'I' for Inactive)
REMARK    1  A    between atoms: C_7  and  C_9
REMARK    2  A    between atoms: N_12  and  C_13
REMARK    3  A    between atoms: C_13  and  C_14
REMARK                            x       y       z     vdW  Elec       q    Type
REMARK                         _______ _______ _______ _____ _____    ______ ____
ROOT
ATOM      9  C   UNL     1      -4.367   1.163  24.777  0.00  0.00    +0.076 C 
ATOM     10  C   UNL     1      -5.091   1.501  24.981  0.00  0.00    +0.026 C 
ATOM     11  C   UNL     1      -5.022   2.320  24.908  0.00  0.00    +0.073 C 
ATOM     12  N   UNL     1      -4.254   2.488  24.657  0.00  0.00    -0.268 NA
ATOM     19  C   UNL     1      -3.850   1.774  24.576  0.00  0.00    +0.080 C 
ENDROOT
BRANCH   9   7
ATOM      1  C   UNL     1      -3.796  -3.045  24.005  0.00  0.00    +0.031 C 
ATOM      2  C   UNL     1      -3.783  -2.313  24.384  0.00  0.00    -0.020 A 
ATOM      3  C   UNL     1      -4.100  -1.650  24.011  0.00  0.00    +0.016 A 
ATOM      4  C   UNL     1      -4.087  -0.917  24.390  0.00  0.00    +0.100 A 
ATOM      5  C   UNL     1      -3.756  -0.848  25.143  0.00  0.00    +0.100 A 
ATOM      6  N   UNL     1      -3.820  -0.061  25.379  0.00  0.00    -0.229 NA
ATOM      7  C   UNL     1      -4.191   0.357  24.773  0.00  0.00    +0.140 A 
ATOM      8  N   UNL     1      -4.356  -0.172  24.162  0.00  0.00    -0.229 NA
ATOM     20  C   UNL     1      -3.437  -1.512  25.516  0.00  0.00    +0.020 A 
ATOM     21  C   UNL     1      -3.451  -2.244  25.136  0.00  0.00    -0.003 A 
ENDBRANCH   9   7
BRANCH  12  13
ATOM     13  C   UNL     1      -3.945   3.239  24.513  0.00  0.00    +0.106 C 
BRANCH  13  14
ATOM     14  C   UNL     1      -3.432   3.587  25.059  0.00  0.00    +0.023 A 
ATOM     15  C   UNL     1      -3.645   3.905  25.790  0.00  0.00    +0.004 A 
ATOM     16  C   UNL     1      -2.961   4.192  26.152  0.00  0.00    +0.007 A 
ATOM     17  C   UNL     1      -2.326   4.050  25.644  0.00  0.00    +0.035 A 
ATOM     18  S   UNL     1      -2.618   3.677  24.969  0.00  0.00    -0.089 S 
ENDBRANCH  13  14
ENDBRANCH  12  13
TORSDOF 3
ENDMDL
MODEL 2
REMARK VINA RESULT:     -10.6      1.538      4.931
REMARK  Name = 
REMARK  3 active torsions:
REMARK  status: ('A' for Active; 'I' for Inactive)
REMARK    1  A    between atoms: C_7  and  C_9
REMARK    2  A    between atoms: N_12  and  C_13
REMARK    3  A    between atoms: C_13  and  C_14
REMARK                            x       y       z     vdW  Elec       q    Type
REMARK                         _______ _______ _______ _____ _____    ______ ____
ROOT
ATOM      9  C   UNL     1      -3.215   1.421  24.399  0.00  0.00    +0.076 C 
ATOM     10  C   UNL     1      -3.225   1.095  23.641  0.00  0.00    +0.026 C 
ATOM     11  C   UNL     1      -3.626   0.375  23.677  0.00  0.00    +0.073 C 
ATOM     12  N   UNL     1      -3.864   0.255  24.458  0.00  0.00    -0.268 NA
ATOM     19  C   UNL     1      -3.610   0.902  24.903  0.00  0.00    +0.080 C 
ENDROOT
BRANCH   9   7
ATOM      1  C   UNL     1      -0.781   4.925  25.051  0.00  0.00    +0.031 C 
ATOM      2  C   UNL     1      -1.412   4.396  25.091  0.00  0.00    -0.020 A 
ATOM      3  C   UNL     1      -1.377   3.682  24.679  0.00  0.00    +0.016 A 
ATOM      4  C   UNL     1      -2.008   3.151  24.718  0.00  0.00    +0.100 A 
ATOM      5  C   UNL     1      -2.674   3.336  25.169  0.00  0.00    +0.100 A 
ATOM      6  N   UNL     1      -3.207   2.710  25.104  0.00  0.00    -0.229 NA
ATOM      7  C   UNL     1      -2.871   2.139  24.613  0.00  0.00    +0.140 A 
ATOM      8  N   UNL     1      -2.130   2.412  24.375  0.00  0.00    -0.229 NA
ATOM     20  C   UNL     1      -2.709   4.051  25.581  0.00  0.00    +0.020 A 
ATOM     21  C   UNL     1      -2.078   4.580  25.541  0.00  0.00    -0.003 A 
ENDBRANCH   9   7
BRANCH  12  13
ATOM     13  C   UNL     1      -4.283  -0.395  24.743  0.00  0.00    +0.106 C 
BRANCH  13  14
ATOM     14  C   UNL     1      -3.933  -1.143  24.745  0.00  0.00    +0.023 A 
ATOM     15  C   UNL     1      -3.990  -1.707  24.146  0.00  0.00    +0.004 A 
ATOM     16  C   UNL     1      -3.558  -2.371  24.377  0.00  0.00    +0.007 A 
ATOM     17  C   UNL     1      -3.233  -2.215  25.120  0.00  0.00    +0.035 A 
ATOM     18  S   UNL     1      -3.465  -1.457  25.347  0.00  0.00    -0.089 S 
ENDBRANCH  13  14
ENDBRANCH  12  13
TORSDOF 3
ENDMDL
