REMARK  Name = 
REMARK  8 active torsions:
REMARK  status: ('A' for Active; 'I' for Inactive)
REMARK    1  A    between atoms: C_5  and  C_6
REMARK    2  A    between atoms: C_6  and  C_7
REMARK    3  A    between atoms: C_10  and  C_12
REMARK    4  A    between atoms: C_19  and  C_20
REMARK    5  A    between atoms: C_20  and  N_21
REMARK    6  A    between atoms: C_22  and  C_24
REMARK    7  A    between atoms: C_24  and  O_25
REMARK    8  A    between atoms: O_25  and  C_26
REMARK                            x       y       z     vdW  Elec       q    Type
REMARK                         _______ _______ _______ _____ _____    ______ ____
ROOT
ATOM      1  O   UNL     1       2.143  -5.362   0.000  0.00  0.00    -0.220 OA
ATOM      2  C   UNL     1       1.429  -4.950   0.000  0.00  0.00    +0.181 C 
ATOM      3  C   UNL     1       0.715  -5.362   0.000  0.00  0.00    +0.038 C 
ATOM      4  C   UNL     1       0.000  -4.950   0.000  0.00  0.00    +0.033 C 
ATOM      5  C   UNL     1       0.000  -4.125   0.000  0.00  0.00    +0.121 C 
ATOM     18  O   UNL     1       0.715  -3.712   0.000  0.00  0.00    -0.354 OA
ATOM     19  C   UNL     1       1.429  -4.125   0.000  0.00  0.00    +0.167 C 
ENDROOT
BRANCH   5   6
ATOM      6  C   UNL     1      -0.715  -3.712   0.000  0.00  0.00    +0.079 C 
BRANCH   6   7
ATOM      7  C   UNL     1      -1.429  -4.125   0.000  0.00  0.00    +0.103 A 
ATOM      8  N   UNL     1      -1.515  -4.946   0.000  0.00  0.00    -0.081 NA
ATOM      9  O   UNL     1      -2.322  -5.117   0.000  0.00  0.00    -0.354 OA
ATOM     10  C   UNL     1      -2.735  -4.402   0.000  0.00  0.00    +0.177 A 
ATOM     11  C   UNL     1      -2.183  -3.789   0.000  0.00  0.00    +0.058 A 
BRANCH  10  12
ATOM     12  C   UNL     1      -3.555  -4.316   0.000  0.00  0.00    +0.037 A 
ATOM     13  C   UNL     1      -4.040  -4.984   0.000  0.00  0.00    +0.003 A 
ATOM     14  C   UNL     1      -4.861  -4.897   0.000  0.00  0.00    +0.000 A 
ATOM     15  C   UNL     1      -5.196  -4.144   0.000  0.00  0.00    +0.000 A 
ATOM     16  C   UNL     1      -4.711  -3.476   0.000  0.00  0.00    +0.000 A 
ATOM     17  C   UNL     1      -3.891  -3.563   0.000  0.00  0.00    +0.003 A 
ENDBRANCH  10  12
ENDBRANCH   6   7
ENDBRANCH   5   6
BRANCH  19  20
ATOM     20  C   UNL     1       2.143  -3.712   0.000  0.00  0.00    +0.147 C 
BRANCH  20  21
ATOM     21  N   UNL     1       2.858  -4.125   0.000  0.00  0.00    -0.200 NA
ATOM     22  C   UNL     1       3.572  -3.712   0.000  0.00  0.00    +0.286 C 
ATOM     23  O   UNL     1       3.572  -2.888   0.000  0.00  0.00    -0.269 OA
BRANCH  22  24
ATOM     24  C   UNL     1       4.287  -4.125   0.000  0.00  0.00    +0.291 C 
BRANCH  24  25
ATOM     25  O   UNL     1       5.001  -3.712   0.000  0.00  0.00    -0.466 OA
BRANCH  25  26
ATOM     26  C   UNL     1       5.716  -4.125   0.000  0.00  0.00    +0.139 A 
ATOM     27  C   UNL     1       6.430  -3.712   0.000  0.00  0.00    +0.037 A 
ATOM     28  C   UNL     1       7.145  -4.125   0.000  0.00  0.00    +0.003 A 
ATOM     29  C   UNL     1       7.145  -4.950   0.000  0.00  0.00    +0.000 A 
ATOM     30  C   UNL     1       6.430  -5.362   0.000  0.00  0.00    +0.003 A 
ATOM     31  C   UNL     1       5.716  -4.950   0.000  0.00  0.00    +0.037 A 
ENDBRANCH  25  26
ENDBRANCH  24  25
ENDBRANCH  22  24
ENDBRANCH  20  21
ENDBRANCH  19  20
TORSDOF 8
