REMARK  Name = 
REMARK  4 active torsions:
REMARK  status: ('A' for Active; 'I' for Inactive)
REMARK    1  A    between atoms: O_2  and  C_3
REMARK    2  A    between atoms: C_3  and  C_4
REMARK    3  A    between atoms: N_12  and  C_13
REMARK    4  A    between atoms: C_13  and  C_14
REMARK                            x       y       z     vdW  Elec       q    Type
REMARK                         _______ _______ _______ _____ _____    ______ ____
ROOT
ATOM      4  C   UNL     1       4.067   2.348   0.000  0.00  0.00    +0.256 C 
ATOM      5  O   UNL     1       4.067   3.173   0.000  0.00  0.00    -0.272 OA
ATOM      6  N   UNL     1       3.352   1.935   0.000  0.00  0.00    -0.274 N 
ATOM      7  C   UNL     1       3.352   1.110   0.000  0.00  0.00    +0.115 C 
ATOM      8  C   UNL     1       2.638   0.698   0.000  0.00  0.00    +0.116 C 
ATOM      9  N   UNL     1       1.923   1.110   0.000  0.00  0.00    -0.261 N 
ATOM     10  C   UNL     1       1.923   1.935   0.000  0.00  0.00    +0.116 C 
ATOM     11  C   UNL     1       1.139   2.190   0.000  0.00  0.00    +0.117 C 
ATOM     12  N   UNL     1       0.654   1.523   0.000  0.00  0.00    -0.255 N 
ATOM     20  C   UNL     1       1.139   0.856   0.000  0.00  0.00    +0.308 C 
ATOM     21  O   UNL     1       0.884   0.071   0.000  0.00  0.00    -0.252 OA
ATOM     22  C   UNL     1       2.638   2.348   0.000  0.00  0.00    +0.115 C 
ENDROOT
BRANCH   4   3
ATOM      3  C   UNL     1       4.781   1.935   0.000  0.00  0.00    +0.227 C 
BRANCH   3   2
ATOM      1  C   UNL     1       6.210   1.935   0.000  0.00  0.00    +0.175 C 
ATOM      2  O   UNL     1       5.496   2.348   0.000  0.00  0.00    -0.342 OA
ENDBRANCH   3   2
ENDBRANCH   4   3
BRANCH  12  13
ATOM     13  C   UNL     1      -0.171   1.523   0.000  0.00  0.00    +0.159 C 
BRANCH  13  14
ATOM     14  C   UNL     1      -0.584   2.237   0.000  0.00  0.00    +0.141 A 
ATOM     15  N   UNL     1      -1.404   2.324   0.000  0.00  0.00    -0.228 NA
ATOM     16  C   UNL     1      -1.576   3.131   0.000  0.00  0.00    +0.119 A 
ATOM     17  C   UNL     1      -0.861   3.543   0.000  0.00  0.00    +0.098 A 
ATOM     18  N   UNL     1      -0.248   2.991   0.000  0.00  0.00    -0.310 N 
ATOM     19  C   UNL     1       0.559   3.163   0.000  0.00  0.00    +0.132 C 
ENDBRANCH  13  14
ENDBRANCH  12  13
TORSDOF 4
