REMARK  Name = 
REMARK  8 active torsions:
REMARK  status: ('A' for Active; 'I' for Inactive)
REMARK    1  A    between atoms: O_2  and  C_3
REMARK    2  A    between atoms: C_4  and  C_9
REMARK    3  A    between atoms: C_13  and  C_15
REMARK    4  A    between atoms: C_22  and  C_23
REMARK    5  A    between atoms: C_23  and  O_24
REMARK    6  A    between atoms: O_24  and  C_25
REMARK    7  A    between atoms: N_27  and  C_28
REMARK    8  A    between atoms: C_31  and  C_34
REMARK                            x       y       z     vdW  Elec       q    Type
REMARK                         _______ _______ _______ _____ _____    ______ ____
ROOT
ATOM     15  C   UNL     1       1.661  -1.343   0.000  0.00  0.00    +0.056 C 
ATOM     16  C   UNL     1       1.814  -2.106   0.000  0.00  0.00    +0.078 C 
ATOM     17  N   UNL     1       1.065  -1.759   0.000  0.00  0.00    -0.270 NA
ATOM     18  C   UNL     1       1.205  -0.720   0.000  0.00  0.00    +0.072 C 
ATOM     19  C   UNL     1       0.961  -0.114   0.000  0.00  0.00    +0.018 C 
ATOM     20  C   UNL     1       0.923  -1.010   0.000  0.00  0.00    +0.010 C 
ATOM     21  C   UNL     1       0.119  -1.362   0.000  0.00  0.00    +0.020 C 
ATOM     22  C   UNL     1       0.226  -2.118   0.000  0.00  0.00    +0.102 C 
ENDROOT
BRANCH  15  13
ATOM      9  C   UNL     1       3.043   0.285   0.000  0.00  0.00    +0.105 A 
ATOM     10  N   UNL     1       3.557  -0.360   0.000  0.00  0.00    -0.169 NA
ATOM     11  N   UNL     1       3.102  -1.048   0.000  0.00  0.00    -0.253 N 
ATOM     12  C   UNL     1       3.391  -1.821   0.000  0.00  0.00    +0.153 C 
ATOM     13  C   UNL     1       2.307  -0.828   0.000  0.00  0.00    +0.058 A 
ATOM     14  C   UNL     1       2.270  -0.004   0.000  0.00  0.00    +0.035 A 
BRANCH   9   4
ATOM      3  C   UNL     1       4.061   1.288   0.000  0.00  0.00    +0.140 A 
ATOM      4  C   UNL     1       3.263   1.080   0.000  0.00  0.00    +0.053 A 
ATOM      5  C   UNL     1       2.684   1.668   0.000  0.00  0.00    +0.005 A 
ATOM      6  C   UNL     1       2.904   2.464   0.000  0.00  0.00    +0.000 A 
ATOM      7  C   UNL     1       3.702   2.671   0.000  0.00  0.00    +0.003 A 
ATOM      8  C   UNL     1       4.281   2.083   0.000  0.00  0.00    +0.037 A 
BRANCH   3   2
ATOM      1  C   UNL     1       5.438   0.907   0.000  0.00  0.00    +0.252 C 
ATOM      2  O   UNL     1       4.640   0.700   0.000  0.00  0.00    -0.471 OA
ENDBRANCH   3   2
ENDBRANCH   9   4
ENDBRANCH  15  13
BRANCH  22  23
ATOM     23  C   UNL     1      -0.179  -2.836   0.000  0.00  0.00    +0.226 C 
BRANCH  23  24
ATOM     24  O   UNL     1       0.241  -3.546   0.000  0.00  0.00    -0.432 OA
BRANCH  24  25
ATOM     25  C   UNL     1      -0.163  -4.265   0.000  0.00  0.00    +0.425 C 
ATOM     26  O   UNL     1      -0.988  -4.274   0.000  0.00  0.00    -0.224 OA
ATOM     27  N   UNL     1       0.257  -4.975   0.000  0.00  0.00    -0.142 NA
BRANCH  27  28
ATOM     28  C   UNL     1      -0.148  -5.694   0.000  0.00  0.00    +0.077 A 
ATOM     29  C   UNL     1       0.272  -6.404   0.000  0.00  0.00    +0.016 A 
ATOM     30  C   UNL     1      -0.133  -7.123   0.000  0.00  0.00    -0.003 A 
ATOM     31  C   UNL     1      -0.958  -7.132   0.000  0.00  0.00    -0.022 A 
ATOM     32  C   UNL     1      -1.378  -6.422   0.000  0.00  0.00    -0.003 A 
ATOM     33  C   UNL     1      -0.973  -5.703   0.000  0.00  0.00    +0.016 A 
BRANCH  31  34
ATOM     34  C   UNL     1      -1.362  -7.851   0.000  0.00  0.00    +0.022 C 
ATOM     35  C   UNL     1      -0.942  -8.561   0.000  0.00  0.00    +0.005 C 
ATOM     36  C   UNL     1      -2.187  -7.859   0.000  0.00  0.00    +0.005 C 
ENDBRANCH  31  34
ENDBRANCH  27  28
ENDBRANCH  24  25
ENDBRANCH  23  24
ENDBRANCH  22  23
TORSDOF 8
