MODEL 1
REMARK VINA RESULT:      -9.4      0.000      0.000
REMARK  Name = 
REMARK  6 active torsions:
REMARK  status: ('A' for Active; 'I' for Inactive)
REMARK    1  A    between atoms: C_2  and  C_5
REMARK    2  A    between atoms: C_8  and  C_11
REMARK    3  A    between atoms: N_13  and  C_14
REMARK    4  A    between atoms: C_18  and  O_22
REMARK    5  A    between atoms: O_22  and  C_23
REMARK    6  A    between atoms: C_23  and  C_24
REMARK                            x       y       z     vdW  Elec       q    Type
REMARK                         _______ _______ _______ _____ _____    ______ ____
ROOT
ATOM     14  C   UNL     1      -0.720   1.487  24.265  0.00  0.00    +0.155 C 
ATOM     15  C   UNL     1      -0.269   2.140  24.490  0.00  0.00    +0.166 C 
ATOM     16  O   UNL     1       0.506   2.013  24.239  0.00  0.00    -0.349 OA
ATOM     17  C   UNL     1       0.535   1.282  23.859  0.00  0.00    +0.173 C 
ATOM     18  C   UNL     1       1.031   0.751  23.469  0.00  0.00    +0.175 C 
ATOM     19  C   UNL     1       0.581   0.098  23.243  0.00  0.00    +0.174 C 
ATOM     20  O   UNL     1      -0.195   0.225  23.494  0.00  0.00    -0.349 OA
ATOM     21  C   UNL     1      -0.223   0.957  23.875  0.00  0.00    +0.167 C 
ENDROOT
BRANCH  14  13
ATOM     11  C   UNL     1      -2.046   2.017  24.315  0.00  0.00    +0.265 C 
ATOM     12  O   UNL     1      -1.759   2.756  24.085  0.00  0.00    -0.268 OA
ATOM     13  N   UNL     1      -1.526   1.383  24.405  0.00  0.00    -0.198 NA
BRANCH  11   8
ATOM      5  C   UNL     1      -4.465   1.706  24.736  0.00  0.00    +0.071 A 
ATOM      6  C   UNL     1      -4.054   1.163  24.270  0.00  0.00    +0.004 A 
ATOM      7  C   UNL     1      -3.248   1.267  24.130  0.00  0.00    +0.005 A 
ATOM      8  C   UNL     1      -2.852   1.913  24.455  0.00  0.00    +0.055 A 
ATOM      9  C   UNL     1      -3.263   2.457  24.921  0.00  0.00    +0.005 A 
ATOM     10  C   UNL     1      -4.070   2.353  25.061  0.00  0.00    +0.004 A 
BRANCH   5   2
ATOM      1  F   UNL     1      -6.078   1.499  25.016  0.00  0.00    -0.166 F 
ATOM      2  C   UNL     1      -5.271   1.602  24.876  0.00  0.00    +0.419 C 
ATOM      3  F   UNL     1      -5.098   1.064  25.476  0.00  0.00    -0.166 F 
ATOM      4  F   UNL     1      -5.445   2.141  24.275  0.00  0.00    -0.166 F 
ENDBRANCH   5   2
ENDBRANCH  11   8
ENDBRANCH  14  13
BRANCH  18  22
ATOM     22  O   UNL     1       1.838   0.855  23.328  0.00  0.00    -0.346 OA
BRANCH  22  23
ATOM     23  C   UNL     1       2.273   0.258  22.961  0.00  0.00    +0.169 C 
BRANCH  23  24
ATOM     24  C   UNL     1       3.098   0.291  22.958  0.00  0.00    +0.007 A 
ATOM     25  C   UNL     1       3.537  -0.342  23.251  0.00  0.00    -0.002 A 
ATOM     26  C   UNL     1       4.361  -0.311  23.249  0.00  0.00    -0.000 A 
ATOM     27  C   UNL     1       4.746   0.357  22.951  0.00  0.00    -0.000 A 
ATOM     28  C   UNL     1       4.307   0.990  22.658  0.00  0.00    -0.000 A 
ATOM     29  C   UNL     1       3.483   0.958  22.661  0.00  0.00    -0.002 A 
ENDBRANCH  23  24
ENDBRANCH  22  23
ENDBRANCH  18  22
TORSDOF 6
ENDMDL
MODEL 2
REMARK VINA RESULT:      -9.2      3.218      6.828
REMARK  Name = 
REMARK  6 active torsions:
REMARK  status: ('A' for Active; 'I' for Inactive)
REMARK    1  A    between atoms: C_2  and  C_5
REMARK    2  A    between atoms: C_8  and  C_11
REMARK    3  A    between atoms: N_13  and  C_14
REMARK    4  A    between atoms: C_18  and  O_22
REMARK    5  A    between atoms: O_22  and  C_23
REMARK    6  A    between atoms: C_23  and  C_24
REMARK                            x       y       z     vdW  Elec       q    Type
REMARK                         _______ _______ _______ _____ _____    ______ ____
ROOT
ATOM     14  C   UNL     1      -0.718   0.884  23.959  0.00  0.00    +0.155 C 
ATOM     15  C   UNL     1      -1.020   0.254  24.396  0.00  0.00    +0.166 C 
ATOM     16  O   UNL     1      -1.807   0.424  24.577  0.00  0.00    -0.349 OA
ATOM     17  C   UNL     1      -1.990   1.159  24.252  0.00  0.00    +0.173 C 
ATOM     18  C   UNL     1      -2.589   1.719  24.162  0.00  0.00    +0.175 C 
ATOM     19  C   UNL     1      -2.287   2.349  23.725  0.00  0.00    +0.174 C 
ATOM     20  O   UNL     1      -1.501   2.179  23.544  0.00  0.00    -0.349 OA
ATOM     21  C   UNL     1      -1.317   1.443  23.870  0.00  0.00    +0.167 C 
ENDROOT
BRANCH  14  13
ATOM     11  C   UNL     1       0.489   0.262  23.511  0.00  0.00    +0.265 C 
ATOM     12  O   UNL     1       0.159  -0.481  23.657  0.00  0.00    -0.268 OA
ATOM     13  N   UNL     1       0.050   0.944  23.662  0.00  0.00    -0.198 NA
BRANCH  11   8
ATOM      5  C   UNL     1       2.791   0.442  22.622  0.00  0.00    +0.071 A 
ATOM      6  C   UNL     1       2.540   0.950  23.221  0.00  0.00    +0.004 A 
ATOM      7  C   UNL     1       1.773   0.890  23.517  0.00  0.00    +0.005 A 
ATOM      8  C   UNL     1       1.256   0.322  23.215  0.00  0.00    +0.055 A 
ATOM      9  C   UNL     1       1.507  -0.186  22.615  0.00  0.00    +0.005 A 
ATOM     10  C   UNL     1       2.275  -0.126  22.319  0.00  0.00    +0.004 A 
BRANCH   5   2
ATOM      1  F   UNL     1       4.327   0.561  22.028  0.00  0.00    -0.166 F 
ATOM      2  C   UNL     1       3.559   0.501  22.325  0.00  0.00    +0.419 C 
ATOM      3  F   UNL     1       3.258   0.592  21.563  0.00  0.00    -0.166 F 
ATOM      4  F   UNL     1       3.861   0.411  23.088  0.00  0.00    -0.166 F 
ENDBRANCH   5   2
ENDBRANCH  11   8
ENDBRANCH  14  13
BRANCH  18  22
ATOM     22  O   UNL     1      -3.357   1.659  24.459  0.00  0.00    -0.346 OA
BRANCH  22  23
ATOM     23  C   UNL     1      -3.868   2.305  24.415  0.00  0.00    +0.169 C 
BRANCH  23  24
ATOM     24  C   UNL     1      -4.581   2.296  24.831  0.00  0.00    +0.007 A 
ATOM     25  C   UNL     1      -4.728   2.865  25.409  0.00  0.00    -0.002 A 
ATOM     26  C   UNL     1      -5.441   2.857  25.825  0.00  0.00    -0.000 A 
ATOM     27  C   UNL     1      -6.007   2.279  25.661  0.00  0.00    -0.000 A 
ATOM     28  C   UNL     1      -5.859   1.710  25.083  0.00  0.00    -0.000 A 
ATOM     29  C   UNL     1      -5.147   1.718  24.667  0.00  0.00    -0.002 A 
ENDBRANCH  23  24
ENDBRANCH  22  23
ENDBRANCH  18  22
TORSDOF 6
ENDMDL
MODEL 3
REMARK VINA RESULT:      -9.2      3.346      4.760
REMARK  Name = 
REMARK  6 active torsions:
REMARK  status: ('A' for Active; 'I' for Inactive)
REMARK    1  A    between atoms: C_2  and  C_5
REMARK    2  A    between atoms: C_8  and  C_11
REMARK    3  A    between atoms: N_13  and  C_14
REMARK    4  A    between atoms: C_18  and  O_22
REMARK    5  A    between atoms: O_22  and  C_23
REMARK    6  A    between atoms: C_23  and  C_24
REMARK                            x       y       z     vdW  Elec       q    Type
REMARK                         _______ _______ _______ _____ _____    ______ ____
ROOT
ATOM     14  C   UNL     1      -2.287   0.851  23.950  0.00  0.00    +0.155 C 
ATOM     15  C   UNL     1      -2.731   1.408  23.533  0.00  0.00    +0.166 C 
ATOM     16  O   UNL     1      -2.361   2.140  23.615  0.00  0.00    -0.349 OA
ATOM     17  C   UNL     1      -1.690   2.037  24.082  0.00  0.00    +0.173 C 
ATOM     18  C   UNL     1      -1.046   2.425  24.422  0.00  0.00    +0.175 C 
ATOM     19  C   UNL     1      -0.602   1.869  24.838  0.00  0.00    +0.174 C 
ATOM     20  O   UNL     1      -0.972   1.136  24.757  0.00  0.00    -0.349 OA
ATOM     21  C   UNL     1      -1.644   1.240  24.289  0.00  0.00    +0.167 C 
ENDROOT
BRANCH  14  13
ATOM     11  C   UNL     1      -3.206  -0.199  24.261  0.00  0.00    +0.265 C 
ATOM     12  O   UNL     1      -3.785   0.362  24.441  0.00  0.00    -0.268 OA
ATOM     13  N   UNL     1      -2.457   0.046  24.016  0.00  0.00    -0.198 NA
BRANCH  11   8
ATOM      5  C   UNL     1      -3.717  -2.611  24.459  0.00  0.00    +0.071 A 
ATOM      6  C   UNL     1      -3.117  -2.278  24.917  0.00  0.00    +0.004 A 
ATOM      7  C   UNL     1      -2.947  -1.474  24.851  0.00  0.00    +0.005 A 
ATOM      8  C   UNL     1      -3.376  -1.003  24.327  0.00  0.00    +0.055 A 
ATOM      9  C   UNL     1      -3.976  -1.336  23.869  0.00  0.00    +0.005 A 
ATOM     10  C   UNL     1      -4.147  -2.141  23.935  0.00  0.00    +0.004 A 
BRANCH   5   2
ATOM      1  F   UNL     1      -4.059  -4.221  24.591  0.00  0.00    -0.166 F 
ATOM      2  C   UNL     1      -3.888  -3.416  24.525  0.00  0.00    +0.419 C 
ATOM      3  F   UNL     1      -4.187  -3.416  23.757  0.00  0.00    -0.166 F 
ATOM      4  F   UNL     1      -3.589  -3.417  25.294  0.00  0.00    -0.166 F 
ENDBRANCH   5   2
ENDBRANCH  11   8
ENDBRANCH  14  13
BRANCH  18  22
ATOM     22  O   UNL     1      -0.875   3.230  24.356  0.00  0.00    -0.346 OA
BRANCH  22  23
ATOM     23  C   UNL     1      -0.813   3.696  25.034  0.00  0.00    +0.169 C 
BRANCH  23  24
ATOM     24  C   UNL     1      -1.025   4.493  25.009  0.00  0.00    +0.007 A 
ATOM     25  C   UNL     1      -0.525   5.042  24.650  0.00  0.00    -0.002 A 
ATOM     26  C   UNL     1      -0.737   5.839  24.625  0.00  0.00    -0.000 A 
ATOM     27  C   UNL     1      -1.451   6.086  24.959  0.00  0.00    -0.000 A 
ATOM     28  C   UNL     1      -1.951   5.536  25.317  0.00  0.00    -0.000 A 
ATOM     29  C   UNL     1      -1.739   4.739  25.342  0.00  0.00    -0.002 A 
ENDBRANCH  23  24
ENDBRANCH  22  23
ENDBRANCH  18  22
TORSDOF 6
ENDMDL
MODEL 4
REMARK VINA RESULT:      -9.1      3.670      7.020
REMARK  Name = 
REMARK  6 active torsions:
REMARK  status: ('A' for Active; 'I' for Inactive)
REMARK    1  A    between atoms: C_2  and  C_5
REMARK    2  A    between atoms: C_8  and  C_11
REMARK    3  A    between atoms: N_13  and  C_14
REMARK    4  A    between atoms: C_18  and  O_22
REMARK    5  A    between atoms: O_22  and  C_23
REMARK    6  A    between atoms: C_23  and  C_24
REMARK                            x       y       z     vdW  Elec       q    Type
REMARK                         _______ _______ _______ _____ _____    ______ ____
ROOT
ATOM     14  C   UNL     1       0.892   0.627  23.529  0.00  0.00    +0.155 C 
ATOM     15  C   UNL     1       0.419   0.110  23.096  0.00  0.00    +0.166 C 
ATOM     16  O   UNL     1      -0.366   0.345  23.188  0.00  0.00    -0.349 OA
ATOM     17  C   UNL     1      -0.378   1.008  23.678  0.00  0.00    +0.173 C 
ATOM     18  C   UNL     1      -0.870   1.563  24.039  0.00  0.00    +0.175 C 
ATOM     19  C   UNL     1      -0.396   2.081  24.472  0.00  0.00    +0.174 C 
ATOM     20  O   UNL     1       0.389   1.846  24.380  0.00  0.00    -0.349 OA
ATOM     21  C   UNL     1       0.400   1.182  23.889  0.00  0.00    +0.167 C 
ENDROOT
BRANCH  14  13
ATOM     11  C   UNL     1       2.165   0.297  22.968  0.00  0.00    +0.265 C 
ATOM     12  O   UNL     1       1.791   0.030  22.281  0.00  0.00    -0.268 OA
ATOM     13  N   UNL     1       1.715   0.596  23.591  0.00  0.00    -0.198 NA
BRANCH  11   8
ATOM      5  C   UNL     1       4.630   0.201  23.154  0.00  0.00    +0.071 A 
ATOM      6  C   UNL     1       4.265   0.878  22.857  0.00  0.00    +0.004 A 
ATOM      7  C   UNL     1       3.444   0.910  22.796  0.00  0.00    +0.005 A 
ATOM      8  C   UNL     1       2.986   0.265  23.030  0.00  0.00    +0.055 A 
ATOM      9  C   UNL     1       3.351  -0.413  23.326  0.00  0.00    +0.005 A 
ATOM     10  C   UNL     1       4.174  -0.445  23.388  0.00  0.00    +0.004 A 
BRANCH   5   2
ATOM      1  F   UNL     1       6.275   0.136  23.278  0.00  0.00    -0.166 F 
ATOM      2  C   UNL     1       5.453   0.168  23.216  0.00  0.00    +0.419 C 
ATOM      3  F   UNL     1       5.511   0.080  22.398  0.00  0.00    -0.166 F 
ATOM      4  F   UNL     1       5.394   0.257  24.034  0.00  0.00    -0.166 F 
ENDBRANCH   5   2
ENDBRANCH  11   8
ENDBRANCH  14  13
BRANCH  18  22
ATOM     22  O   UNL     1      -1.692   1.595  23.977  0.00  0.00    -0.346 OA
BRANCH  22  23
ATOM     23  C   UNL     1      -2.124   2.096  24.470  0.00  0.00    +0.169 C 
BRANCH  23  24
ATOM     24  C   UNL     1      -2.947   2.126  24.410  0.00  0.00    +0.007 A 
ATOM     25  C   UNL     1      -3.309   2.755  24.018  0.00  0.00    -0.002 A 
ATOM     26  C   UNL     1      -4.131   2.786  23.957  0.00  0.00    -0.000 A 
ATOM     27  C   UNL     1      -4.591   2.186  24.289  0.00  0.00    -0.000 A 
ATOM     28  C   UNL     1      -4.229   1.557  24.680  0.00  0.00    -0.000 A 
ATOM     29  C   UNL     1      -3.406   1.526  24.741  0.00  0.00    -0.002 A 
ENDBRANCH  23  24
ENDBRANCH  22  23
ENDBRANCH  18  22
TORSDOF 6
ENDMDL
MODEL 5
REMARK VINA RESULT:      -9.1      3.724      5.470
REMARK  Name = 
REMARK  6 active torsions:
REMARK  status: ('A' for Active; 'I' for Inactive)
REMARK    1  A    between atoms: C_2  and  C_5
REMARK    2  A    between atoms: C_8  and  C_11
REMARK    3  A    between atoms: N_13  and  C_14
REMARK    4  A    between atoms: C_18  and  O_22
REMARK    5  A    between atoms: O_22  and  C_23
REMARK    6  A    between atoms: C_23  and  C_24
REMARK                            x       y       z     vdW  Elec       q    Type
REMARK                         _______ _______ _______ _____ _____    ______ ____
ROOT
ATOM     14  C   UNL     1      -2.043   1.446  24.947  0.00  0.00    +0.155 C 
ATOM     15  C   UNL     1      -1.429   0.906  25.056  0.00  0.00    +0.166 C 
ATOM     16  O   UNL     1      -1.760   0.154  25.125  0.00  0.00    -0.349 OA
ATOM     17  C   UNL     1      -2.579   0.228  25.059  0.00  0.00    +0.173 C 
ATOM     18  C   UNL     1      -3.290  -0.190  25.061  0.00  0.00    +0.175 C 
ATOM     19  C   UNL     1      -3.904   0.350  24.953  0.00  0.00    +0.174 C 
ATOM     20  O   UNL     1      -3.573   1.102  24.884  0.00  0.00    -0.349 OA
ATOM     21  C   UNL     1      -2.753   1.027  24.949  0.00  0.00    +0.167 C 
ENDROOT
BRANCH  14  13
ATOM     11  C   UNL     1      -1.438   2.682  25.333  0.00  0.00    +0.265 C 
ATOM     12  O   UNL     1      -0.997   2.285  25.908  0.00  0.00    -0.268 OA
ATOM     13  N   UNL     1      -1.961   2.261  24.853  0.00  0.00    -0.198 NA
BRANCH  11   8
ATOM      5  C   UNL     1      -1.191   5.128  25.053  0.00  0.00    +0.071 A 
ATOM      6  C   UNL     1      -0.611   4.618  24.761  0.00  0.00    +0.004 A 
ATOM      7  C   UNL     1      -0.693   3.804  24.855  0.00  0.00    +0.005 A 
ATOM      8  C   UNL     1      -1.356   3.497  25.240  0.00  0.00    +0.055 A 
ATOM      9  C   UNL     1      -1.936   4.006  25.531  0.00  0.00    +0.005 A 
ATOM     10  C   UNL     1      -1.853   4.822  25.438  0.00  0.00    +0.004 A 
BRANCH   5   2
ATOM      1  F   UNL     1      -1.027   6.759  24.865  0.00  0.00    -0.166 F 
ATOM      2  C   UNL     1      -1.109   5.943  24.959  0.00  0.00    +0.419 C 
ATOM      3  F   UNL     1      -1.834   6.060  25.333  0.00  0.00    -0.166 F 
ATOM      4  F   UNL     1      -0.383   5.827  24.584  0.00  0.00    -0.166 F 
ENDBRANCH   5   2
ENDBRANCH  11   8
ENDBRANCH  14  13
BRANCH  18  22
ATOM     22  O   UNL     1      -3.372  -1.005  25.155  0.00  0.00    -0.346 OA
BRANCH  22  23
ATOM     23  C   UNL     1      -3.998  -1.402  24.791  0.00  0.00    +0.169 C 
BRANCH  23  24
ATOM     24  C   UNL     1      -3.896  -2.176  24.524  0.00  0.00    +0.007 A 
ATOM     25  C   UNL     1      -4.248  -2.418  23.818  0.00  0.00    -0.002 A 
ATOM     26  C   UNL     1      -4.147  -3.192  23.550  0.00  0.00    -0.000 A 
ATOM     27  C   UNL     1      -3.693  -3.723  23.989  0.00  0.00    -0.000 A 
ATOM     28  C   UNL     1      -3.342  -3.481  24.694  0.00  0.00    -0.000 A 
ATOM     29  C   UNL     1      -3.443  -2.707  24.962  0.00  0.00    -0.002 A 
ENDBRANCH  23  24
ENDBRANCH  22  23
ENDBRANCH  18  22
TORSDOF 6
ENDMDL
MODEL 6
REMARK VINA RESULT:      -9.1      4.017      6.979
REMARK  Name = 
REMARK  6 active torsions:
REMARK  status: ('A' for Active; 'I' for Inactive)
REMARK    1  A    between atoms: C_2  and  C_5
REMARK    2  A    between atoms: C_8  and  C_11
REMARK    3  A    between atoms: N_13  and  C_14
REMARK    4  A    between atoms: C_18  and  O_22
REMARK    5  A    between atoms: O_22  and  C_23
REMARK    6  A    between atoms: C_23  and  C_24
REMARK                            x       y       z     vdW  Elec       q    Type
REMARK                         _______ _______ _______ _____ _____    ______ ____
ROOT
ATOM     14  C   UNL     1       0.754   0.064  23.542  0.00  0.00    +0.155 C 
ATOM     15  C   UNL     1       0.288   0.432  22.970  0.00  0.00    +0.166 C 
ATOM     16  O   UNL     1      -0.498   0.226  23.112  0.00  0.00    -0.349 OA
ATOM     17  C   UNL     1      -0.518  -0.268  23.771  0.00  0.00    +0.173 C 
ATOM     18  C   UNL     1      -1.016  -0.701  24.267  0.00  0.00    +0.175 C 
ATOM     19  C   UNL     1      -0.550  -1.069  24.839  0.00  0.00    +0.174 C 
ATOM     20  O   UNL     1       0.236  -0.863  24.697  0.00  0.00    -0.349 OA
ATOM     21  C   UNL     1       0.256  -0.369  24.037  0.00  0.00    +0.167 C 
ENDROOT
BRANCH  14  13
ATOM     11  C   UNL     1       2.047   0.071  22.933  0.00  0.00    +0.265 C 
ATOM     12  O   UNL     1       1.697  -0.032  22.192  0.00  0.00    -0.268 OA
ATOM     13  N   UNL     1       1.575   0.119  23.608  0.00  0.00    -0.198 NA
BRANCH  11   8
ATOM      5  C   UNL     1       4.508   0.236  23.128  0.00  0.00    +0.071 A 
ATOM      6  C   UNL     1       4.071   0.885  22.868  0.00  0.00    +0.004 A 
ATOM      7  C   UNL     1       3.251   0.830  22.803  0.00  0.00    +0.005 A 
ATOM      8  C   UNL     1       2.867   0.126  22.998  0.00  0.00    +0.055 A 
ATOM      9  C   UNL     1       3.304  -0.523  23.258  0.00  0.00    +0.005 A 
ATOM     10  C   UNL     1       4.125  -0.469  23.323  0.00  0.00    +0.004 A 
BRANCH   5   2
ATOM      1  F   UNL     1       6.150   0.345  23.259  0.00  0.00    -0.166 F 
ATOM      2  C   UNL     1       5.329   0.290  23.194  0.00  0.00    +0.419 C 
ATOM      3  F   UNL     1       5.403   0.143  22.386  0.00  0.00    -0.166 F 
ATOM      4  F   UNL     1       5.255   0.438  24.002  0.00  0.00    -0.166 F 
ENDBRANCH   5   2
ENDBRANCH  11   8
ENDBRANCH  14  13
BRANCH  18  22
ATOM     22  O   UNL     1      -1.837  -0.756  24.201  0.00  0.00    -0.346 OA
BRANCH  22  23
ATOM     23  C   UNL     1      -2.250  -1.310  24.652  0.00  0.00    +0.169 C 
BRANCH  23  24
ATOM     24  C   UNL     1      -3.008  -1.543  24.424  0.00  0.00    +0.007 A 
ATOM     25  C   UNL     1      -3.184  -2.344  24.334  0.00  0.00    -0.002 A 
ATOM     26  C   UNL     1      -3.941  -2.579  24.107  0.00  0.00    -0.000 A 
ATOM     27  C   UNL     1      -4.524  -2.010  23.970  0.00  0.00    -0.000 A 
ATOM     28  C   UNL     1      -4.348  -1.210  24.060  0.00  0.00    -0.000 A 
ATOM     29  C   UNL     1      -3.591  -0.975  24.287  0.00  0.00    -0.002 A 
ENDBRANCH  23  24
ENDBRANCH  22  23
ENDBRANCH  18  22
TORSDOF 6
ENDMDL
MODEL 7
REMARK VINA RESULT:      -7.3     15.704     16.953
REMARK  Name = 
REMARK  6 active torsions:
REMARK  status: ('A' for Active; 'I' for Inactive)
REMARK    1  A    between atoms: C_2  and  C_5
REMARK    2  A    between atoms: C_8  and  C_11
REMARK    3  A    between atoms: N_13  and  C_14
REMARK    4  A    between atoms: C_18  and  O_22
REMARK    5  A    between atoms: O_22  and  C_23
REMARK    6  A    between atoms: C_23  and  C_24
REMARK                            x       y       z     vdW  Elec       q    Type
REMARK                         _______ _______ _______ _____ _____    ______ ____
ROOT
ATOM     14  C   UNL     1      -4.701 -10.335  13.400  0.00  0.00    +0.155 C 
ATOM     15  C   UNL     1      -4.037 -10.650  13.774  0.00  0.00    +0.166 C 
ATOM     16  O   UNL     1      -4.219 -10.755  14.571  0.00  0.00    -0.349 OA
ATOM     17  C   UNL     1      -4.996 -10.505  14.691  0.00  0.00    +0.173 C 
ATOM     18  C   UNL     1      -5.589 -10.415  15.256  0.00  0.00    +0.175 C 
ATOM     19  C   UNL     1      -6.253 -10.100  14.883  0.00  0.00    +0.174 C 
ATOM     20  O   UNL     1      -6.071  -9.995  14.086  0.00  0.00    -0.349 OA
ATOM     21  C   UNL     1      -5.293 -10.246  13.966  0.00  0.00    +0.167 C 
ENDROOT
BRANCH  14  13
ATOM     11  C   UNL     1      -4.086 -10.127  12.126  0.00  0.00    +0.265 C 
ATOM     12  O   UNL     1      -3.349 -10.304  12.455  0.00  0.00    -0.268 OA
ATOM     13  N   UNL     1      -4.762 -10.143  12.600  0.00  0.00    -0.198 NA
BRANCH  11   8
ATOM      5  C   UNL     1      -4.267  -9.551   9.727  0.00  0.00    +0.071 A 
ATOM      6  C   UNL     1      -4.006 -10.300   9.953  0.00  0.00    +0.004 A 
ATOM      7  C   UNL     1      -3.945 -10.492  10.752  0.00  0.00    +0.005 A 
ATOM      8  C   UNL     1      -4.146  -9.935  11.327  0.00  0.00    +0.055 A 
ATOM      9  C   UNL     1      -4.408  -9.186  11.101  0.00  0.00    +0.005 A 
ATOM     10  C   UNL     1      -4.468  -8.994  10.301  0.00  0.00    +0.004 A 
BRANCH   5   2
ATOM      1  F   UNL     1      -4.388  -9.167   8.126  0.00  0.00    -0.166 F 
ATOM      2  C   UNL     1      -4.328  -9.359   8.927  0.00  0.00    +0.419 C 
ATOM      3  F   UNL     1      -3.730  -8.798   9.016  0.00  0.00    -0.166 F 
ATOM      4  F   UNL     1      -4.926  -9.920   8.837  0.00  0.00    -0.166 F 
ENDBRANCH   5   2
ENDBRANCH  11   8
ENDBRANCH  14  13
BRANCH  18  22
ATOM     22  O   UNL     1      -5.528 -10.607  16.057  0.00  0.00    -0.346 OA
BRANCH  22  23
ATOM     23  C   UNL     1      -5.952 -10.176  16.618  0.00  0.00    +0.169 C 
BRANCH  23  24
ATOM     24  C   UNL     1      -5.903 -10.378  17.417  0.00  0.00    +0.007 A 
ATOM     25  C   UNL     1      -5.169 -10.402  17.792  0.00  0.00    -0.002 A 
ATOM     26  C   UNL     1      -5.120 -10.604  18.591  0.00  0.00    -0.000 A 
ATOM     27  C   UNL     1      -5.806 -10.781  19.014  0.00  0.00    -0.000 A 
ATOM     28  C   UNL     1      -6.540 -10.757  18.638  0.00  0.00    -0.000 A 
ATOM     29  C   UNL     1      -6.589 -10.555  17.839  0.00  0.00    -0.002 A 
ENDBRANCH  23  24
ENDBRANCH  22  23
ENDBRANCH  18  22
TORSDOF 6
ENDMDL
MODEL 8
REMARK VINA RESULT:      -6.2     17.625     19.127
REMARK  Name = 
REMARK  6 active torsions:
REMARK  status: ('A' for Active; 'I' for Inactive)
REMARK    1  A    between atoms: C_2  and  C_5
REMARK    2  A    between atoms: C_8  and  C_11
REMARK    3  A    between atoms: N_13  and  C_14
REMARK    4  A    between atoms: C_18  and  O_22
REMARK    5  A    between atoms: O_22  and  C_23
REMARK    6  A    between atoms: C_23  and  C_24
REMARK                            x       y       z     vdW  Elec       q    Type
REMARK                         _______ _______ _______ _____ _____    ______ ____
ROOT
ATOM     14  C   UNL     1      -5.178  -9.541  10.403  0.00  0.00    +0.155 C 
ATOM     15  C   UNL     1      -5.527 -10.273  10.555  0.00  0.00    +0.166 C 
ATOM     16  O   UNL     1      -6.302 -10.248  10.276  0.00  0.00    -0.349 OA
ATOM     17  C   UNL     1      -6.434  -9.501   9.952  0.00  0.00    +0.173 C 
ATOM     18  C   UNL     1      -6.994  -9.023   9.580  0.00  0.00    +0.175 C 
ATOM     19  C   UNL     1      -6.645  -8.291   9.429  0.00  0.00    +0.174 C 
ATOM     20  O   UNL     1      -5.870  -8.316   9.707  0.00  0.00    -0.349 OA
ATOM     21  C   UNL     1      -5.739  -9.064  10.031  0.00  0.00    +0.167 C 
ENDROOT
BRANCH  14  13
ATOM     11  C   UNL     1      -3.792  -9.871  10.513  0.00  0.00    +0.265 C 
ATOM     12  O   UNL     1      -3.953 -10.635  10.246  0.00  0.00    -0.268 OA
ATOM     13  N   UNL     1      -4.405  -9.324  10.592  0.00  0.00    -0.198 NA
BRANCH  11   8
ATOM      5  C   UNL     1      -1.472  -9.221  11.076  0.00  0.00    +0.071 A 
ATOM      6  C   UNL     1      -1.833  -9.846  11.476  0.00  0.00    +0.004 A 
ATOM      7  C   UNL     1      -2.606 -10.062  11.288  0.00  0.00    +0.005 A 
ATOM      8  C   UNL     1      -3.019  -9.654  10.701  0.00  0.00    +0.055 A 
ATOM      9  C   UNL     1      -2.657  -9.030  10.302  0.00  0.00    +0.005 A 
ATOM     10  C   UNL     1      -1.883  -8.813  10.489  0.00  0.00    +0.004 A 
BRANCH   5   2
ATOM      1  F   UNL     1       0.076  -8.787  11.452  0.00  0.00    -0.166 F 
ATOM      2  C   UNL     1      -0.698  -9.004  11.264  0.00  0.00    +0.419 C 
ATOM      3  F   UNL     1      -0.542  -8.866  10.466  0.00  0.00    -0.166 F 
ATOM      4  F   UNL     1      -0.853  -9.142  12.063  0.00  0.00    -0.166 F 
ENDBRANCH   5   2
ENDBRANCH  11   8
ENDBRANCH  14  13
BRANCH  18  22
ATOM     22  O   UNL     1      -7.767  -9.240   9.392  0.00  0.00    -0.346 OA
BRANCH  22  23
ATOM     23  C   UNL     1      -8.320  -8.663   9.188  0.00  0.00    +0.169 C 
BRANCH  23  24
ATOM     24  C   UNL     1      -9.103  -8.875   9.038  0.00  0.00    +0.007 A 
ATOM     25  C   UNL     1      -9.669  -8.813   9.635  0.00  0.00    -0.002 A 
ATOM     26  C   UNL     1     -10.452  -9.026   9.486  0.00  0.00    -0.000 A 
ATOM     27  C   UNL     1     -10.669  -9.300   8.738  0.00  0.00    -0.000 A 
ATOM     28  C   UNL     1     -10.103  -9.362   8.142  0.00  0.00    -0.000 A 
ATOM     29  C   UNL     1      -9.320  -9.149   8.291  0.00  0.00    -0.002 A 
ENDBRANCH  23  24
ENDBRANCH  22  23
ENDBRANCH  18  22
TORSDOF 6
ENDMDL
MODEL 9
REMARK VINA RESULT:      -5.9     15.246     16.720
REMARK  Name = 
REMARK  6 active torsions:
REMARK  status: ('A' for Active; 'I' for Inactive)
REMARK    1  A    between atoms: C_2  and  C_5
REMARK    2  A    between atoms: C_8  and  C_11
REMARK    3  A    between atoms: N_13  and  C_14
REMARK    4  A    between atoms: C_18  and  O_22
REMARK    5  A    between atoms: O_22  and  C_23
REMARK    6  A    between atoms: C_23  and  C_24
REMARK                            x       y       z     vdW  Elec       q    Type
REMARK                         _______ _______ _______ _____ _____    ______ ____
ROOT
ATOM     14  C   UNL     1      -5.544 -10.165  15.277  0.00  0.00    +0.155 C 
ATOM     15  C   UNL     1      -5.342 -10.188  16.076  0.00  0.00    +0.166 C 
ATOM     16  O   UNL     1      -6.037 -10.116  16.515  0.00  0.00    -0.349 OA
ATOM     17  C   UNL     1      -6.667 -10.048  15.988  0.00  0.00    +0.173 C 
ATOM     18  C   UNL     1      -7.485  -9.962  15.933  0.00  0.00    +0.175 C 
ATOM     19  C   UNL     1      -7.687  -9.939  15.133  0.00  0.00    +0.174 C 
ATOM     20  O   UNL     1      -6.992 -10.011  14.694  0.00  0.00    -0.349 OA
ATOM     21  C   UNL     1      -6.362 -10.079  15.222  0.00  0.00    +0.167 C 
ENDROOT
BRANCH  14  13
ATOM     11  C   UNL     1      -4.256 -10.512  14.762  0.00  0.00    +0.265 C 
ATOM     12  O   UNL     1      -4.020 -10.751  15.516  0.00  0.00    -0.268 OA
ATOM     13  N   UNL     1      -5.018 -10.219  14.643  0.00  0.00    -0.198 NA
BRANCH  11   8
ATOM      5  C   UNL     1      -2.680 -10.673  12.861  0.00  0.00    +0.071 A 
ATOM      6  C   UNL     1      -3.482 -10.539  12.722  0.00  0.00    +0.004 A 
ATOM      7  C   UNL     1      -4.007 -10.485  13.355  0.00  0.00    +0.005 A 
ATOM      8  C   UNL     1      -3.731 -10.566  14.128  0.00  0.00    +0.055 A 
ATOM      9  C   UNL     1      -2.929 -10.700  14.268  0.00  0.00    +0.005 A 
ATOM     10  C   UNL     1      -2.403 -10.754  13.634  0.00  0.00    +0.004 A 
BRANCH   5   2
ATOM      1  F   UNL     1      -1.628 -10.781  11.594  0.00  0.00    -0.166 F 
ATOM      2  C   UNL     1      -2.154 -10.727  12.228  0.00  0.00    +0.419 C 
ATOM      3  F   UNL     1      -1.522 -10.765  12.755  0.00  0.00    -0.166 F 
ATOM      4  F   UNL     1      -2.787 -10.689  11.699  0.00  0.00    -0.166 F 
ENDBRANCH   5   2
ENDBRANCH  11   8
ENDBRANCH  14  13
BRANCH  18  22
ATOM     22  O   UNL     1      -8.011  -9.908  16.567  0.00  0.00    -0.346 OA
BRANCH  22  23
ATOM     23  C   UNL     1      -8.806  -9.738  16.430  0.00  0.00    +0.169 C 
BRANCH  23  24
ATOM     24  C   UNL     1      -9.329  -9.672  17.065  0.00  0.00    +0.007 A 
ATOM     25  C   UNL     1      -9.760  -8.977  17.174  0.00  0.00    -0.002 A 
ATOM     26  C   UNL     1     -10.283  -8.910  17.809  0.00  0.00    -0.000 A 
ATOM     27  C   UNL     1     -10.375  -9.540  18.335  0.00  0.00    -0.000 A 
ATOM     28  C   UNL     1      -9.944 -10.234  18.225  0.00  0.00    -0.000 A 
ATOM     29  C   UNL     1      -9.421 -10.301  17.591  0.00  0.00    -0.002 A 
ENDBRANCH  23  24
ENDBRANCH  22  23
ENDBRANCH  18  22
TORSDOF 6
ENDMDL
MODEL 10
REMARK VINA RESULT:      -5.7     14.905     15.768
REMARK  Name = 
REMARK  6 active torsions:
REMARK  status: ('A' for Active; 'I' for Inactive)
REMARK    1  A    between atoms: C_2  and  C_5
REMARK    2  A    between atoms: C_8  and  C_11
REMARK    3  A    between atoms: N_13  and  C_14
REMARK    4  A    between atoms: C_18  and  O_22
REMARK    5  A    between atoms: O_22  and  C_23
REMARK    6  A    between atoms: C_23  and  C_24
REMARK                            x       y       z     vdW  Elec       q    Type
REMARK                         _______ _______ _______ _____ _____    ______ ____
ROOT
ATOM     14  C   UNL     1      -5.522 -10.354  14.780  0.00  0.00    +0.155 C 
ATOM     15  C   UNL     1      -6.147 -10.032  14.349  0.00  0.00    +0.166 C 
ATOM     16  O   UNL     1      -5.910  -9.974  13.561  0.00  0.00    -0.349 OA
ATOM     17  C   UNL     1      -5.139 -10.260  13.505  0.00  0.00    +0.173 C 
ATOM     18  C   UNL     1      -4.515 -10.402  12.984  0.00  0.00    +0.175 C 
ATOM     19  C   UNL     1      -3.890 -10.723  13.415  0.00  0.00    +0.174 C 
ATOM     20  O   UNL     1      -4.127 -10.781  14.202  0.00  0.00    -0.349 OA
ATOM     21  C   UNL     1      -4.899 -10.495  14.258  0.00  0.00    +0.167 C 
ENDROOT
BRANCH  14  13
ATOM     11  C   UNL     1      -5.936 -10.014  16.105  0.00  0.00    +0.265 C 
ATOM     12  O   UNL     1      -6.354  -9.367  15.808  0.00  0.00    -0.268 OA
ATOM     13  N   UNL     1      -5.520 -10.507  15.591  0.00  0.00    -0.198 NA
BRANCH  11   8
ATOM      5  C   UNL     1      -5.931 -10.474  18.536  0.00  0.00    +0.071 A 
ATOM      6  C   UNL     1      -5.237 -10.559  18.100  0.00  0.00    +0.004 A 
ATOM      7  C   UNL     1      -5.238 -10.406  17.290  0.00  0.00    +0.005 A 
ATOM      8  C   UNL     1      -5.934 -10.168  16.915  0.00  0.00    +0.055 A 
ATOM      9  C   UNL     1      -6.629 -10.083  17.352  0.00  0.00    +0.005 A 
ATOM     10  C   UNL     1      -6.628 -10.237  18.163  0.00  0.00    +0.004 A 
BRANCH   5   2
ATOM      1  F   UNL     1      -5.929 -10.781  20.158  0.00  0.00    -0.166 F 
ATOM      2  C   UNL     1      -5.930 -10.628  19.347  0.00  0.00    +0.419 C 
ATOM      3  F   UNL     1      -5.114 -10.742  19.325  0.00  0.00    -0.166 F 
ATOM      4  F   UNL     1      -6.747 -10.514  19.370  0.00  0.00    -0.166 F 
ENDBRANCH   5   2
ENDBRANCH  11   8
ENDBRANCH  14  13
BRANCH  18  22
ATOM     22  O   UNL     1      -4.517 -10.248  12.173  0.00  0.00    -0.346 OA
BRANCH  22  23
ATOM     23  C   UNL     1      -3.807 -10.098  11.780  0.00  0.00    +0.169 C 
BRANCH  23  24
ATOM     24  C   UNL     1      -3.812  -9.905  10.977  0.00  0.00    +0.007 A 
ATOM     25  C   UNL     1      -3.793  -9.114  10.743  0.00  0.00    -0.002 A 
ATOM     26  C   UNL     1      -3.798  -8.921   9.941  0.00  0.00    -0.000 A 
ATOM     27  C   UNL     1      -3.823  -9.520   9.373  0.00  0.00    -0.000 A 
ATOM     28  C   UNL     1      -3.842 -10.310   9.608  0.00  0.00    -0.000 A 
ATOM     29  C   UNL     1      -3.837 -10.504  10.410  0.00  0.00    -0.002 A 
ENDBRANCH  23  24
ENDBRANCH  22  23
ENDBRANCH  18  22
TORSDOF 6
ENDMDL
