MODEL 1
REMARK VINA RESULT:      -9.5      0.000      0.000
REMARK  Name = 
REMARK  9 active torsions:
REMARK  status: ('A' for Active; 'I' for Inactive)
REMARK    1  A    between atoms: C_2  and  C_3
REMARK    2  A    between atoms: C_3  and  C_4
REMARK    3  A    between atoms: C_4  and  C_5
REMARK    4  A    between atoms: C_5  and  C_6
REMARK    5  A    between atoms: C_11  and  C_12
REMARK    6  A    between atoms: C_12  and  C_13
REMARK    7  A    between atoms: N_15  and  C_16
REMARK    8  A    between atoms: C_16  and  C_17
REMARK    9  A    between atoms: C_23  and  C_24
REMARK                            x       y       z     vdW  Elec       q    Type
REMARK                         _______ _______ _______ _____ _____    ______ ____
ROOT
ATOM      6  C   UNL     1      -3.242   3.768  25.476  0.00  0.00    +0.226 C 
ATOM      7  O   UNL     1      -3.527   4.029  26.204  0.00  0.00    -0.275 OA
ATOM      8  N   UNL     1      -3.525   3.064  25.151  0.00  0.00    -0.280 N 
ATOM      9  C   UNL     1      -4.092   2.622  25.555  0.00  0.00    +0.093 C 
ATOM     10  C   UNL     1      -4.374   1.917  25.230  0.00  0.00    +0.022 C 
ATOM     11  C   UNL     1      -4.089   1.656  24.501  0.00  0.00    +0.012 C 
ATOM     23  C   UNL     1      -3.522   2.099  24.098  0.00  0.00    +0.020 C 
ATOM     26  C   UNL     1      -3.240   2.803  24.422  0.00  0.00    +0.093 C 
ENDROOT
BRANCH  23  24
ATOM     24  C   UNL     1      -3.238   1.838  23.369  0.00  0.00    +0.002 C 
ATOM     25  C   UNL     1      -2.941   2.380  22.822  0.00  0.00    +0.000 C 
ENDBRANCH  23  24
BRANCH   6   5
ATOM      5  C   UNL     1      -2.676   4.210  25.071  0.00  0.00    +0.085 C 
BRANCH   5   4
ATOM      4  C   UNL     1      -2.121   4.654  25.493  0.00  0.00    +0.010 C 
BRANCH   4   3
ATOM      3  C   UNL     1      -1.616   5.169  25.092  0.00  0.00    +0.001 C 
BRANCH   3   2
ATOM      1  C   UNL     1      -0.342   5.368  24.477  0.00  0.00    +0.000 C 
ATOM      2  C   UNL     1      -0.808   5.006  25.053  0.00  0.00    +0.000 C 
ENDBRANCH   3   2
ENDBRANCH   4   3
ENDBRANCH   5   4
ENDBRANCH   6   5
BRANCH  11  12
ATOM     12  C   UNL     1      -4.371   0.953  24.177  0.00  0.00    +0.087 C 
BRANCH  12  13
ATOM     13  C   UNL     1      -4.421   0.273  24.643  0.00  0.00    +0.242 C 
ATOM     14  O   UNL     1      -4.934   0.253  25.289  0.00  0.00    -0.273 OA
ATOM     15  N   UNL     1      -3.959  -0.385  24.463  0.00  0.00    -0.200 NA
BRANCH  15  16
ATOM     16  C   UNL     1      -4.009  -1.064  24.929  0.00  0.00    +0.143 C 
BRANCH  16  17
ATOM     17  C   UNL     1      -3.536  -1.718  24.759  0.00  0.00    +0.019 A 
ATOM     18  C   UNL     1      -3.855  -2.367  24.362  0.00  0.00    +0.001 A 
ATOM     19  C   UNL     1      -3.382  -3.021  24.192  0.00  0.00    +0.020 A 
ATOM     20  C   UNL     1      -2.588  -3.025  24.418  0.00  0.00    +0.099 A 
ATOM     21  N   UNL     1      -2.268  -2.377  24.815  0.00  0.00    -0.243 NA
ATOM     22  C   UNL     1      -2.742  -1.723  24.985  0.00  0.00    +0.096 A 
ENDBRANCH  16  17
ENDBRANCH  15  16
ENDBRANCH  12  13
ENDBRANCH  11  12
TORSDOF 9
ENDMDL
MODEL 2
REMARK VINA RESULT:      -9.0      0.973      5.307
REMARK  Name = 
REMARK  9 active torsions:
REMARK  status: ('A' for Active; 'I' for Inactive)
REMARK    1  A    between atoms: C_2  and  C_3
REMARK    2  A    between atoms: C_3  and  C_4
REMARK    3  A    between atoms: C_4  and  C_5
REMARK    4  A    between atoms: C_5  and  C_6
REMARK    5  A    between atoms: C_11  and  C_12
REMARK    6  A    between atoms: C_12  and  C_13
REMARK    7  A    between atoms: N_15  and  C_16
REMARK    8  A    between atoms: C_16  and  C_17
REMARK    9  A    between atoms: C_23  and  C_24
REMARK                            x       y       z     vdW  Elec       q    Type
REMARK                         _______ _______ _______ _____ _____    ______ ____
ROOT
ATOM      6  C   UNL     1      -4.101  -0.437  25.041  0.00  0.00    +0.226 C 
ATOM      7  O   UNL     1      -4.423  -0.668  25.764  0.00  0.00    -0.275 OA
ATOM      8  N   UNL     1      -4.104   0.360  24.824  0.00  0.00    -0.280 N 
ATOM      9  C   UNL     1      -4.429   0.924  25.331  0.00  0.00    +0.093 C 
ATOM     10  C   UNL     1      -4.431   1.721  25.114  0.00  0.00    +0.022 C 
ATOM     11  C   UNL     1      -4.109   1.952  24.390  0.00  0.00    +0.012 C 
ATOM     23  C   UNL     1      -3.784   1.387  23.884  0.00  0.00    +0.020 C 
ATOM     26  C   UNL     1      -3.782   0.592  24.101  0.00  0.00    +0.093 C 
ENDROOT
BRANCH  23  24
ATOM     24  C   UNL     1      -3.462   1.619  23.161  0.00  0.00    +0.002 C 
ATOM     25  C   UNL     1      -2.852   1.180  22.821  0.00  0.00    +0.000 C 
ENDBRANCH  23  24
BRANCH   6   5
ATOM      5  C   UNL     1      -3.776  -1.000  24.534  0.00  0.00    +0.085 C 
BRANCH   5   4
ATOM      4  C   UNL     1      -3.617  -1.762  24.812  0.00  0.00    +0.010 C 
BRANCH   4   3
ATOM      3  C   UNL     1      -3.300  -2.328  24.303  0.00  0.00    +0.001 C 
BRANCH   3   2
ATOM      1  C   UNL     1      -1.974  -2.860  24.265  0.00  0.00    +0.000 C 
ATOM      2  C   UNL     1      -2.735  -2.862  24.582  0.00  0.00    +0.000 C 
ENDBRANCH   3   2
ENDBRANCH   4   3
ENDBRANCH   5   4
ENDBRANCH   6   5
BRANCH  11  12
ATOM     12  C   UNL     1      -4.112   2.748  24.174  0.00  0.00    +0.087 C 
BRANCH  12  13
ATOM     13  C   UNL     1      -3.855   3.322  24.707  0.00  0.00    +0.242 C 
ATOM     14  O   UNL     1      -4.374   3.618  25.276  0.00  0.00    -0.273 OA
ATOM     15  N   UNL     1      -3.080   3.600  24.673  0.00  0.00    -0.200 NA
BRANCH  15  16
ATOM     16  C   UNL     1      -2.823   4.174  25.206  0.00  0.00    +0.143 C 
BRANCH  16  17
ATOM     17  C   UNL     1      -2.056   4.474  25.153  0.00  0.00    +0.019 A 
ATOM     18  C   UNL     1      -1.410   3.961  25.159  0.00  0.00    +0.001 A 
ATOM     19  C   UNL     1      -0.644   4.262  25.106  0.00  0.00    +0.020 A 
ATOM     20  C   UNL     1      -0.523   5.076  25.047  0.00  0.00    +0.099 A 
ATOM     21  N   UNL     1      -1.168   5.589  25.041  0.00  0.00    -0.243 NA
ATOM     22  C   UNL     1      -1.935   5.288  25.094  0.00  0.00    +0.096 A 
ENDBRANCH  16  17
ENDBRANCH  15  16
ENDBRANCH  12  13
ENDBRANCH  11  12
TORSDOF 9
ENDMDL
MODEL 3
REMARK VINA RESULT:      -9.0      2.349      5.974
REMARK  Name = 
REMARK  9 active torsions:
REMARK  status: ('A' for Active; 'I' for Inactive)
REMARK    1  A    between atoms: C_2  and  C_3
REMARK    2  A    between atoms: C_3  and  C_4
REMARK    3  A    between atoms: C_4  and  C_5
REMARK    4  A    between atoms: C_5  and  C_6
REMARK    5  A    between atoms: C_11  and  C_12
REMARK    6  A    between atoms: C_12  and  C_13
REMARK    7  A    between atoms: N_15  and  C_16
REMARK    8  A    between atoms: C_16  and  C_17
REMARK    9  A    between atoms: C_23  and  C_24
REMARK                            x       y       z     vdW  Elec       q    Type
REMARK                         _______ _______ _______ _____ _____    ______ ____
ROOT
ATOM      6  C   UNL     1      -1.931  -1.015  25.458  0.00  0.00    +0.226 C 
ATOM      7  O   UNL     1      -2.282  -1.063  26.202  0.00  0.00    -0.275 OA
ATOM      8  N   UNL     1      -1.443  -0.375  25.271  0.00  0.00    -0.280 N 
ATOM      9  C   UNL     1      -1.307   0.215  25.830  0.00  0.00    +0.093 C 
ATOM     10  C   UNL     1      -0.819   0.855  25.644  0.00  0.00    +0.022 C 
ATOM     11  C   UNL     1      -0.468   0.903  24.899  0.00  0.00    +0.012 C 
ATOM     23  C   UNL     1      -0.605   0.311  24.341  0.00  0.00    +0.020 C 
ATOM     26  C   UNL     1      -1.092  -0.328  24.526  0.00  0.00    +0.093 C 
ENDROOT
BRANCH  23  24
ATOM     24  C   UNL     1      -0.253   0.358  23.596  0.00  0.00    +0.002 C 
ATOM     25  C   UNL     1       0.194  -0.273  23.309  0.00  0.00    +0.000 C 
ENDBRANCH  23  24
BRANCH   6   5
ATOM      5  C   UNL     1      -2.067  -1.606  24.899  0.00  0.00    +0.085 C 
BRANCH   5   4
ATOM      4  C   UNL     1      -2.733  -2.090  24.964  0.00  0.00    +0.010 C 
BRANCH   4   3
ATOM      3  C   UNL     1      -3.009  -2.501  24.304  0.00  0.00    +0.001 C 
BRANCH   3   2
ATOM      1  C   UNL     1      -4.323  -2.586  23.748  0.00  0.00    +0.000 C 
ATOM      2  C   UNL     1      -3.768  -2.826  24.309  0.00  0.00    +0.000 C 
ENDBRANCH   3   2
ENDBRANCH   4   3
ENDBRANCH   5   4
ENDBRANCH   6   5
BRANCH  11  12
ATOM     12  C   UNL     1       0.019   1.541  24.713  0.00  0.00    +0.087 C 
BRANCH  12  13
ATOM     13  C   UNL     1       0.027   2.209  25.197  0.00  0.00    +0.242 C 
ATOM     14  O   UNL     1       0.518   2.232  25.860  0.00  0.00    -0.273 OA
ATOM     15  N   UNL     1      -0.454   2.854  25.019  0.00  0.00    -0.200 NA
BRANCH  15  16
ATOM     16  C   UNL     1      -0.446   3.522  25.503  0.00  0.00    +0.143 C 
BRANCH  16  17
ATOM     17  C   UNL     1      -0.971   4.142  25.360  0.00  0.00    +0.019 A 
ATOM     18  C   UNL     1      -0.711   4.823  24.973  0.00  0.00    +0.001 A 
ATOM     19  C   UNL     1      -1.235   5.443  24.830  0.00  0.00    +0.020 A 
ATOM     20  C   UNL     1      -2.021   5.383  25.075  0.00  0.00    +0.099 A 
ATOM     21  N   UNL     1      -2.282   4.703  25.463  0.00  0.00    -0.243 NA
ATOM     22  C   UNL     1      -1.756   4.083  25.605  0.00  0.00    +0.096 A 
ENDBRANCH  16  17
ENDBRANCH  15  16
ENDBRANCH  12  13
ENDBRANCH  11  12
TORSDOF 9
ENDMDL
MODEL 4
REMARK VINA RESULT:      -8.9      2.350      2.777
REMARK  Name = 
REMARK  9 active torsions:
REMARK  status: ('A' for Active; 'I' for Inactive)
REMARK    1  A    between atoms: C_2  and  C_3
REMARK    2  A    between atoms: C_3  and  C_4
REMARK    3  A    between atoms: C_4  and  C_5
REMARK    4  A    between atoms: C_5  and  C_6
REMARK    5  A    between atoms: C_11  and  C_12
REMARK    6  A    between atoms: C_12  and  C_13
REMARK    7  A    between atoms: N_15  and  C_16
REMARK    8  A    between atoms: C_16  and  C_17
REMARK    9  A    between atoms: C_23  and  C_24
REMARK                            x       y       z     vdW  Elec       q    Type
REMARK                         _______ _______ _______ _____ _____    ______ ____
ROOT
ATOM      6  C   UNL     1      -0.714   2.523  25.654  0.00  0.00    +0.226 C 
ATOM      7  O   UNL     1      -0.945   2.684  26.429  0.00  0.00    -0.275 OA
ATOM      8  N   UNL     1      -0.678   1.742  25.388  0.00  0.00    -0.280 N 
ATOM      9  C   UNL     1      -0.873   1.124  25.898  0.00  0.00    +0.093 C 
ATOM     10  C   UNL     1      -0.837   0.343  25.631  0.00  0.00    +0.022 C 
ATOM     11  C   UNL     1      -0.606   0.182  24.856  0.00  0.00    +0.012 C 
ATOM     23  C   UNL     1      -0.410   0.801  24.347  0.00  0.00    +0.020 C 
ATOM     26  C   UNL     1      -0.447   1.581  24.613  0.00  0.00    +0.093 C 
ENDROOT
BRANCH  23  24
ATOM     24  C   UNL     1      -0.179   0.640  23.572  0.00  0.00    +0.002 C 
ATOM     25  C   UNL     1       0.550   0.908  23.294  0.00  0.00    +0.000 C 
ENDBRANCH  23  24
BRANCH   6   5
ATOM      5  C   UNL     1      -0.519   3.141  25.144  0.00  0.00    +0.085 C 
BRANCH   5   4
ATOM      4  C   UNL     1      -0.716   3.918  25.344  0.00  0.00    +0.010 C 
BRANCH   4   3
ATOM      3  C   UNL     1      -0.819   4.482  24.751  0.00  0.00    +0.001 C 
BRANCH   3   2
ATOM      1  C   UNL     1      -1.625   5.651  24.908  0.00  0.00    +0.000 C 
ATOM      2  C   UNL     1      -0.890   5.280  24.950  0.00  0.00    +0.000 C 
ENDBRANCH   3   2
ENDBRANCH   4   3
ENDBRANCH   5   4
ENDBRANCH   6   5
BRANCH  11  12
ATOM     12  C   UNL     1      -0.570  -0.598  24.591  0.00  0.00    +0.087 C 
BRANCH  12  13
ATOM     13  C   UNL     1      -1.063  -1.170  24.922  0.00  0.00    +0.242 C 
ATOM     14  O   UNL     1      -0.848  -1.541  25.627  0.00  0.00    -0.273 OA
ATOM     15  N   UNL     1      -1.770  -1.373  24.549  0.00  0.00    -0.200 NA
BRANCH  15  16
ATOM     16  C   UNL     1      -2.262  -1.945  24.880  0.00  0.00    +0.143 C 
BRANCH  16  17
ATOM     17  C   UNL     1      -2.991  -2.114  24.533  0.00  0.00    +0.019 A 
ATOM     18  C   UNL     1      -3.500  -1.500  24.319  0.00  0.00    +0.001 A 
ATOM     19  C   UNL     1      -4.228  -1.670  23.973  0.00  0.00    +0.020 A 
ATOM     20  C   UNL     1      -4.449  -2.453  23.839  0.00  0.00    +0.099 A 
ATOM     21  N   UNL     1      -3.942  -3.067  24.053  0.00  0.00    -0.243 NA
ATOM     22  C   UNL     1      -3.212  -2.897  24.400  0.00  0.00    +0.096 A 
ENDBRANCH  16  17
ENDBRANCH  15  16
ENDBRANCH  12  13
ENDBRANCH  11  12
TORSDOF 9
ENDMDL
MODEL 5
REMARK VINA RESULT:      -8.3      3.390      4.823
REMARK  Name = 
REMARK  9 active torsions:
REMARK  status: ('A' for Active; 'I' for Inactive)
REMARK    1  A    between atoms: C_2  and  C_3
REMARK    2  A    between atoms: C_3  and  C_4
REMARK    3  A    between atoms: C_4  and  C_5
REMARK    4  A    between atoms: C_5  and  C_6
REMARK    5  A    between atoms: C_11  and  C_12
REMARK    6  A    between atoms: C_12  and  C_13
REMARK    7  A    between atoms: N_15  and  C_16
REMARK    8  A    between atoms: C_16  and  C_17
REMARK    9  A    between atoms: C_23  and  C_24
REMARK                            x       y       z     vdW  Elec       q    Type
REMARK                         _______ _______ _______ _____ _____    ______ ____
ROOT
ATOM      6  C   UNL     1       0.415   0.635  23.471  0.00  0.00    +0.226 C 
ATOM      7  O   UNL     1       0.189   0.055  22.931  0.00  0.00    -0.275 OA
ATOM      8  N   UNL     1      -0.158   1.074  23.871  0.00  0.00    -0.280 N 
ATOM      9  C   UNL     1      -0.959   0.931  23.730  0.00  0.00    +0.093 C 
ATOM     10  C   UNL     1      -1.532   1.370  24.130  0.00  0.00    +0.022 C 
ATOM     11  C   UNL     1      -1.305   1.950  24.671  0.00  0.00    +0.012 C 
ATOM     23  C   UNL     1      -0.504   2.092  24.811  0.00  0.00    +0.020 C 
ATOM     26  C   UNL     1       0.069   1.654  24.412  0.00  0.00    +0.093 C 
ENDROOT
BRANCH  23  24
ATOM     24  C   UNL     1      -0.277   2.672  25.352  0.00  0.00    +0.002 C 
ATOM     25  C   UNL     1       0.216   2.477  25.984  0.00  0.00    +0.000 C 
ENDBRANCH  23  24
BRANCH   6   5
ATOM      5  C   UNL     1       1.215   0.777  23.612  0.00  0.00    +0.085 C 
BRANCH   5   4
ATOM      4  C   UNL     1       1.785   0.480  23.093  0.00  0.00    +0.010 C 
BRANCH   4   3
ATOM      3  C   UNL     1       2.556   0.771  23.118  0.00  0.00    +0.001 C 
BRANCH   3   2
ATOM      1  C   UNL     1       3.920   0.698  22.697  0.00  0.00    +0.000 C 
ATOM      2  C   UNL     1       3.148   0.407  22.672  0.00  0.00    +0.000 C 
ENDBRANCH   3   2
ENDBRANCH   4   3
ENDBRANCH   5   4
ENDBRANCH   6   5
BRANCH  11  12
ATOM     12  C   UNL     1      -1.878   2.388  25.070  0.00  0.00    +0.087 C 
BRANCH  12  13
ATOM     13  C   UNL     1      -2.583   2.590  24.691  0.00  0.00    +0.242 C 
ATOM     14  O   UNL     1      -2.563   2.932  23.940  0.00  0.00    -0.273 OA
ATOM     15  N   UNL     1      -3.306   2.451  25.061  0.00  0.00    -0.200 NA
BRANCH  15  16
ATOM     16  C   UNL     1      -4.009   2.653  24.682  0.00  0.00    +0.143 C 
BRANCH  16  17
ATOM     17  C   UNL     1      -4.733   2.530  25.059  0.00  0.00    +0.019 A 
ATOM     18  C   UNL     1      -5.210   1.893  24.841  0.00  0.00    +0.001 A 
ATOM     19  C   UNL     1      -5.932   1.770  25.218  0.00  0.00    +0.020 A 
ATOM     20  C   UNL     1      -6.179   2.284  25.814  0.00  0.00    +0.099 A 
ATOM     21  N   UNL     1      -5.703   2.921  26.033  0.00  0.00    -0.243 NA
ATOM     22  C   UNL     1      -4.979   3.044  25.655  0.00  0.00    +0.096 A 
ENDBRANCH  16  17
ENDBRANCH  15  16
ENDBRANCH  12  13
ENDBRANCH  11  12
TORSDOF 9
ENDMDL
MODEL 6
REMARK VINA RESULT:      -8.1      4.207      5.451
REMARK  Name = 
REMARK  9 active torsions:
REMARK  status: ('A' for Active; 'I' for Inactive)
REMARK    1  A    between atoms: C_2  and  C_3
REMARK    2  A    between atoms: C_3  and  C_4
REMARK    3  A    between atoms: C_4  and  C_5
REMARK    4  A    between atoms: C_5  and  C_6
REMARK    5  A    between atoms: C_11  and  C_12
REMARK    6  A    between atoms: C_12  and  C_13
REMARK    7  A    between atoms: N_15  and  C_16
REMARK    8  A    between atoms: C_16  and  C_17
REMARK    9  A    between atoms: C_23  and  C_24
REMARK                            x       y       z     vdW  Elec       q    Type
REMARK                         _______ _______ _______ _____ _____    ______ ____
ROOT
ATOM      6  C   UNL     1      -2.326   1.574  24.096  0.00  0.00    +0.226 C 
ATOM      7  O   UNL     1      -2.365   2.313  23.733  0.00  0.00    -0.275 OA
ATOM      8  N   UNL     1      -1.644   1.114  24.024  0.00  0.00    -0.280 N 
ATOM      9  C   UNL     1      -1.002   1.395  23.590  0.00  0.00    +0.093 C 
ATOM     10  C   UNL     1      -0.320   0.934  23.518  0.00  0.00    +0.022 C 
ATOM     11  C   UNL     1      -0.282   0.195  23.882  0.00  0.00    +0.012 C 
ATOM     23  C   UNL     1      -0.925  -0.085  24.316  0.00  0.00    +0.020 C 
ATOM     26  C   UNL     1      -1.606   0.374  24.388  0.00  0.00    +0.093 C 
ENDROOT
BRANCH  23  24
ATOM     24  C   UNL     1      -0.887  -0.824  24.680  0.00  0.00    +0.002 C 
ATOM     25  C   UNL     1      -1.327  -0.973  25.361  0.00  0.00    +0.000 C 
ENDBRANCH  23  24
BRANCH   6   5
ATOM      5  C   UNL     1      -2.969   1.294  24.530  0.00  0.00    +0.085 C 
BRANCH   5   4
ATOM      4  C   UNL     1      -3.684   1.707  24.522  0.00  0.00    +0.010 C 
BRANCH   4   3
ATOM      3  C   UNL     1      -4.324   1.430  24.962  0.00  0.00    +0.001 C 
BRANCH   3   2
ATOM      1  C   UNL     1      -5.607   1.804  25.468  0.00  0.00    +0.000 C 
ATOM      2  C   UNL     1      -5.076   1.747  24.839  0.00  0.00    +0.000 C 
ENDBRANCH   3   2
ENDBRANCH   4   3
ENDBRANCH   5   4
ENDBRANCH   6   5
BRANCH  11  12
ATOM     12  C   UNL     1       0.399  -0.264  23.810  0.00  0.00    +0.087 C 
BRANCH  12  13
ATOM     13  C   UNL     1       0.908  -0.153  23.170  0.00  0.00    +0.242 C 
ATOM     14  O   UNL     1       0.613  -0.183  22.400  0.00  0.00    -0.273 OA
ATOM     15  N   UNL     1       1.710  -0.012  23.299  0.00  0.00    -0.200 NA
BRANCH  15  16
ATOM     16  C   UNL     1       2.217   0.099  22.659  0.00  0.00    +0.143 C 
BRANCH  16  17
ATOM     17  C   UNL     1       3.025   0.212  22.787  0.00  0.00    +0.019 A 
ATOM     18  C   UNL     1       3.369   0.947  22.640  0.00  0.00    +0.001 A 
ATOM     19  C   UNL     1       4.175   1.059  22.767  0.00  0.00    +0.020 A 
ATOM     20  C   UNL     1       4.640   0.435  23.043  0.00  0.00    +0.099 A 
ATOM     21  N   UNL     1       4.297  -0.301  23.190  0.00  0.00    -0.243 NA
ATOM     22  C   UNL     1       3.489  -0.412  23.062  0.00  0.00    +0.096 A 
ENDBRANCH  16  17
ENDBRANCH  15  16
ENDBRANCH  12  13
ENDBRANCH  11  12
TORSDOF 9
ENDMDL
MODEL 7
REMARK VINA RESULT:      -7.9      3.997      4.647
REMARK  Name = 
REMARK  9 active torsions:
REMARK  status: ('A' for Active; 'I' for Inactive)
REMARK    1  A    between atoms: C_2  and  C_3
REMARK    2  A    between atoms: C_3  and  C_4
REMARK    3  A    between atoms: C_4  and  C_5
REMARK    4  A    between atoms: C_5  and  C_6
REMARK    5  A    between atoms: C_11  and  C_12
REMARK    6  A    between atoms: C_12  and  C_13
REMARK    7  A    between atoms: N_15  and  C_16
REMARK    8  A    between atoms: C_16  and  C_17
REMARK    9  A    between atoms: C_23  and  C_24
REMARK                            x       y       z     vdW  Elec       q    Type
REMARK                         _______ _______ _______ _____ _____    ______ ____
ROOT
ATOM      6  C   UNL     1       1.574   0.098  22.954  0.00  0.00    +0.226 C 
ATOM      7  O   UNL     1       1.659  -0.596  22.518  0.00  0.00    -0.275 OA
ATOM      8  N   UNL     1       0.889   0.225  23.398  0.00  0.00    -0.280 N 
ATOM      9  C   UNL     1       0.291  -0.343  23.404  0.00  0.00    +0.093 C 
ATOM     10  C   UNL     1      -0.394  -0.216  23.848  0.00  0.00    +0.022 C 
ATOM     11  C   UNL     1      -0.479   0.479  24.285  0.00  0.00    +0.012 C 
ATOM     23  C   UNL     1       0.120   1.046  24.278  0.00  0.00    +0.020 C 
ATOM     26  C   UNL     1       0.803   0.920  23.835  0.00  0.00    +0.093 C 
ENDROOT
BRANCH  23  24
ATOM     24  C   UNL     1       0.034   1.741  24.714  0.00  0.00    +0.002 C 
ATOM     25  C   UNL     1       0.212   2.469  24.370  0.00  0.00    +0.000 C 
ENDBRANCH  23  24
BRANCH   6   5
ATOM      5  C   UNL     1       2.172   0.666  22.948  0.00  0.00    +0.085 C 
BRANCH   5   4
ATOM      4  C   UNL     1       2.924   0.470  22.669  0.00  0.00    +0.010 C 
BRANCH   4   3
ATOM      3  C   UNL     1       3.581   0.900  22.919  0.00  0.00    +0.001 C 
BRANCH   3   2
ATOM      1  C   UNL     1       4.925   0.607  23.308  0.00  0.00    +0.000 C 
ATOM      2  C   UNL     1       4.341   0.642  22.726  0.00  0.00    +0.000 C 
ENDBRANCH   3   2
ENDBRANCH   4   3
ENDBRANCH   5   4
ENDBRANCH   6   5
BRANCH  11  12
ATOM     12  C   UNL     1      -1.163   0.605  24.728  0.00  0.00    +0.087 C 
BRANCH  12  13
ATOM     13  C   UNL     1      -1.544  -0.030  25.090  0.00  0.00    +0.242 C 
ATOM     14  O   UNL     1      -1.211  -0.386  25.755  0.00  0.00    -0.273 OA
ATOM     15  N   UNL     1      -2.258  -0.310  24.787  0.00  0.00    -0.200 NA
BRANCH  15  16
ATOM     16  C   UNL     1      -2.639  -0.945  25.150  0.00  0.00    +0.143 C 
BRANCH  16  17
ATOM     17  C   UNL     1      -3.228  -1.359  24.746  0.00  0.00    +0.019 A 
ATOM     18  C   UNL     1      -3.178  -2.179  24.666  0.00  0.00    +0.001 A 
ATOM     19  C   UNL     1      -3.767  -2.591  24.263  0.00  0.00    +0.020 A 
ATOM     20  C   UNL     1      -4.407  -2.184  23.939  0.00  0.00    +0.099 A 
ATOM     21  N   UNL     1      -4.459  -1.365  24.018  0.00  0.00    -0.243 NA
ATOM     22  C   UNL     1      -3.869  -0.952  24.422  0.00  0.00    +0.096 A 
ENDBRANCH  16  17
ENDBRANCH  15  16
ENDBRANCH  12  13
ENDBRANCH  11  12
TORSDOF 9
ENDMDL
MODEL 8
REMARK VINA RESULT:      -7.8      2.160      2.726
REMARK  Name = 
REMARK  9 active torsions:
REMARK  status: ('A' for Active; 'I' for Inactive)
REMARK    1  A    between atoms: C_2  and  C_3
REMARK    2  A    between atoms: C_3  and  C_4
REMARK    3  A    between atoms: C_4  and  C_5
REMARK    4  A    between atoms: C_5  and  C_6
REMARK    5  A    between atoms: C_11  and  C_12
REMARK    6  A    between atoms: C_12  and  C_13
REMARK    7  A    between atoms: N_15  and  C_16
REMARK    8  A    between atoms: C_16  and  C_17
REMARK    9  A    between atoms: C_23  and  C_24
REMARK                            x       y       z     vdW  Elec       q    Type
REMARK                         _______ _______ _______ _____ _____    ______ ____
ROOT
ATOM      6  C   UNL     1      -0.886   2.987  25.529  0.00  0.00    +0.226 C 
ATOM      7  O   UNL     1      -0.430   3.103  26.205  0.00  0.00    -0.275 OA
ATOM      8  N   UNL     1      -0.816   2.285  25.099  0.00  0.00    -0.280 N 
ATOM      9  C   UNL     1      -0.288   1.702  25.346  0.00  0.00    +0.093 C 
ATOM     10  C   UNL     1      -0.218   1.000  24.916  0.00  0.00    +0.022 C 
ATOM     11  C   UNL     1      -0.675   0.884  24.239  0.00  0.00    +0.012 C 
ATOM     23  C   UNL     1      -1.203   1.468  23.993  0.00  0.00    +0.020 C 
ATOM     26  C   UNL     1      -1.274   2.169  24.422  0.00  0.00    +0.093 C 
ENDROOT
BRANCH  23  24
ATOM     24  C   UNL     1      -1.661   1.351  23.316  0.00  0.00    +0.002 C 
ATOM     25  C   UNL     1      -2.024   1.994  22.948  0.00  0.00    +0.000 C 
ENDBRANCH  23  24
BRANCH   6   5
ATOM      5  C   UNL     1      -1.414   3.570  25.281  0.00  0.00    +0.085 C 
BRANCH   5   4
ATOM      4  C   UNL     1      -1.814   4.028  25.840  0.00  0.00    +0.010 C 
BRANCH   4   3
ATOM      3  C   UNL     1      -2.519   4.404  25.637  0.00  0.00    +0.001 C 
BRANCH   3   2
ATOM      1  C   UNL     1      -3.925   4.214  25.811  0.00  0.00    +0.000 C 
ATOM      2  C   UNL     1      -3.176   4.344  26.133  0.00  0.00    +0.000 C 
ENDBRANCH   3   2
ENDBRANCH   4   3
ENDBRANCH   5   4
ENDBRANCH   6   5
BRANCH  11  12
ATOM     12  C   UNL     1      -0.605   0.183  23.810  0.00  0.00    +0.087 C 
BRANCH  12  13
ATOM     13  C   UNL     1      -0.652  -0.544  24.196  0.00  0.00    +0.242 C 
ATOM     14  O   UNL     1       0.026  -0.883  24.522  0.00  0.00    -0.273 OA
ATOM     15  N   UNL     1      -1.377  -0.933  24.256  0.00  0.00    -0.200 NA
BRANCH  15  16
ATOM     16  C   UNL     1      -1.424  -1.661  24.642  0.00  0.00    +0.143 C 
BRANCH  16  17
ATOM     17  C   UNL     1      -2.151  -2.043  24.717  0.00  0.00    +0.019 A 
ATOM     18  C   UNL     1      -2.723  -1.747  25.234  0.00  0.00    +0.001 A 
ATOM     19  C   UNL     1      -3.449  -2.129  25.308  0.00  0.00    +0.020 A 
ATOM     20  C   UNL     1      -3.606  -2.808  24.865  0.00  0.00    +0.099 A 
ATOM     21  N   UNL     1      -3.035  -3.104  24.348  0.00  0.00    -0.243 NA
ATOM     22  C   UNL     1      -2.308  -2.721  24.274  0.00  0.00    +0.096 A 
ENDBRANCH  16  17
ENDBRANCH  15  16
ENDBRANCH  12  13
ENDBRANCH  11  12
TORSDOF 9
ENDMDL
