MODEL 1
REMARK VINA RESULT:     -13.6      0.000      0.000
REMARK  Name = 
REMARK  5 active torsions:
REMARK  status: ('A' for Active; 'I' for Inactive)
REMARK    1  A    between atoms: C_6  and  N_7
REMARK    2  A    between atoms: N_10  and  C_11
REMARK    3  A    between atoms: C_16  and  C_17
REMARK    4  A    between atoms: C_17  and  C_18
REMARK    5  A    between atoms: C_18  and  C_19
REMARK                            x       y       z     vdW  Elec       q    Type
REMARK                         _______ _______ _______ _____ _____    ______ ____
ROOT
ATOM     11  C   UNL     1      -4.749   0.982  24.555  0.00  0.00    +0.115 C 
ATOM     12  C   UNL     1      -5.332   1.103  25.126  0.00  0.00    +0.049 C 
ATOM     13  C   UNL     1      -5.257   1.877  25.406  0.00  0.00    +0.138 C 
ATOM     14  N   UNL     1      -4.629   2.232  25.007  0.00  0.00    -0.265 NA
ATOM     15  C   UNL     1      -4.315   1.679  24.481  0.00  0.00    +0.094 C 
ATOM     16  C   UNL     1      -4.423   3.013  25.175  0.00  0.00    +0.080 C 
ATOM     30  C   UNL     1      -4.846   3.439  25.741  0.00  0.00    +0.131 C 
ATOM     31  N   UNL     1      -5.475   3.083  26.140  0.00  0.00    -0.203 NA
ATOM     32  C   UNL     1      -5.681   2.302  25.972  0.00  0.00    +0.256 C 
ATOM     33  O   UNL     1      -6.309   1.946  26.371  0.00  0.00    -0.272 OA
ENDROOT
BRANCH  11  10
ATOM      7  N   UNL     1      -4.003  -0.996  24.014  0.00  0.00    -0.161 NA
ATOM      8  C   UNL     1      -4.129  -0.300  24.437  0.00  0.00    +0.343 C 
ATOM      9  O   UNL     1      -3.760  -0.188  25.167  0.00  0.00    -0.249 OA
ATOM     10  N   UNL     1      -4.624   0.285  24.131  0.00  0.00    -0.187 NA
BRANCH   7   6
ATOM      1 CL   UNL     1      -1.379  -2.047  24.434  0.00  0.00    -0.082 Cl
ATOM      2  C   UNL     1      -2.196  -2.107  24.529  0.00  0.00    +0.059 A 
ATOM      3  C   UNL     1      -2.519  -2.752  24.930  0.00  0.00    +0.011 A 
ATOM      4  C   UNL     1      -3.336  -2.812  25.025  0.00  0.00    +0.002 A 
ATOM      5  C   UNL     1      -3.831  -2.227  24.720  0.00  0.00    +0.017 A 
ATOM      6  C   UNL     1      -3.509  -1.582  24.319  0.00  0.00    +0.076 A 
ATOM     34  C   UNL     1      -2.691  -1.522  24.224  0.00  0.00    +0.028 A 
ENDBRANCH   7   6
ENDBRANCH  11  10
BRANCH  16  17
ATOM     17  C   UNL     1      -3.795   3.368  24.776  0.00  0.00    +0.027 C 
BRANCH  17  18
ATOM     18  C   UNL     1      -3.081   3.503  25.167  0.00  0.00    +0.087 C 
BRANCH  18  19
ATOM     19  C   UNL     1      -2.608   4.144  24.954  0.00  0.00    +0.229 C 
ATOM     20  O   UNL     1      -2.951   4.823  24.636  0.00  0.00    -0.275 OA
ATOM     21  N   UNL     1      -1.790   4.106  25.059  0.00  0.00    -0.259 N 
ATOM     22  C   UNL     1      -1.250   4.701  24.873  0.00  0.00    +0.103 C 
ATOM     23  C   UNL     1      -0.495   4.429  25.068  0.00  0.00    +0.049 C 
ATOM     24  C   UNL     1      -0.569   3.668  25.374  0.00  0.00    -0.007 A 
ATOM     25  C   UNL     1      -0.012   3.129  25.657  0.00  0.00    -0.003 A 
ATOM     26  C   UNL     1      -0.255   2.392  25.935  0.00  0.00    -0.000 A 
ATOM     27  C   UNL     1      -1.055   2.192  25.930  0.00  0.00    +0.001 A 
ATOM     28  C   UNL     1      -1.613   2.729  25.647  0.00  0.00    +0.015 A 
ATOM     29  C   UNL     1      -1.370   3.468  25.369  0.00  0.00    +0.050 A 
ENDBRANCH  18  19
ENDBRANCH  17  18
ENDBRANCH  16  17
TORSDOF 5
ENDMDL
MODEL 2
REMARK VINA RESULT:     -12.7      2.323      5.920
REMARK  Name = 
REMARK  5 active torsions:
REMARK  status: ('A' for Active; 'I' for Inactive)
REMARK    1  A    between atoms: C_6  and  N_7
REMARK    2  A    between atoms: N_10  and  C_11
REMARK    3  A    between atoms: C_16  and  C_17
REMARK    4  A    between atoms: C_17  and  C_18
REMARK    5  A    between atoms: C_18  and  C_19
REMARK                            x       y       z     vdW  Elec       q    Type
REMARK                         _______ _______ _______ _____ _____    ______ ____
ROOT
ATOM     11  C   UNL     1      -0.889   1.702  25.118  0.00  0.00    +0.115 C 
ATOM     12  C   UNL     1      -0.291   1.791  24.556  0.00  0.00    +0.049 C 
ATOM     13  C   UNL     1      -0.063   1.037  24.306  0.00  0.00    +0.138 C 
ATOM     14  N   UNL     1      -0.521   0.484  24.712  0.00  0.00    -0.265 NA
ATOM     15  C   UNL     1      -1.031   0.896  25.215  0.00  0.00    +0.094 C 
ATOM     16  C   UNL     1      -0.414  -0.321  24.573  0.00  0.00    +0.080 C 
ATOM     30  C   UNL     1       0.151  -0.575  24.027  0.00  0.00    +0.131 C 
ATOM     31  N   UNL     1       0.608  -0.022  23.620  0.00  0.00    -0.203 NA
ATOM     32  C   UNL     1       0.501   0.785  23.760  0.00  0.00    +0.256 C 
ATOM     33  O   UNL     1       0.959   1.338  23.353  0.00  0.00    -0.272 OA
ENDROOT
BRANCH  11  10
ATOM      7  N   UNL     1      -2.411   3.170  25.658  0.00  0.00    -0.161 NA
ATOM      8  C   UNL     1      -2.023   2.559  25.263  0.00  0.00    +0.343 C 
ATOM      9  O   UNL     1      -2.383   2.192  24.617  0.00  0.00    -0.249 OA
ATOM     10  N   UNL     1      -1.276   2.314  25.513  0.00  0.00    -0.187 NA
BRANCH   7   6
ATOM      1 CL   UNL     1      -5.254   3.113  25.934  0.00  0.00    -0.082 Cl
ATOM      2  C   UNL     1      -4.580   3.387  25.547  0.00  0.00    +0.059 A 
ATOM      3  C   UNL     1      -4.652   3.906  24.909  0.00  0.00    +0.011 A 
ATOM      4  C   UNL     1      -3.977   4.180  24.522  0.00  0.00    +0.002 A 
ATOM      5  C   UNL     1      -3.230   3.935  24.771  0.00  0.00    +0.017 A 
ATOM      6  C   UNL     1      -3.157   3.416  25.408  0.00  0.00    +0.076 A 
ATOM     34  C   UNL     1      -3.832   3.142  25.796  0.00  0.00    +0.028 A 
ENDBRANCH   7   6
ENDBRANCH  11  10
BRANCH  16  17
ATOM     17  C   UNL     1      -0.871  -0.874  24.980  0.00  0.00    +0.027 C 
BRANCH  17  18
ATOM     18  C   UNL     1      -1.498  -1.251  24.600  0.00  0.00    +0.087 C 
BRANCH  18  19
ATOM     19  C   UNL     1      -1.693  -2.028  24.796  0.00  0.00    +0.229 C 
ATOM     20  O   UNL     1      -1.123  -2.528  25.121  0.00  0.00    -0.275 OA
ATOM     21  N   UNL     1      -2.460  -2.306  24.669  0.00  0.00    -0.259 N 
ATOM     22  C   UNL     1      -2.734  -3.065  24.837  0.00  0.00    +0.103 C 
ATOM     23  C   UNL     1      -3.531  -3.102  24.623  0.00  0.00    +0.049 C 
ATOM     24  C   UNL     1      -3.747  -2.366  24.323  0.00  0.00    -0.007 A 
ATOM     25  C   UNL     1      -4.462  -2.078  24.026  0.00  0.00    -0.003 A 
ATOM     26  C   UNL     1      -4.515  -1.300  23.759  0.00  0.00    -0.000 A 
ATOM     27  C   UNL     1      -3.854  -0.809  23.787  0.00  0.00    +0.001 A 
ATOM     28  C   UNL     1      -3.139  -1.095  24.083  0.00  0.00    +0.015 A 
ATOM     29  C   UNL     1      -3.086  -1.874  24.351  0.00  0.00    +0.050 A 
ENDBRANCH  18  19
ENDBRANCH  17  18
ENDBRANCH  16  17
TORSDOF 5
ENDMDL
MODEL 3
REMARK VINA RESULT:     -12.7      1.570      3.715
REMARK  Name = 
REMARK  5 active torsions:
REMARK  status: ('A' for Active; 'I' for Inactive)
REMARK    1  A    between atoms: C_6  and  N_7
REMARK    2  A    between atoms: N_10  and  C_11
REMARK    3  A    between atoms: C_16  and  C_17
REMARK    4  A    between atoms: C_17  and  C_18
REMARK    5  A    between atoms: C_18  and  C_19
REMARK                            x       y       z     vdW  Elec       q    Type
REMARK                         _______ _______ _______ _____ _____    ______ ____
ROOT
ATOM     11  C   UNL     1      -0.771   1.140  25.434  0.00  0.00    +0.115 C 
ATOM     12  C   UNL     1      -0.237   1.493  24.913  0.00  0.00    +0.049 C 
ATOM     13  C   UNL     1      -0.461   2.282  24.814  0.00  0.00    +0.138 C 
ATOM     14  N   UNL     1      -1.133   2.415  25.273  0.00  0.00    -0.265 NA
ATOM     15  C   UNL     1      -1.325   1.710  25.656  0.00  0.00    +0.094 C 
ATOM     16  C   UNL     1      -1.484   3.162  25.283  0.00  0.00    +0.080 C 
ATOM     30  C   UNL     1      -1.162   3.775  24.834  0.00  0.00    +0.131 C 
ATOM     31  N   UNL     1      -0.490   3.641  24.375  0.00  0.00    -0.203 NA
ATOM     32  C   UNL     1      -0.139   2.894  24.365  0.00  0.00    +0.256 C 
ATOM     33  O   UNL     1       0.533   2.761  23.906  0.00  0.00    -0.272 OA
ENDROOT
BRANCH  11  10
ATOM      7  N   UNL     1      -1.201  -0.996  25.559  0.00  0.00    -0.161 NA
ATOM      8  C   UNL     1      -1.218  -0.211  25.306  0.00  0.00    +0.343 C 
ATOM      9  O   UNL     1      -1.698   0.008  24.671  0.00  0.00    -0.249 OA
ATOM     10  N   UNL     1      -0.755   0.355  25.687  0.00  0.00    -0.187 NA
BRANCH   7   6
ATOM      1 CL   UNL     1      -3.715  -2.308  25.208  0.00  0.00    -0.082 Cl
ATOM      2  C   UNL     1      -2.922  -2.218  25.004  0.00  0.00    +0.059 A 
ATOM      3  C   UNL     1      -2.590  -2.696  24.418  0.00  0.00    +0.011 A 
ATOM      4  C   UNL     1      -1.797  -2.607  24.213  0.00  0.00    +0.002 A 
ATOM      5  C   UNL     1      -1.333  -2.040  24.593  0.00  0.00    +0.017 A 
ATOM      6  C   UNL     1      -1.664  -1.563  25.178  0.00  0.00    +0.076 A 
ATOM     34  C   UNL     1      -2.458  -1.652  25.384  0.00  0.00    +0.028 A 
ENDBRANCH   7   6
ENDBRANCH  11  10
BRANCH  16  17
ATOM     17  C   UNL     1      -2.156   3.295  25.742  0.00  0.00    +0.027 C 
BRANCH  17  18
ATOM     18  C   UNL     1      -2.904   3.273  25.395  0.00  0.00    +0.087 C 
BRANCH  18  19
ATOM     19  C   UNL     1      -3.518   3.726  25.708  0.00  0.00    +0.229 C 
ATOM     20  O   UNL     1      -3.351   4.428  26.107  0.00  0.00    -0.275 OA
ATOM     21  N   UNL     1      -4.300   3.476  25.623  0.00  0.00    -0.259 N 
ATOM     22  C   UNL     1      -4.968   3.869  25.905  0.00  0.00    +0.103 C 
ATOM     23  C   UNL     1      -5.632   3.425  25.696  0.00  0.00    +0.049 C 
ATOM     24  C   UNL     1      -5.374   2.759  25.286  0.00  0.00    -0.007 A 
ATOM     25  C   UNL     1      -5.782   2.126  24.947  0.00  0.00    -0.003 A 
ATOM     26  C   UNL     1      -5.367   1.526  24.563  0.00  0.00    -0.000 A 
ATOM     27  C   UNL     1      -4.544   1.557  24.517  0.00  0.00    +0.001 A 
ATOM     28  C   UNL     1      -4.135   2.189  24.856  0.00  0.00    +0.015 A 
ATOM     29  C   UNL     1      -4.551   2.790  25.240  0.00  0.00    +0.050 A 
ENDBRANCH  18  19
ENDBRANCH  17  18
ENDBRANCH  16  17
TORSDOF 5
ENDMDL
MODEL 4
REMARK VINA RESULT:     -12.5      2.018      5.188
REMARK  Name = 
REMARK  5 active torsions:
REMARK  status: ('A' for Active; 'I' for Inactive)
REMARK    1  A    between atoms: C_6  and  N_7
REMARK    2  A    between atoms: N_10  and  C_11
REMARK    3  A    between atoms: C_16  and  C_17
REMARK    4  A    between atoms: C_17  and  C_18
REMARK    5  A    between atoms: C_18  and  C_19
REMARK                            x       y       z     vdW  Elec       q    Type
REMARK                         _______ _______ _______ _____ _____    ______ ____
ROOT
ATOM     11  C   UNL     1      -1.988   2.771  24.431  0.00  0.00    +0.115 C 
ATOM     12  C   UNL     1      -1.412   3.137  24.895  0.00  0.00    +0.049 C 
ATOM     13  C   UNL     1      -0.786   2.607  24.989  0.00  0.00    +0.138 C 
ATOM     14  N   UNL     1      -0.975   1.915  24.583  0.00  0.00    -0.265 NA
ATOM     15  C   UNL     1      -1.718   2.016  24.238  0.00  0.00    +0.094 C 
ATOM     16  C   UNL     1      -0.447   1.282  24.580  0.00  0.00    +0.080 C 
ATOM     30  C   UNL     1       0.271   1.340  24.983  0.00  0.00    +0.131 C 
ATOM     31  N   UNL     1       0.460   2.033  25.389  0.00  0.00    -0.203 NA
ATOM     32  C   UNL     1      -0.069   2.667  25.393  0.00  0.00    +0.256 C 
ATOM     33  O   UNL     1       0.120   3.359  25.799  0.00  0.00    -0.272 OA
ENDROOT
BRANCH  11  10
ATOM      7  N   UNL     1      -4.114   3.263  24.392  0.00  0.00    -0.161 NA
ATOM      8  C   UNL     1      -3.394   2.931  24.623  0.00  0.00    +0.343 C 
ATOM      9  O   UNL     1      -3.363   2.428  25.276  0.00  0.00    -0.249 OA
ATOM     10  N   UNL     1      -2.707   3.103  24.200  0.00  0.00    -0.187 NA
BRANCH   7   6
ATOM      1 CL   UNL     1      -6.341   1.547  24.903  0.00  0.00    -0.082 Cl
ATOM      2  C   UNL     1      -5.915   2.233  25.069  0.00  0.00    +0.059 A 
ATOM      3  C   UNL     1      -6.177   2.750  25.658  0.00  0.00    +0.011 A 
ATOM      4  C   UNL     1      -5.752   3.436  25.824  0.00  0.00    +0.002 A 
ATOM      5  C   UNL     1      -5.064   3.608  25.402  0.00  0.00    +0.017 A 
ATOM      6  C   UNL     1      -4.801   3.092  24.814  0.00  0.00    +0.076 A 
ATOM     34  C   UNL     1      -5.227   2.405  24.648  0.00  0.00    +0.028 A 
ENDBRANCH   7   6
ENDBRANCH  11  10
BRANCH  16  17
ATOM     17  C   UNL     1      -0.636   0.589  24.174  0.00  0.00    +0.027 C 
BRANCH  17  18
ATOM     18  C   UNL     1      -0.905  -0.072  24.587  0.00  0.00    +0.087 C 
BRANCH  18  19
ATOM     19  C   UNL     1      -0.754  -0.830  24.298  0.00  0.00    +0.229 C 
ATOM     20  O   UNL     1      -0.067  -0.978  23.866  0.00  0.00    -0.275 OA
ATOM     21  N   UNL     1      -1.291  -1.440  24.440  0.00  0.00    -0.259 N 
ATOM     22  C   UNL     1      -1.215  -2.221  24.187  0.00  0.00    +0.103 C 
ATOM     23  C   UNL     1      -1.875  -2.641  24.451  0.00  0.00    +0.049 C 
ATOM     24  C   UNL     1      -2.358  -2.118  24.868  0.00  0.00    -0.007 A 
ATOM     25  C   UNL     1      -3.081  -2.221  25.252  0.00  0.00    -0.003 A 
ATOM     26  C   UNL     1      -3.442  -1.584  25.630  0.00  0.00    -0.000 A 
ATOM     27  C   UNL     1      -3.081  -0.842  25.623  0.00  0.00    +0.001 A 
ATOM     28  C   UNL     1      -2.359  -0.738  25.239  0.00  0.00    +0.015 A 
ATOM     29  C   UNL     1      -1.997  -1.376  24.861  0.00  0.00    +0.050 A 
ENDBRANCH  18  19
ENDBRANCH  17  18
ENDBRANCH  16  17
TORSDOF 5
ENDMDL
MODEL 5
REMARK VINA RESULT:     -12.3      2.073      3.795
REMARK  Name = 
REMARK  5 active torsions:
REMARK  status: ('A' for Active; 'I' for Inactive)
REMARK    1  A    between atoms: C_6  and  N_7
REMARK    2  A    between atoms: N_10  and  C_11
REMARK    3  A    between atoms: C_16  and  C_17
REMARK    4  A    between atoms: C_17  and  C_18
REMARK    5  A    between atoms: C_18  and  C_19
REMARK                            x       y       z     vdW  Elec       q    Type
REMARK                         _______ _______ _______ _____ _____    ______ ____
ROOT
ATOM     11  C   UNL     1      -0.675  -0.375  24.810  0.00  0.00    +0.115 C 
ATOM     12  C   UNL     1      -0.103  -0.319  24.218  0.00  0.00    +0.049 C 
ATOM     13  C   UNL     1       0.144   0.468  24.176  0.00  0.00    +0.138 C 
ATOM     14  N   UNL     1      -0.276   0.897  24.742  0.00  0.00    -0.265 NA
ATOM     15  C   UNL     1      -0.782   0.375  25.134  0.00  0.00    +0.094 C 
ATOM     16  C   UNL     1      -0.143   1.706  24.827  0.00  0.00    +0.080 C 
ATOM     30  C   UNL     1       0.409   2.087  24.347  0.00  0.00    +0.131 C 
ATOM     31  N   UNL     1       0.829   1.658  23.781  0.00  0.00    -0.203 NA
ATOM     32  C   UNL     1       0.696   0.848  23.695  0.00  0.00    +0.256 C 
ATOM     33  O   UNL     1       1.116   0.419  23.129  0.00  0.00    -0.272 OA
ENDROOT
BRANCH  11  10
ATOM      7  N   UNL     1      -2.194  -1.938  24.928  0.00  0.00    -0.161 NA
ATOM      8  C   UNL     1      -1.799  -1.251  24.700  0.00  0.00    +0.343 C 
ATOM      9  O   UNL     1      -2.132  -0.751  24.134  0.00  0.00    -0.249 OA
ATOM     10  N   UNL     1      -1.070  -1.063  25.038  0.00  0.00    -0.187 NA
BRANCH   7   6
ATOM      1 CL   UNL     1      -4.836  -1.170  24.156  0.00  0.00    -0.082 Cl
ATOM      2  C   UNL     1      -4.244  -1.742  24.204  0.00  0.00    +0.059 A 
ATOM      3  C   UNL     1      -4.380  -2.503  23.915  0.00  0.00    +0.011 A 
ATOM      4  C   UNL     1      -3.788  -3.075  23.964  0.00  0.00    +0.002 A 
ATOM      5  C   UNL     1      -3.059  -2.887  24.301  0.00  0.00    +0.017 A 
ATOM      6  C   UNL     1      -2.922  -2.127  24.590  0.00  0.00    +0.076 A 
ATOM     34  C   UNL     1      -3.515  -1.554  24.542  0.00  0.00    +0.028 A 
ENDBRANCH   7   6
ENDBRANCH  11  10
BRANCH  16  17
ATOM     17  C   UNL     1      -0.563   2.135  25.393  0.00  0.00    +0.027 C 
BRANCH  17  18
ATOM     18  C   UNL     1      -1.180   2.631  25.161  0.00  0.00    +0.087 C 
BRANCH  18  19
ATOM     19  C   UNL     1      -1.489   3.181  25.692  0.00  0.00    +0.229 C 
ATOM     20  O   UNL     1      -1.041   3.428  26.339  0.00  0.00    -0.275 OA
ATOM     21  N   UNL     1      -2.248   3.485  25.577  0.00  0.00    -0.259 N 
ATOM     22  C   UNL     1      -2.628   4.036  26.059  0.00  0.00    +0.103 C 
ATOM     23  C   UNL     1      -3.374   4.184  25.739  0.00  0.00    +0.049 C 
ATOM     24  C   UNL     1      -3.455   3.723  25.059  0.00  0.00    -0.007 A 
ATOM     25  C   UNL     1      -4.072   3.641  24.518  0.00  0.00    -0.003 A 
ATOM     26  C   UNL     1      -3.994   3.128  23.878  0.00  0.00    -0.000 A 
ATOM     27  C   UNL     1      -3.298   2.696  23.777  0.00  0.00    +0.001 A 
ATOM     28  C   UNL     1      -2.680   2.778  24.318  0.00  0.00    +0.015 A 
ATOM     29  C   UNL     1      -2.759   3.292  24.959  0.00  0.00    +0.050 A 
ENDBRANCH  18  19
ENDBRANCH  17  18
ENDBRANCH  16  17
TORSDOF 5
ENDMDL
MODEL 6
REMARK VINA RESULT:     -11.7      1.995      4.223
REMARK  Name = 
REMARK  5 active torsions:
REMARK  status: ('A' for Active; 'I' for Inactive)
REMARK    1  A    between atoms: C_6  and  N_7
REMARK    2  A    between atoms: N_10  and  C_11
REMARK    3  A    between atoms: C_16  and  C_17
REMARK    4  A    between atoms: C_17  and  C_18
REMARK    5  A    between atoms: C_18  and  C_19
REMARK                            x       y       z     vdW  Elec       q    Type
REMARK                         _______ _______ _______ _____ _____    ______ ____
ROOT
ATOM     11  C   UNL     1      -3.933  -0.497  24.394  0.00  0.00    +0.115 C 
ATOM     12  C   UNL     1      -3.959  -1.217  24.797  0.00  0.00    +0.049 C 
ATOM     13  C   UNL     1      -3.197  -1.535  24.802  0.00  0.00    +0.138 C 
ATOM     14  N   UNL     1      -2.700  -1.011  24.402  0.00  0.00    -0.265 NA
ATOM     15  C   UNL     1      -3.155  -0.370  24.151  0.00  0.00    +0.094 C 
ATOM     16  C   UNL     1      -1.899  -1.186  24.319  0.00  0.00    +0.080 C 
ATOM     30  C   UNL     1      -1.593  -1.884  24.636  0.00  0.00    +0.131 C 
ATOM     31  N   UNL     1      -2.090  -2.408  25.035  0.00  0.00    -0.203 NA
ATOM     32  C   UNL     1      -2.892  -2.233  25.118  0.00  0.00    +0.256 C 
ATOM     33  O   UNL     1      -3.389  -2.757  25.517  0.00  0.00    -0.272 OA
ENDROOT
BRANCH  11  10
ATOM      7  N   UNL     1      -5.279   1.213  24.552  0.00  0.00    -0.161 NA
ATOM      8  C   UNL     1      -4.640   0.709  24.687  0.00  0.00    +0.343 C 
ATOM      9  O   UNL     1      -4.069   0.908  25.249  0.00  0.00    -0.249 OA
ATOM     10  N   UNL     1      -4.572   0.006  24.260  0.00  0.00    -0.187 NA
BRANCH   7   6
ATOM      1 CL   UNL     1      -4.548   3.946  24.953  0.00  0.00    -0.082 Cl
ATOM      2  C   UNL     1      -4.982   3.283  25.178  0.00  0.00    +0.059 A 
ATOM      3  C   UNL     1      -5.486   3.321  25.831  0.00  0.00    +0.011 A 
ATOM      4  C   UNL     1      -5.920   2.658  26.057  0.00  0.00    +0.002 A 
ATOM      5  C   UNL     1      -5.852   1.955  25.631  0.00  0.00    +0.017 A 
ATOM      6  C   UNL     1      -5.348   1.915  24.979  0.00  0.00    +0.076 A 
ATOM     34  C   UNL     1      -4.913   2.579  24.752  0.00  0.00    +0.028 A 
ENDBRANCH   7   6
ENDBRANCH  11  10
BRANCH  16  17
ATOM     17  C   UNL     1      -1.402  -0.662  23.920  0.00  0.00    +0.027 C 
BRANCH  17  18
ATOM     18  C   UNL     1      -0.870  -0.194  24.343  0.00  0.00    +0.087 C 
BRANCH  18  19
ATOM     19  C   UNL     1      -0.231   0.156  23.956  0.00  0.00    +0.229 C 
ATOM     20  O   UNL     1       0.112  -0.216  23.305  0.00  0.00    -0.275 OA
ATOM     21  N   UNL     1       0.065   0.880  24.221  0.00  0.00    -0.259 N 
ATOM     22  C   UNL     1       0.697   1.294  23.892  0.00  0.00    +0.103 C 
ATOM     23  C   UNL     1       0.804   1.987  24.329  0.00  0.00    +0.049 C 
ATOM     24  C   UNL     1       0.237   1.999  24.927  0.00  0.00    -0.007 A 
ATOM     25  C   UNL     1       0.077   2.545  25.525  0.00  0.00    -0.003 A 
ATOM     26  C   UNL     1      -0.539   2.408  26.055  0.00  0.00    -0.000 A 
ATOM     27  C   UNL     1      -0.996   1.724  25.989  0.00  0.00    +0.001 A 
ATOM     28  C   UNL     1      -0.837   1.177  25.392  0.00  0.00    +0.015 A 
ATOM     29  C   UNL     1      -0.220   1.315  24.861  0.00  0.00    +0.050 A 
ENDBRANCH  18  19
ENDBRANCH  17  18
ENDBRANCH  16  17
TORSDOF 5
ENDMDL
MODEL 7
REMARK VINA RESULT:     -11.5      3.569      5.320
REMARK  Name = 
REMARK  5 active torsions:
REMARK  status: ('A' for Active; 'I' for Inactive)
REMARK    1  A    between atoms: C_6  and  N_7
REMARK    2  A    between atoms: N_10  and  C_11
REMARK    3  A    between atoms: C_16  and  C_17
REMARK    4  A    between atoms: C_17  and  C_18
REMARK    5  A    between atoms: C_18  and  C_19
REMARK                            x       y       z     vdW  Elec       q    Type
REMARK                         _______ _______ _______ _____ _____    ______ ____
ROOT
ATOM     11  C   UNL     1       0.322  -0.170  23.482  0.00  0.00    +0.115 C 
ATOM     12  C   UNL     1       0.154  -0.792  23.997  0.00  0.00    +0.049 C 
ATOM     13  C   UNL     1      -0.460  -0.552  24.494  0.00  0.00    +0.138 C 
ATOM     14  N   UNL     1      -0.671   0.217  24.285  0.00  0.00    -0.265 NA
ATOM     15  C   UNL     1      -0.188   0.454  23.660  0.00  0.00    +0.094 C 
ATOM     16  C   UNL     1      -1.276   0.603  24.692  0.00  0.00    +0.080 C 
ATOM     30  C   UNL     1      -1.670   0.220  25.307  0.00  0.00    +0.131 C 
ATOM     31  N   UNL     1      -1.459  -0.550  25.516  0.00  0.00    -0.203 NA
ATOM     32  C   UNL     1      -0.854  -0.936  25.109  0.00  0.00    +0.256 C 
ATOM     33  O   UNL     1      -0.643  -1.706  25.318  0.00  0.00    -0.272 OA
ENDROOT
BRANCH  11  10
ATOM      7  N   UNL     1       2.250   0.047  22.482  0.00  0.00    -0.161 NA
ATOM      8  C   UNL     1       1.673   0.049  23.072  0.00  0.00    +0.343 C 
ATOM      9  O   UNL     1       1.871   0.270  23.842  0.00  0.00    -0.249 OA
ATOM     10  N   UNL     1       0.899  -0.171  22.892  0.00  0.00    -0.187 NA
BRANCH   7   6
ATOM      1 CL   UNL     1       4.850  -0.628  23.458  0.00  0.00    -0.082 Cl
ATOM      2  C   UNL     1       4.325  -0.072  23.150  0.00  0.00    +0.059 A 
ATOM      3  C   UNL     1       4.575   0.705  23.021  0.00  0.00    +0.011 A 
ATOM      4  C   UNL     1       4.050   1.261  22.713  0.00  0.00    +0.002 A 
ATOM      5  C   UNL     1       3.275   1.042  22.533  0.00  0.00    +0.017 A 
ATOM      6  C   UNL     1       3.025   0.266  22.662  0.00  0.00    +0.076 A 
ATOM     34  C   UNL     1       3.550  -0.290  22.970  0.00  0.00    +0.028 A 
ENDBRANCH   7   6
ENDBRANCH  11  10
BRANCH  16  17
ATOM     17  C   UNL     1      -1.487   1.373  24.483  0.00  0.00    +0.027 C 
BRANCH  17  18
ATOM     18  C   UNL     1      -2.235   1.663  24.677  0.00  0.00    +0.087 C 
BRANCH  18  19
ATOM     19  C   UNL     1      -2.372   2.476  24.689  0.00  0.00    +0.229 C 
ATOM     20  O   UNL     1      -1.737   3.002  24.657  0.00  0.00    -0.275 OA
ATOM     21  N   UNL     1      -3.144   2.764  24.734  0.00  0.00    -0.259 N 
ATOM     22  C   UNL     1      -3.365   3.558  24.751  0.00  0.00    +0.103 C 
ATOM     23  C   UNL     1      -4.188   3.593  24.797  0.00  0.00    +0.049 C 
ATOM     24  C   UNL     1      -4.475   2.821  24.808  0.00  0.00    -0.007 A 
ATOM     25  C   UNL     1      -5.241   2.516  24.849  0.00  0.00    -0.003 A 
ATOM     26  C   UNL     1      -5.362   1.701  24.851  0.00  0.00    -0.000 A 
ATOM     27  C   UNL     1      -4.717   1.188  24.813  0.00  0.00    +0.001 A 
ATOM     28  C   UNL     1      -3.951   1.491  24.772  0.00  0.00    +0.015 A 
ATOM     29  C   UNL     1      -3.830   2.308  24.770  0.00  0.00    +0.050 A 
ENDBRANCH  18  19
ENDBRANCH  17  18
ENDBRANCH  16  17
TORSDOF 5
ENDMDL
MODEL 8
REMARK VINA RESULT:     -11.4      1.441      4.710
REMARK  Name = 
REMARK  5 active torsions:
REMARK  status: ('A' for Active; 'I' for Inactive)
REMARK    1  A    between atoms: C_6  and  N_7
REMARK    2  A    between atoms: N_10  and  C_11
REMARK    3  A    between atoms: C_16  and  C_17
REMARK    4  A    between atoms: C_17  and  C_18
REMARK    5  A    between atoms: C_18  and  C_19
REMARK                            x       y       z     vdW  Elec       q    Type
REMARK                         _______ _______ _______ _____ _____    ______ ____
ROOT
ATOM     11  C   UNL     1      -4.314   2.912  24.655  0.00  0.00    +0.115 C 
ATOM     12  C   UNL     1      -4.883   3.012  25.244  0.00  0.00    +0.049 C 
ATOM     13  C   UNL     1      -5.207   2.272  25.414  0.00  0.00    +0.138 C 
ATOM     14  N   UNL     1      -4.839   1.715  24.929  0.00  0.00    -0.265 NA
ATOM     15  C   UNL     1      -4.287   2.112  24.460  0.00  0.00    +0.094 C 
ATOM     16  C   UNL     1      -5.054   0.921  24.977  0.00  0.00    +0.080 C 
ATOM     30  C   UNL     1      -5.636   0.682  25.510  0.00  0.00    +0.131 C 
ATOM     31  N   UNL     1      -6.004   1.238  25.995  0.00  0.00    -0.203 NA
ATOM     32  C   UNL     1      -5.790   2.034  25.947  0.00  0.00    +0.256 C 
ATOM     33  O   UNL     1      -6.158   2.590  26.432  0.00  0.00    -0.272 OA
ENDROOT
BRANCH  11  10
ATOM      7  N   UNL     1      -2.618   4.221  24.240  0.00  0.00    -0.161 NA
ATOM      8  C   UNL     1      -3.079   3.625  24.576  0.00  0.00    +0.343 C 
ATOM      9  O   UNL     1      -2.763   3.143  25.167  0.00  0.00    -0.249 OA
ATOM     10  N   UNL     1      -3.854   3.509  24.319  0.00  0.00    -0.187 NA
BRANCH   7   6
ATOM      1 CL   UNL     1       0.105   3.362  24.351  0.00  0.00    -0.082 Cl
ATOM      2  C   UNL     1      -0.480   3.907  24.551  0.00  0.00    +0.059 A 
ATOM      3  C   UNL     1      -0.291   4.569  25.006  0.00  0.00    +0.011 A 
ATOM      4  C   UNL     1      -0.876   5.114  25.206  0.00  0.00    +0.002 A 
ATOM      5  C   UNL     1      -1.652   4.999  24.951  0.00  0.00    +0.017 A 
ATOM      6  C   UNL     1      -1.843   4.338  24.496  0.00  0.00    +0.076 A 
ATOM     34  C   UNL     1      -1.257   3.792  24.296  0.00  0.00    +0.028 A 
ENDBRANCH   7   6
ENDBRANCH  11  10
BRANCH  16  17
ATOM     17  C   UNL     1      -4.685   0.364  24.491  0.00  0.00    +0.027 C 
BRANCH  17  18
ATOM     18  C   UNL     1      -4.170  -0.191  24.817  0.00  0.00    +0.087 C 
BRANCH  18  19
ATOM     19  C   UNL     1      -4.100  -0.939  24.476  0.00  0.00    +0.229 C 
ATOM     20  O   UNL     1      -4.731  -1.261  24.054  0.00  0.00    -0.275 OA
ATOM     21  N   UNL     1      -3.398  -1.365  24.557  0.00  0.00    -0.259 N 
ATOM     22  C   UNL     1      -3.247  -2.115  24.248  0.00  0.00    +0.103 C 
ATOM     23  C   UNL     1      -2.479  -2.329  24.462  0.00  0.00    +0.049 C 
ATOM     24  C   UNL     1      -2.156  -1.712  24.903  0.00  0.00    -0.007 A 
ATOM     25  C   UNL     1      -1.418  -1.615  25.258  0.00  0.00    -0.003 A 
ATOM     26  C   UNL     1      -1.247  -0.923  25.672  0.00  0.00    -0.000 A 
ATOM     27  C   UNL     1      -1.815  -0.327  25.731  0.00  0.00    +0.001 A 
ATOM     28  C   UNL     1      -2.553  -0.423  25.376  0.00  0.00    +0.015 A 
ATOM     29  C   UNL     1      -2.724  -1.116  24.962  0.00  0.00    +0.050 A 
ENDBRANCH  18  19
ENDBRANCH  17  18
ENDBRANCH  16  17
TORSDOF 5
ENDMDL
MODEL 9
REMARK VINA RESULT:     -11.0      3.729      6.313
REMARK  Name = 
REMARK  5 active torsions:
REMARK  status: ('A' for Active; 'I' for Inactive)
REMARK    1  A    between atoms: C_6  and  N_7
REMARK    2  A    between atoms: N_10  and  C_11
REMARK    3  A    between atoms: C_16  and  C_17
REMARK    4  A    between atoms: C_17  and  C_18
REMARK    5  A    between atoms: C_18  and  C_19
REMARK                            x       y       z     vdW  Elec       q    Type
REMARK                         _______ _______ _______ _____ _____    ______ ____
ROOT
ATOM     11  C   UNL     1       0.686   0.503  23.392  0.00  0.00    +0.115 C 
ATOM     12  C   UNL     1       0.432   1.275  23.536  0.00  0.00    +0.049 C 
ATOM     13  C   UNL     1      -0.175   1.243  24.096  0.00  0.00    +0.138 C 
ATOM     14  N   UNL     1      -0.294   0.451  24.297  0.00  0.00    -0.265 NA
ATOM     15  C   UNL     1       0.238  -0.005  23.862  0.00  0.00    +0.094 C 
ATOM     16  C   UNL     1      -0.871   0.250  24.850  0.00  0.00    +0.080 C 
ATOM     30  C   UNL     1      -1.330   0.838  25.202  0.00  0.00    +0.131 C 
ATOM     31  N   UNL     1      -1.210   1.629  25.001  0.00  0.00    -0.203 NA
ATOM     32  C   UNL     1      -0.633   1.832  24.447  0.00  0.00    +0.256 C 
ATOM     33  O   UNL     1      -0.513   2.623  24.246  0.00  0.00    -0.272 OA
ENDROOT
BRANCH  11  10
ATOM      7  N   UNL     1       2.673   0.152  22.561  0.00  0.00    -0.161 NA
ATOM      8  C   UNL     1       2.075   0.375  23.083  0.00  0.00    +0.343 C 
ATOM      9  O   UNL     1       2.269   0.694  23.820  0.00  0.00    -0.249 OA
ATOM     10  N   UNL     1       1.284   0.280  22.869  0.00  0.00    -0.187 NA
BRANCH   7   6
ATOM      1 CL   UNL     1       5.057  -0.884  23.748  0.00  0.00    -0.082 Cl
ATOM      2  C   UNL     1       4.657  -0.272  23.368  0.00  0.00    +0.059 A 
ATOM      3  C   UNL     1       5.047   0.436  23.200  0.00  0.00    +0.011 A 
ATOM      4  C   UNL     1       4.647   1.048  22.820  0.00  0.00    +0.002 A 
ATOM      5  C   UNL     1       3.855   0.954  22.606  0.00  0.00    +0.017 A 
ATOM      6  C   UNL     1       3.465   0.247  22.774  0.00  0.00    +0.076 A 
ATOM     34  C   UNL     1       3.865  -0.366  23.155  0.00  0.00    +0.028 A 
ENDBRANCH   7   6
ENDBRANCH  11  10
BRANCH  16  17
ATOM     17  C   UNL     1      -0.990  -0.541  25.051  0.00  0.00    +0.027 C 
BRANCH  17  18
ATOM     18  C   UNL     1      -1.715  -0.903  24.894  0.00  0.00    +0.087 C 
BRANCH  18  19
ATOM     19  C   UNL     1      -1.796  -1.719  24.979  0.00  0.00    +0.229 C 
ATOM     20  O   UNL     1      -1.175  -2.166  25.287  0.00  0.00    -0.275 OA
ATOM     21  N   UNL     1      -2.500  -2.089  24.756  0.00  0.00    -0.259 N 
ATOM     22  C   UNL     1      -2.660  -2.896  24.808  0.00  0.00    +0.103 C 
ATOM     23  C   UNL     1      -3.425  -3.023  24.526  0.00  0.00    +0.049 C 
ATOM     24  C   UNL     1      -3.737  -2.294  24.300  0.00  0.00    -0.007 A 
ATOM     25  C   UNL     1      -4.468  -2.080  23.982  0.00  0.00    -0.003 A 
ATOM     26  C   UNL     1      -4.627  -1.291  23.807  0.00  0.00    -0.000 A 
ATOM     27  C   UNL     1      -4.055  -0.713  23.949  0.00  0.00    +0.001 A 
ATOM     28  C   UNL     1      -3.324  -0.926  24.266  0.00  0.00    +0.015 A 
ATOM     29  C   UNL     1      -3.165  -1.717  24.442  0.00  0.00    +0.050 A 
ENDBRANCH  18  19
ENDBRANCH  17  18
ENDBRANCH  16  17
TORSDOF 5
ENDMDL
