REMARK  Name = 
REMARK  3 active torsions:
REMARK  status: ('A' for Active; 'I' for Inactive)
REMARK    1  A    between atoms: N_3  and  C_20
REMARK    2  A    between atoms: N_7  and  S_11
REMARK    3  A    between atoms: S_11  and  C_14
REMARK                            x       y       z     vdW  Elec       q    Type
REMARK                         _______ _______ _______ _____ _____    ______ ____
ROOT
ATOM      1  O   UNL     1       0.884  -2.150   0.000  0.00  0.00    -0.252 OA
ATOM      2  C   UNL     1       1.139  -1.365   0.000  0.00  0.00    +0.307 C 
ATOM      3  N   UNL     1       0.654  -0.698   0.000  0.00  0.00    -0.264 N 
ATOM      4  C   UNL     1       1.139  -0.030   0.000  0.00  0.00    +0.116 C 
ATOM      5  C   UNL     1       1.923  -0.285   0.000  0.00  0.00    +0.114 C 
ATOM      6  C   UNL     1       2.638   0.127   0.000  0.00  0.00    +0.117 C 
ATOM      7  N   UNL     1       3.352  -0.285   0.000  0.00  0.00    -0.152 NA
ATOM      8  C   UNL     1       3.352  -1.110   0.000  0.00  0.00    +0.117 C 
ATOM      9  C   UNL     1       2.638  -1.523   0.000  0.00  0.00    +0.114 C 
ATOM     10  N   UNL     1       1.923  -1.110   0.000  0.00  0.00    -0.261 N 
ENDROOT
BRANCH   3  20
ATOM     20  C   UNL     1      -0.171  -0.698   0.000  0.00  0.00    +0.077 C 
ATOM     21  C   UNL     1      -0.584  -1.412   0.000  0.00  0.00    +0.020 C 
ATOM     22  C   UNL     1      -1.409  -1.412   0.000  0.00  0.00    +0.002 C 
ATOM     23  C   UNL     1      -1.821  -0.698   0.000  0.00  0.00    +0.000 C 
ATOM     24  C   UNL     1      -1.409   0.017   0.000  0.00  0.00    +0.002 C 
ATOM     25  C   UNL     1      -0.584   0.017   0.000  0.00  0.00    +0.020 C 
ENDBRANCH   3  20
BRANCH   7  11
ATOM     11  S   UNL     1       4.067   0.127   0.000  0.00  0.00    +0.063 S 
ATOM     12  O   UNL     1       3.654   0.842   0.000  0.00  0.00    -0.153 OA
ATOM     13  O   UNL     1       4.479  -0.587   0.000  0.00  0.00    -0.153 OA
BRANCH  11  14
ATOM     14  C   UNL     1       4.781   0.540   0.000  0.00  0.00    +0.122 A 
ATOM     15  C   UNL     1       4.781   1.365   0.000  0.00  0.00    +0.020 A 
ATOM     16  C   UNL     1       5.496   1.777   0.000  0.00  0.00    +0.001 A 
ATOM     17  C   UNL     1       6.210   1.365   0.000  0.00  0.00    +0.000 A 
ATOM     18  C   UNL     1       6.210   0.540   0.000  0.00  0.00    +0.001 A 
ATOM     19  C   UNL     1       5.496   0.127   0.000  0.00  0.00    +0.020 A 
ENDBRANCH  11  14
ENDBRANCH   7  11
TORSDOF 3
