MODEL 1
REMARK VINA RESULT:     -10.2      0.000      0.000
REMARK  Name = 
REMARK  7 active torsions:
REMARK  status: ('A' for Active; 'I' for Inactive)
REMARK    1  A    between atoms: C_3  and  C_4
REMARK    2  A    between atoms: C_4  and  N_5
REMARK    3  A    between atoms: C_14  and  C_15
REMARK    4  A    between atoms: C_15  and  C_16
REMARK    5  A    between atoms: C_16  and  C_17
REMARK    6  A    between atoms: N_19  and  C_20
REMARK    7  A    between atoms: C_20  and  C_21
REMARK                            x       y       z     vdW  Elec       q    Type
REMARK                         _______ _______ _______ _____ _____    ______ ____
ROOT
ATOM      5  N   UNL     1      -2.149   1.740  24.780  0.00  0.00    -0.259 NA
ATOM      6  C   UNL     1      -2.403   0.973  24.944  0.00  0.00    +0.074 C 
ATOM      7  C   UNL     1      -1.807   0.452  24.712  0.00  0.00    +0.035 C 
ATOM      8  C   UNL     1      -1.184   0.898  24.404  0.00  0.00    +0.083 C 
ATOM      9  C   UNL     1      -1.396   1.694  24.446  0.00  0.00    +0.152 C 
ATOM     10  C   UNL     1      -0.963   2.355  24.209  0.00  0.00    +0.257 C 
ATOM     11  O   UNL     1      -1.330   3.084  24.325  0.00  0.00    -0.272 OA
ATOM     12  N   UNL     1      -0.211   2.382  23.870  0.00  0.00    -0.203 NA
ATOM     13  C   UNL     1       0.294   1.755  23.686  0.00  0.00    +0.131 C 
ATOM     14  C   UNL     1       0.170   0.946  23.794  0.00  0.00    +0.080 C 
ATOM     27  N   UNL     1      -0.488   0.565  24.114  0.00  0.00    -0.271 NA
ATOM     28  C   UNL     1      -0.443  -0.258  24.148  0.00  0.00    +0.090 C 
ENDROOT
BRANCH   5   4
ATOM      4  C   UNL     1      -2.574   2.432  24.924  0.00  0.00    +0.137 C 
BRANCH   4   3
ATOM      1  C   UNL     1      -3.566   3.590  25.872  0.00  0.00    +0.132 C 
ATOM      2  N   UNL     1      -3.848   2.933  25.459  0.00  0.00    -0.312 N 
ATOM      3  C   UNL     1      -3.392   2.401  25.024  0.00  0.00    +0.137 A 
ATOM     29  N   UNL     1      -3.898   1.833  24.705  0.00  0.00    -0.230 NA
ATOM     30  C   UNL     1      -4.668   2.013  24.944  0.00  0.00    +0.098 A 
ATOM     31  C   UNL     1      -4.637   2.693  25.410  0.00  0.00    +0.079 A 
ATOM     32  C   UNL     1      -5.329   3.007  25.729  0.00  0.00    +0.019 A 
ATOM     33  C   UNL     1      -6.054   2.640  25.582  0.00  0.00    +0.002 A 
ATOM     34  C   UNL     1      -6.085   1.960  25.116  0.00  0.00    +0.002 A 
ATOM     35  C   UNL     1      -5.391   1.647  24.797  0.00  0.00    +0.021 A 
ENDBRANCH   4   3
ENDBRANCH   5   4
BRANCH  14  15
ATOM     15  C   UNL     1       0.786   0.455  23.551  0.00  0.00    +0.027 C 
BRANCH  15  16
ATOM     16  C   UNL     1       1.445   0.776  23.171  0.00  0.00    +0.088 C 
BRANCH  16  17
ATOM     17  C   UNL     1       2.036   0.279  22.881  0.00  0.00    +0.242 C 
ATOM     18  O   UNL     1       1.847  -0.319  22.346  0.00  0.00    -0.273 OA
ATOM     19  N   UNL     1       2.817   0.381  23.127  0.00  0.00    -0.201 NA
BRANCH  19  20
ATOM     20  C   UNL     1       3.408  -0.116  22.837  0.00  0.00    +0.141 C 
BRANCH  20  21
ATOM     21  C   UNL     1       4.158  -0.110  23.183  0.00  0.00    -0.001 A 
ATOM     22  C   UNL     1       4.422  -0.768  23.606  0.00  0.00    -0.003 A 
ATOM     23  C   UNL     1       5.171  -0.763  23.951  0.00  0.00    -0.000 A 
ATOM     24  C   UNL     1       5.656  -0.100  23.874  0.00  0.00    -0.000 A 
ATOM     25  C   UNL     1       5.393   0.558  23.451  0.00  0.00    -0.000 A 
ATOM     26  C   UNL     1       4.643   0.552  23.106  0.00  0.00    -0.003 A 
ENDBRANCH  20  21
ENDBRANCH  19  20
ENDBRANCH  16  17
ENDBRANCH  15  16
ENDBRANCH  14  15
TORSDOF 7
ENDMDL
MODEL 2
REMARK VINA RESULT:      -7.1     15.231     16.179
REMARK  Name = 
REMARK  7 active torsions:
REMARK  status: ('A' for Active; 'I' for Inactive)
REMARK    1  A    between atoms: C_3  and  C_4
REMARK    2  A    between atoms: C_4  and  N_5
REMARK    3  A    between atoms: C_14  and  C_15
REMARK    4  A    between atoms: C_15  and  C_16
REMARK    5  A    between atoms: C_16  and  C_17
REMARK    6  A    between atoms: N_19  and  C_20
REMARK    7  A    between atoms: C_20  and  C_21
REMARK                            x       y       z     vdW  Elec       q    Type
REMARK                         _______ _______ _______ _____ _____    ______ ____
ROOT
ATOM      5  N   UNL     1      -7.306 -10.099  15.863  0.00  0.00    -0.259 NA
ATOM      6  C   UNL     1      -7.875 -10.288  15.297  0.00  0.00    +0.074 C 
ATOM      7  C   UNL     1      -7.486 -10.454  14.589  0.00  0.00    +0.035 C 
ATOM      8  C   UNL     1      -6.675 -10.368  14.718  0.00  0.00    +0.083 C 
ATOM      9  C   UNL     1      -6.564 -10.148  15.506  0.00  0.00    +0.152 C 
ATOM     10  C   UNL     1      -5.857  -9.997  15.903  0.00  0.00    +0.257 C 
ATOM     11  O   UNL     1      -5.931  -9.787  16.697  0.00  0.00    -0.272 OA
ATOM     12  N   UNL     1      -5.086 -10.027  15.611  0.00  0.00    -0.203 NA
ATOM     13  C   UNL     1      -4.832 -10.216  14.848  0.00  0.00    +0.131 C 
ATOM     14  C   UNL     1      -5.286 -10.422  14.191  0.00  0.00    +0.080 C 
ATOM     27  N   UNL     1      -6.107 -10.490  14.134  0.00  0.00    -0.271 NA
ATOM     28  C   UNL     1      -6.396 -10.708  13.392  0.00  0.00    +0.090 C 
ENDROOT
BRANCH   5   4
ATOM      4  C   UNL     1      -7.453  -9.896  16.649  0.00  0.00    +0.137 C 
BRANCH   4   3
ATOM      1  C   UNL     1      -8.543 -10.425  17.973  0.00  0.00    +0.132 C 
ATOM      2  N   UNL     1      -8.670  -9.786  17.466  0.00  0.00    -0.312 N 
ATOM      3  C   UNL     1      -8.169  -9.544  16.858  0.00  0.00    +0.137 A 
ATOM     29  N   UNL     1      -8.510  -8.886  16.494  0.00  0.00    -0.230 NA
ATOM     30  C   UNL     1      -9.222  -8.722  16.878  0.00  0.00    +0.098 A 
ATOM     31  C   UNL     1      -9.321  -9.279  17.478  0.00  0.00    +0.079 A 
ATOM     32  C   UNL     1      -9.990  -9.252  17.960  0.00  0.00    +0.019 A 
ATOM     33  C   UNL     1     -10.561  -8.668  17.839  0.00  0.00    +0.002 A 
ATOM     34  C   UNL     1     -10.462  -8.111  17.239  0.00  0.00    +0.002 A 
ATOM     35  C   UNL     1      -9.792  -8.139  16.758  0.00  0.00    +0.021 A 
ENDBRANCH   4   3
ENDBRANCH   5   4
BRANCH  14  15
ATOM     15  C   UNL     1      -4.865 -10.582  13.500  0.00  0.00    +0.027 C 
BRANCH  15  16
ATOM     16  C   UNL     1      -4.243 -10.088  13.273  0.00  0.00    +0.088 C 
BRANCH  16  17
ATOM     17  C   UNL     1      -3.780 -10.283  12.619  0.00  0.00    +0.242 C 
ATOM     18  O   UNL     1      -3.129 -10.781  12.709  0.00  0.00    -0.273 OA
ATOM     19  N   UNL     1      -3.967  -9.980  11.875  0.00  0.00    -0.201 NA
BRANCH  19  20
ATOM     20  C   UNL     1      -3.503 -10.175  11.222  0.00  0.00    +0.141 C 
BRANCH  20  21
ATOM     21  C   UNL     1      -3.721  -9.915  10.469  0.00  0.00    -0.001 A 
ATOM     22  C   UNL     1      -3.607  -9.126  10.256  0.00  0.00    -0.003 A 
ATOM     23  C   UNL     1      -3.824  -8.866   9.504  0.00  0.00    -0.000 A 
ATOM     24  C   UNL     1      -4.156  -9.395   8.964  0.00  0.00    -0.000 A 
ATOM     25  C   UNL     1      -4.270 -10.184   9.177  0.00  0.00    -0.000 A 
ATOM     26  C   UNL     1      -4.053 -10.444   9.930  0.00  0.00    -0.003 A 
ENDBRANCH  20  21
ENDBRANCH  19  20
ENDBRANCH  16  17
ENDBRANCH  15  16
ENDBRANCH  14  15
TORSDOF 7
ENDMDL
MODEL 3
REMARK VINA RESULT:      -7.1     15.069     16.206
REMARK  Name = 
REMARK  7 active torsions:
REMARK  status: ('A' for Active; 'I' for Inactive)
REMARK    1  A    between atoms: C_3  and  C_4
REMARK    2  A    between atoms: C_4  and  N_5
REMARK    3  A    between atoms: C_14  and  C_15
REMARK    4  A    between atoms: C_15  and  C_16
REMARK    5  A    between atoms: C_16  and  C_17
REMARK    6  A    between atoms: N_19  and  C_20
REMARK    7  A    between atoms: C_20  and  C_21
REMARK                            x       y       z     vdW  Elec       q    Type
REMARK                         _______ _______ _______ _____ _____    ______ ____
ROOT
ATOM      5  N   UNL     1      -4.879 -10.644  16.099  0.00  0.00    -0.259 NA
ATOM      6  C   UNL     1      -5.634 -10.706  15.770  0.00  0.00    +0.074 C 
ATOM      7  C   UNL     1      -5.555 -10.702  14.949  0.00  0.00    +0.035 C 
ATOM      8  C   UNL     1      -4.751 -10.638  14.770  0.00  0.00    +0.083 C 
ATOM      9  C   UNL     1      -4.334 -10.602  15.481  0.00  0.00    +0.152 C 
ATOM     10  C   UNL     1      -3.520 -10.536  15.597  0.00  0.00    +0.257 C 
ATOM     11  O   UNL     1      -3.272 -10.513  16.383  0.00  0.00    -0.272 OA
ATOM     12  N   UNL     1      -2.922 -10.490  15.031  0.00  0.00    -0.203 NA
ATOM     13  C   UNL     1      -2.990 -10.498  14.208  0.00  0.00    +0.131 C 
ATOM     14  C   UNL     1      -3.674 -10.555  13.749  0.00  0.00    +0.080 C 
ATOM     27  N   UNL     1      -4.458 -10.617  14.000  0.00  0.00    -0.271 NA
ATOM     28  C   UNL     1      -5.022 -10.665  13.400  0.00  0.00    +0.090 C 
ENDROOT
BRANCH   5   4
ATOM      4  C   UNL     1      -4.702 -10.627  16.904  0.00  0.00    +0.137 C 
BRANCH   4   3
ATOM      1  C   UNL     1      -4.499 -10.776  18.681  0.00  0.00    +0.132 C 
ATOM      2  N   UNL     1      -5.217 -10.721  18.278  0.00  0.00    -0.312 N 
ATOM      3  C   UNL     1      -5.310 -10.653  17.461  0.00  0.00    +0.137 A 
ATOM     29  N   UNL     1      -6.119 -10.614  17.299  0.00  0.00    -0.230 NA
ATOM     30  C   UNL     1      -6.525 -10.659  18.016  0.00  0.00    +0.098 A 
ATOM     31  C   UNL     1      -5.967 -10.725  18.621  0.00  0.00    +0.079 A 
ATOM     32  C   UNL     1      -6.215 -10.781  19.406  0.00  0.00    +0.019 A 
ATOM     33  C   UNL     1      -7.020 -10.770  19.586  0.00  0.00    +0.002 A 
ATOM     34  C   UNL     1      -7.578 -10.704  18.982  0.00  0.00    +0.002 A 
ATOM     35  C   UNL     1      -7.329 -10.649  18.197  0.00  0.00    +0.021 A 
ENDBRANCH   4   3
ENDBRANCH   5   4
BRANCH  14  15
ATOM     15  C   UNL     1      -3.559 -10.549  12.933  0.00  0.00    +0.027 C 
BRANCH  15  16
ATOM     16  C   UNL     1      -2.844 -10.279  12.619  0.00  0.00    +0.088 C 
BRANCH  16  17
ATOM     17  C   UNL     1      -2.700 -10.341  11.809  0.00  0.00    +0.242 C 
ATOM     18  O   UNL     1      -2.051 -10.770  11.538  0.00  0.00    -0.273 OA
ATOM     19  N   UNL     1      -3.206  -9.973  11.271  0.00  0.00    -0.201 NA
BRANCH  19  20
ATOM     20  C   UNL     1      -3.062 -10.035  10.462  0.00  0.00    +0.141 C 
BRANCH  20  21
ATOM     21  C   UNL     1      -3.608  -9.734   9.921  0.00  0.00    -0.001 A 
ATOM     22  C   UNL     1      -4.036 -10.247   9.437  0.00  0.00    -0.003 A 
ATOM     23  C   UNL     1      -4.581  -9.946   8.897  0.00  0.00    -0.000 A 
ATOM     24  C   UNL     1      -4.699  -9.131   8.840  0.00  0.00    -0.000 A 
ATOM     25  C   UNL     1      -4.271  -8.617   9.324  0.00  0.00    -0.000 A 
ATOM     26  C   UNL     1      -3.725  -8.919   9.864  0.00  0.00    -0.003 A 
ENDBRANCH  20  21
ENDBRANCH  19  20
ENDBRANCH  16  17
ENDBRANCH  15  16
ENDBRANCH  14  15
TORSDOF 7
ENDMDL
MODEL 4
REMARK VINA RESULT:      -6.9      3.099      5.823
REMARK  Name = 
REMARK  7 active torsions:
REMARK  status: ('A' for Active; 'I' for Inactive)
REMARK    1  A    between atoms: C_3  and  C_4
REMARK    2  A    between atoms: C_4  and  N_5
REMARK    3  A    between atoms: C_14  and  C_15
REMARK    4  A    between atoms: C_15  and  C_16
REMARK    5  A    between atoms: C_16  and  C_17
REMARK    6  A    between atoms: N_19  and  C_20
REMARK    7  A    between atoms: C_20  and  C_21
REMARK                            x       y       z     vdW  Elec       q    Type
REMARK                         _______ _______ _______ _____ _____    ______ ____
ROOT
ATOM      5  N   UNL     1      -0.982  -0.120  24.523  0.00  0.00    -0.259 NA
ATOM      6  C   UNL     1      -1.014   0.005  23.708  0.00  0.00    +0.074 C 
ATOM      7  C   UNL     1      -0.882   0.808  23.569  0.00  0.00    +0.035 C 
ATOM      8  C   UNL     1      -0.768   1.178  24.298  0.00  0.00    +0.083 C 
ATOM      9  C   UNL     1      -0.830   0.604  24.888  0.00  0.00    +0.152 C 
ATOM     10  C   UNL     1      -0.760   0.696  25.704  0.00  0.00    +0.257 C 
ATOM     11  O   UNL     1      -0.851   0.009  26.151  0.00  0.00    -0.272 OA
ATOM     12  N   UNL     1      -0.610   1.385  26.133  0.00  0.00    -0.203 NA
ATOM     13  C   UNL     1      -0.494   2.152  25.851  0.00  0.00    +0.131 C 
ATOM     14  C   UNL     1      -0.499   2.419  25.070  0.00  0.00    +0.080 C 
ATOM     27  N   UNL     1      -0.621   1.985  24.379  0.00  0.00    -0.271 NA
ATOM     28  C   UNL     1      -0.592   2.416  23.677  0.00  0.00    +0.090 C 
ENDROOT
BRANCH   5   4
ATOM      4  C   UNL     1      -1.084  -0.844  24.906  0.00  0.00    +0.137 C 
BRANCH   4   3
ATOM      1  C   UNL     1      -1.110  -2.637  24.832  0.00  0.00    +0.132 C 
ATOM      2  N   UNL     1      -1.753  -2.137  24.701  0.00  0.00    -0.312 N 
ATOM      3  C   UNL     1      -1.741  -1.313  24.735  0.00  0.00    +0.137 A 
ATOM     29  N   UNL     1      -2.501  -1.039  24.568  0.00  0.00    -0.230 NA
ATOM     30  C   UNL     1      -2.984  -1.695  24.431  0.00  0.00    +0.098 A 
ATOM     31  C   UNL     1      -2.521  -2.373  24.513  0.00  0.00    +0.079 A 
ATOM     32  C   UNL     1      -2.858  -3.118  24.406  0.00  0.00    +0.019 A 
ATOM     33  C   UNL     1      -3.659  -3.185  24.217  0.00  0.00    +0.002 A 
ATOM     34  C   UNL     1      -4.122  -2.507  24.135  0.00  0.00    +0.002 A 
ATOM     35  C   UNL     1      -3.783  -1.762  24.242  0.00  0.00    +0.021 A 
ENDBRANCH   4   3
ENDBRANCH   5   4
BRANCH  14  15
ATOM     15  C   UNL     1      -0.363   3.226  24.967  0.00  0.00    +0.027 C 
BRANCH  15  16
ATOM     16  C   UNL     1      -0.630   3.765  25.533  0.00  0.00    +0.088 C 
BRANCH  16  17
ATOM     17  C   UNL     1      -1.263   4.264  25.361  0.00  0.00    +0.242 C 
ATOM     18  O   UNL     1      -1.125   5.000  25.015  0.00  0.00    -0.273 OA
ATOM     19  N   UNL     1      -2.034   4.028  25.535  0.00  0.00    -0.201 NA
BRANCH  19  20
ATOM     20  C   UNL     1      -2.667   4.528  25.363  0.00  0.00    +0.141 C 
BRANCH  20  21
ATOM     21  C   UNL     1      -3.435   4.227  25.339  0.00  0.00    -0.001 A 
ATOM     22  C   UNL     1      -3.831   4.052  26.041  0.00  0.00    -0.003 A 
ATOM     23  C   UNL     1      -4.599   3.751  26.018  0.00  0.00    -0.000 A 
ATOM     24  C   UNL     1      -4.972   3.626  25.292  0.00  0.00    -0.000 A 
ATOM     25  C   UNL     1      -4.576   3.802  24.590  0.00  0.00    -0.000 A 
ATOM     26  C   UNL     1      -3.807   4.103  24.613  0.00  0.00    -0.003 A 
ENDBRANCH  20  21
ENDBRANCH  19  20
ENDBRANCH  16  17
ENDBRANCH  15  16
ENDBRANCH  14  15
TORSDOF 7
ENDMDL
MODEL 5
REMARK VINA RESULT:      -6.5      1.457      7.289
REMARK  Name = 
REMARK  7 active torsions:
REMARK  status: ('A' for Active; 'I' for Inactive)
REMARK    1  A    between atoms: C_3  and  C_4
REMARK    2  A    between atoms: C_4  and  N_5
REMARK    3  A    between atoms: C_14  and  C_15
REMARK    4  A    between atoms: C_15  and  C_16
REMARK    5  A    between atoms: C_16  and  C_17
REMARK    6  A    between atoms: N_19  and  C_20
REMARK    7  A    between atoms: C_20  and  C_21
REMARK                            x       y       z     vdW  Elec       q    Type
REMARK                         _______ _______ _______ _____ _____    ______ ____
ROOT
ATOM      5  N   UNL     1       0.407   0.201  23.504  0.00  0.00    -0.259 NA
ATOM      6  C   UNL     1       0.473   1.021  23.567  0.00  0.00    +0.074 C 
ATOM      7  C   UNL     1      -0.207   1.303  23.939  0.00  0.00    +0.035 C 
ATOM      8  C   UNL     1      -0.693   0.657  24.107  0.00  0.00    +0.083 C 
ATOM      9  C   UNL     1      -0.313  -0.024  23.837  0.00  0.00    +0.152 C 
ATOM     10  C   UNL     1      -0.572  -0.806  23.876  0.00  0.00    +0.257 C 
ATOM     11  O   UNL     1      -0.060  -1.368  23.555  0.00  0.00    -0.272 OA
ATOM     12  N   UNL     1      -1.274  -1.101  24.192  0.00  0.00    -0.203 NA
ATOM     13  C   UNL     1      -1.892  -0.685  24.549  0.00  0.00    +0.131 C 
ATOM     14  C   UNL     1      -1.959   0.127  24.677  0.00  0.00    +0.080 C 
ATOM     27  N   UNL     1      -1.425   0.724  24.480  0.00  0.00    -0.271 NA
ATOM     28  C   UNL     1      -1.654   1.490  24.684  0.00  0.00    +0.090 C 
ENDROOT
BRANCH   5   4
ATOM      4  C   UNL     1       0.965  -0.305  23.167  0.00  0.00    +0.137 C 
BRANCH   4   3
ATOM      1  C   UNL     1       1.801  -0.463  21.587  0.00  0.00    +0.132 C 
ATOM      2  N   UNL     1       2.105  -0.099  22.263  0.00  0.00    -0.312 N 
ATOM      3  C   UNL     1       1.721  -0.027  22.988  0.00  0.00    +0.137 A 
ATOM     29  N   UNL     1       2.225   0.373  23.505  0.00  0.00    -0.230 NA
ATOM     30  C   UNL     1       2.921   0.548  23.098  0.00  0.00    +0.098 A 
ATOM     31  C   UNL     1       2.847   0.256  22.330  0.00  0.00    +0.079 A 
ATOM     32  C   UNL     1       3.465   0.350  21.791  0.00  0.00    +0.019 A 
ATOM     33  C   UNL     1       4.157   0.738  22.021  0.00  0.00    +0.002 A 
ATOM     34  C   UNL     1       4.230   1.030  22.789  0.00  0.00    +0.002 A 
ATOM     35  C   UNL     1       3.612   0.934  23.327  0.00  0.00    +0.021 A 
ENDBRANCH   4   3
ENDBRANCH   5   4
BRANCH  14  15
ATOM     15  C   UNL     1      -2.651   0.375  25.051  0.00  0.00    +0.027 C 
BRANCH  15  16
ATOM     16  C   UNL     1      -3.380   0.066  24.817  0.00  0.00    +0.088 C 
BRANCH  16  17
ATOM     17  C   UNL     1      -4.076   0.344  25.162  0.00  0.00    +0.242 C 
ATOM     18  O   UNL     1      -4.473  -0.116  25.719  0.00  0.00    -0.273 OA
ATOM     19  N   UNL     1      -4.374   1.083  24.950  0.00  0.00    -0.201 NA
BRANCH  19  20
ATOM     20  C   UNL     1      -5.069   1.361  25.295  0.00  0.00    +0.141 C 
BRANCH  20  21
ATOM     21  C   UNL     1      -5.215   2.173  25.333  0.00  0.00    -0.001 A 
ATOM     22  C   UNL     1      -4.906   2.675  24.755  0.00  0.00    -0.003 A 
ATOM     23  C   UNL     1      -5.052   3.486  24.793  0.00  0.00    -0.000 A 
ATOM     24  C   UNL     1      -5.507   3.795  25.408  0.00  0.00    -0.000 A 
ATOM     25  C   UNL     1      -5.816   3.294  25.986  0.00  0.00    -0.000 A 
ATOM     26  C   UNL     1      -5.670   2.482  25.948  0.00  0.00    -0.003 A 
ENDBRANCH  20  21
ENDBRANCH  19  20
ENDBRANCH  16  17
ENDBRANCH  15  16
ENDBRANCH  14  15
TORSDOF 7
ENDMDL
MODEL 6
REMARK VINA RESULT:      -6.4     15.866     17.279
REMARK  Name = 
REMARK  7 active torsions:
REMARK  status: ('A' for Active; 'I' for Inactive)
REMARK    1  A    between atoms: C_3  and  C_4
REMARK    2  A    between atoms: C_4  and  N_5
REMARK    3  A    between atoms: C_14  and  C_15
REMARK    4  A    between atoms: C_15  and  C_16
REMARK    5  A    between atoms: C_16  and  C_17
REMARK    6  A    between atoms: N_19  and  C_20
REMARK    7  A    between atoms: C_20  and  C_21
REMARK                            x       y       z     vdW  Elec       q    Type
REMARK                         _______ _______ _______ _____ _____    ______ ____
ROOT
ATOM      5  N   UNL     1      -6.278 -10.140  15.309  0.00  0.00    -0.259 NA
ATOM      6  C   UNL     1      -7.061 -10.180  15.566  0.00  0.00    +0.074 C 
ATOM      7  C   UNL     1      -7.550 -10.104  14.906  0.00  0.00    +0.035 C 
ATOM      8  C   UNL     1      -7.068 -10.017  14.240  0.00  0.00    +0.083 C 
ATOM      9  C   UNL     1      -6.282 -10.040  14.490  0.00  0.00    +0.152 C 
ATOM     10  C   UNL     1      -5.596  -9.977  14.036  0.00  0.00    +0.257 C 
ATOM     11  O   UNL     1      -4.886 -10.021  14.453  0.00  0.00    -0.272 OA
ATOM     12  N   UNL     1      -5.527  -9.877  13.220  0.00  0.00    -0.203 NA
ATOM     13  C   UNL     1      -6.127  -9.814  12.657  0.00  0.00    +0.131 C 
ATOM     14  C   UNL     1      -6.944  -9.836  12.771  0.00  0.00    +0.080 C 
ATOM     27  N   UNL     1      -7.362  -9.927  13.476  0.00  0.00    -0.271 NA
ATOM     28  C   UNL     1      -8.185  -9.927  13.406  0.00  0.00    +0.090 C 
ENDROOT
BRANCH   5   4
ATOM      4  C   UNL     1      -5.608 -10.192  15.788  0.00  0.00    +0.137 C 
BRANCH   4   3
ATOM      1  C   UNL     1      -4.325 -10.738  16.918  0.00  0.00    +0.132 C 
ATOM      2  N   UNL     1      -5.100 -10.541  17.122  0.00  0.00    -0.312 N 
ATOM      3  C   UNL     1      -5.689 -10.290  16.603  0.00  0.00    +0.137 A 
ATOM     29  N   UNL     1      -6.375 -10.154  17.041  0.00  0.00    -0.230 NA
ATOM     30  C   UNL     1      -6.209 -10.322  17.832  0.00  0.00    +0.098 A 
ATOM     31  C   UNL     1      -5.421 -10.560  17.882  0.00  0.00    +0.079 A 
ATOM     32  C   UNL     1      -5.097 -10.765  18.613  0.00  0.00    +0.019 A 
ATOM     33  C   UNL     1      -5.563 -10.731  19.294  0.00  0.00    +0.002 A 
ATOM     34  C   UNL     1      -6.351 -10.492  19.244  0.00  0.00    +0.002 A 
ATOM     35  C   UNL     1      -6.674 -10.287  18.513  0.00  0.00    +0.021 A 
ENDBRANCH   4   3
ENDBRANCH   5   4
BRANCH  14  15
ATOM     15  C   UNL     1      -7.403  -9.757  12.089  0.00  0.00    +0.027 C 
BRANCH  15  16
ATOM     16  C   UNL     1      -7.090  -9.384  11.423  0.00  0.00    +0.088 C 
BRANCH  16  17
ATOM     17  C   UNL     1      -7.487  -9.430  10.701  0.00  0.00    +0.242 C 
ATOM     18  O   UNL     1      -7.741 -10.160  10.415  0.00  0.00    -0.273 OA
ATOM     19  N   UNL     1      -7.629  -8.745  10.265  0.00  0.00    -0.201 NA
BRANCH  19  20
ATOM     20  C   UNL     1      -8.025  -8.791   9.543  0.00  0.00    +0.141 C 
BRANCH  20  21
ATOM     21  C   UNL     1      -8.193  -8.102   9.120  0.00  0.00    -0.001 A 
ATOM     22  C   UNL     1      -8.937  -7.750   9.183  0.00  0.00    -0.003 A 
ATOM     23  C   UNL     1      -9.105  -7.062   8.761  0.00  0.00    -0.000 A 
ATOM     24  C   UNL     1      -8.530  -6.725   8.274  0.00  0.00    -0.000 A 
ATOM     25  C   UNL     1      -7.786  -7.077   8.210  0.00  0.00    -0.000 A 
ATOM     26  C   UNL     1      -7.618  -7.766   8.633  0.00  0.00    -0.003 A 
ENDBRANCH  20  21
ENDBRANCH  19  20
ENDBRANCH  16  17
ENDBRANCH  15  16
ENDBRANCH  14  15
TORSDOF 7
ENDMDL
