MODEL 1
REMARK VINA RESULT:     -15.0      0.000      0.000
REMARK  Name = 
REMARK  3 active torsions:
REMARK  status: ('A' for Active; 'I' for Inactive)
REMARK    1  A    between atoms: C_5  and  C_6
REMARK    2  A    between atoms: N_17  and  S_19
REMARK    3  A    between atoms: S_19  and  C_22
REMARK                            x       y       z     vdW  Elec       q    Type
REMARK                         _______ _______ _______ _____ _____    ______ ____
ROOT
ATOM      1  O   UNL     1      -4.921   2.809  25.097  0.00  0.00    -0.267 OA
ATOM      2  C   UNL     1      -4.641   1.834  25.007  0.00  0.00    +0.261 A 
ATOM      3  C   UNL     1      -5.067   1.431  25.100  0.00  0.00    +0.061 A 
ATOM      4  C   UNL     1      -5.005   0.453  25.062  0.00  0.00    +0.006 A 
ATOM      5  C   UNL     1      -4.231   0.241  24.870  0.00  0.00    +0.012 A 
ATOM     12  C   UNL     1      -3.663   0.826  24.746  0.00  0.00    +0.041 A 
ATOM     13  C   UNL     1      -2.774   0.923  24.534  0.00  0.00    +0.056 C 
ATOM     14  C   UNL     1      -2.199   0.548  24.386  0.00  0.00    +0.011 C 
ATOM     15  C   UNL     1      -2.405   1.333  24.455  0.00  0.00    +0.041 C 
ATOM     16  C   UNL     1      -2.457   2.319  24.490  0.00  0.00    +0.098 C 
ATOM     17  N   UNL     1      -3.263   2.410  24.687  0.00  0.00    -0.155 NA
ATOM     18  C   UNL     1      -2.808   1.877  24.565  0.00  0.00    +0.102 C 
ATOM     27  C   UNL     1      -3.334   1.242  24.677  0.00  0.00    +0.110 C 
ATOM     28  N   UNL     1      -3.868   1.622  24.815  0.00  0.00    -0.299 N 
ENDROOT
BRANCH   5   6
ATOM      6  C   UNL     1      -4.026  -0.555  24.801  0.00  0.00    +0.001 A 
ATOM      7  C   UNL     1      -4.126  -0.946  24.082  0.00  0.00    +0.000 A 
ATOM      8  C   UNL     1      -3.921  -1.743  24.014  0.00  0.00    +0.000 A 
ATOM      9  C   UNL     1      -3.616  -2.148  24.665  0.00  0.00    +0.000 A 
ATOM     10  C   UNL     1      -3.517  -1.757  25.384  0.00  0.00    +0.000 A 
ATOM     11  C   UNL     1      -3.722  -0.960  25.452  0.00  0.00    +0.000 A 
ENDBRANCH   5   6
BRANCH  17  19
ATOM     19  S   UNL     1      -3.945   2.946  24.865  0.00  0.00    +0.069 S 
ATOM     20  O   UNL     1      -4.605   2.403  24.585  0.00  0.00    -0.152 OA
ATOM     21  O   UNL     1      -4.655   3.451  25.027  0.00  0.00    -0.152 OA
BRANCH  19  22
ATOM     22  C   UNL     1      -3.176   3.479  25.149  0.00  0.00    +0.152 A 
ATOM     23  C   UNL     1      -2.788   3.478  25.877  0.00  0.00    +0.027 A 
ATOM     24  C   UNL     1      -2.173   4.026  25.839  0.00  0.00    +0.009 A 
ATOM     25  C   UNL     1      -2.180   4.366  25.087  0.00  0.00    +0.037 A 
ATOM     26  S   UNL     1      -2.800   4.027  24.660  0.00  0.00    -0.067 S 
ENDBRANCH  19  22
ENDBRANCH  17  19
TORSDOF 3
ENDMDL
