MODEL 1
REMARK VINA RESULT:     -12.9      0.000      0.000
REMARK  Name = 
REMARK  3 active torsions:
REMARK  status: ('A' for Active; 'I' for Inactive)
REMARK    1  A    between atoms: C_5  and  C_8
REMARK    2  A    between atoms: C_11  and  C_13
REMARK    3  A    between atoms: N_16  and  C_18
REMARK                            x       y       z     vdW  Elec       q    Type
REMARK                         _______ _______ _______ _____ _____    ______ ____
ROOT
ATOM      8  C   UNL     1      -4.136   0.174  24.816  0.00  0.00    +0.250 A 
ATOM      9  N   UNL     1      -4.828   0.509  25.113  0.00  0.00    -0.107 NA
ATOM     10  N   UNL     1      -4.739   1.330  25.100  0.00  0.00    -0.111 NA
ATOM     11  C   UNL     1      -3.992   1.500  24.795  0.00  0.00    +0.227 A 
ATOM     12  O   UNL     1      -3.619   0.785  24.619  0.00  0.00    -0.419 OA
ENDROOT
BRANCH   8   5
ATOM      1  C   UNL     1      -3.540  -3.055  24.473  0.00  0.00    +0.031 C 
ATOM      2  C   UNL     1      -3.689  -2.247  24.559  0.00  0.00    -0.022 A 
ATOM      3  C   UNL     1      -3.440  -1.852  25.239  0.00  0.00    -0.004 A 
ATOM      4  C   UNL     1      -3.589  -1.045  25.325  0.00  0.00    +0.004 A 
ATOM      5  C   UNL     1      -3.987  -0.633  24.730  0.00  0.00    +0.055 A 
ATOM      6  C   UNL     1      -4.235  -1.029  24.051  0.00  0.00    +0.004 A 
ATOM      7  C   UNL     1      -4.086  -1.836  23.965  0.00  0.00    -0.004 A 
ENDBRANCH   8   5
BRANCH  11  13
ATOM     13  C   UNL     1      -3.673   2.252  24.685  0.00  0.00    +0.096 C 
ATOM     14  C   UNL     1      -4.040   2.883  24.298  0.00  0.00    +0.028 C 
ATOM     15  C   UNL     1      -3.525   3.527  24.316  0.00  0.00    +0.073 C 
ATOM     16  N   UNL     1      -2.840   3.295  24.713  0.00  0.00    -0.273 NA
ATOM     17  C   UNL     1      -2.931   2.508  24.941  0.00  0.00    +0.081 C 
BRANCH  16  18
ATOM     18  C   UNL     1      -2.179   3.769  24.858  0.00  0.00    +0.063 C 
ATOM     19  C   UNL     1      -1.424   3.485  24.686  0.00  0.00    +0.048 C 
ATOM     20  C   UNL     1      -0.763   3.958  24.830  0.00  0.00    +0.144 C 
ATOM     21  O   UNL     1      -0.858   4.714  25.146  0.00  0.00    -0.354 OA
ATOM     22  C   UNL     1      -1.614   4.997  25.318  0.00  0.00    +0.144 C 
ATOM     23  C   UNL     1      -2.274   4.524  25.174  0.00  0.00    +0.048 C 
ENDBRANCH  16  18
ENDBRANCH  11  13
TORSDOF 3
ENDMDL
MODEL 2
REMARK VINA RESULT:     -11.8      1.070      5.210
REMARK  Name = 
REMARK  3 active torsions:
REMARK  status: ('A' for Active; 'I' for Inactive)
REMARK    1  A    between atoms: C_5  and  C_8
REMARK    2  A    between atoms: C_11  and  C_13
REMARK    3  A    between atoms: N_16  and  C_18
REMARK                            x       y       z     vdW  Elec       q    Type
REMARK                         _______ _______ _______ _____ _____    ______ ____
ROOT
ATOM      8  C   UNL     1      -2.956   2.818  24.500  0.00  0.00    +0.250 A 
ATOM      9  N   UNL     1      -3.587   2.916  23.978  0.00  0.00    -0.107 NA
ATOM     10  N   UNL     1      -4.036   2.224  23.989  0.00  0.00    -0.111 NA
ATOM     11  C   UNL     1      -3.682   1.699  24.519  0.00  0.00    +0.227 A 
ATOM     12  O   UNL     1      -3.014   2.067  24.834  0.00  0.00    -0.419 OA
ENDROOT
BRANCH   8   5
ATOM      1  C   UNL     1      -0.606   5.047  25.139  0.00  0.00    +0.031 C 
ATOM      2  C   UNL     1      -1.194   4.489  24.979  0.00  0.00    -0.022 A 
ATOM      3  C   UNL     1      -1.970   4.626  25.225  0.00  0.00    -0.004 A 
ATOM      4  C   UNL     1      -2.557   4.069  25.065  0.00  0.00    +0.004 A 
ATOM      5  C   UNL     1      -2.368   3.375  24.660  0.00  0.00    +0.055 A 
ATOM      6  C   UNL     1      -1.593   3.239  24.415  0.00  0.00    +0.004 A 
ATOM      7  C   UNL     1      -1.005   3.796  24.574  0.00  0.00    -0.004 A 
ENDBRANCH   8   5
BRANCH  11  13
ATOM     13  C   UNL     1      -3.949   0.941  24.701  0.00  0.00    +0.096 C 
ATOM     14  C   UNL     1      -4.592   0.756  25.184  0.00  0.00    +0.028 C 
ATOM     15  C   UNL     1      -4.661  -0.066  25.214  0.00  0.00    +0.073 C 
ATOM     16  N   UNL     1      -4.060  -0.389  24.750  0.00  0.00    -0.273 NA
ATOM     17  C   UNL     1      -3.620   0.233  24.432  0.00  0.00    +0.081 C 
BRANCH  16  18
ATOM     18  C   UNL     1      -3.923  -1.193  24.624  0.00  0.00    +0.063 C 
ATOM     19  C   UNL     1      -3.476  -1.625  25.167  0.00  0.00    +0.048 C 
ATOM     20  C   UNL     1      -3.339  -2.429  25.041  0.00  0.00    +0.144 C 
ATOM     21  O   UNL     1      -3.649  -2.801  24.374  0.00  0.00    -0.354 OA
ATOM     22  C   UNL     1      -4.096  -2.369  23.831  0.00  0.00    +0.144 C 
ATOM     23  C   UNL     1      -4.233  -1.565  23.956  0.00  0.00    +0.048 C 
ENDBRANCH  16  18
ENDBRANCH  11  13
TORSDOF 3
ENDMDL
MODEL 3
REMARK VINA RESULT:     -11.5      1.687      2.103
REMARK  Name = 
REMARK  3 active torsions:
REMARK  status: ('A' for Active; 'I' for Inactive)
REMARK    1  A    between atoms: C_5  and  C_8
REMARK    2  A    between atoms: C_11  and  C_13
REMARK    3  A    between atoms: N_16  and  C_18
REMARK                            x       y       z     vdW  Elec       q    Type
REMARK                         _______ _______ _______ _____ _____    ______ ____
ROOT
ATOM      8  C   UNL     1      -2.106  -0.490  25.171  0.00  0.00    +0.250 A 
ATOM      9  N   UNL     1      -1.544  -0.686  25.742  0.00  0.00    -0.107 NA
ATOM     10  N   UNL     1      -1.096  -0.011  25.898  0.00  0.00    -0.111 NA
ATOM     11  C   UNL     1      -1.381   0.601  25.424  0.00  0.00    +0.227 A 
ATOM     12  O   UNL     1      -2.006   0.304  24.974  0.00  0.00    -0.419 OA
ENDROOT
BRANCH   8   5
ATOM      1  C   UNL     1      -4.364  -2.534  23.897  0.00  0.00    +0.031 C 
ATOM      2  C   UNL     1      -3.799  -2.023  24.216  0.00  0.00    -0.022 A 
ATOM      3  C   UNL     1      -3.045  -2.304  24.399  0.00  0.00    -0.004 A 
ATOM      4  C   UNL     1      -2.481  -1.793  24.717  0.00  0.00    +0.004 A 
ATOM      5  C   UNL     1      -2.671  -1.001  24.853  0.00  0.00    +0.055 A 
ATOM      6  C   UNL     1      -3.425  -0.721  24.669  0.00  0.00    +0.004 A 
ATOM      7  C   UNL     1      -3.989  -1.232  24.351  0.00  0.00    -0.004 A 
ENDBRANCH   8   5
BRANCH  11  13
ATOM     13  C   UNL     1      -1.093   1.373  25.402  0.00  0.00    +0.096 C 
ATOM     14  C   UNL     1      -0.298   1.594  25.403  0.00  0.00    +0.028 C 
ATOM     15  C   UNL     1      -0.262   2.417  25.378  0.00  0.00    +0.073 C 
ATOM     16  N   UNL     1      -1.035   2.706  25.360  0.00  0.00    -0.273 NA
ATOM     17  C   UNL     1      -1.548   2.060  25.376  0.00  0.00    +0.081 C 
BRANCH  16  18
ATOM     18  C   UNL     1      -1.256   3.501  25.333  0.00  0.00    +0.063 C 
ATOM     19  C   UNL     1      -0.758   4.055  24.978  0.00  0.00    +0.048 C 
ATOM     20  C   UNL     1      -0.979   4.850  24.950  0.00  0.00    +0.144 C 
ATOM     21  O   UNL     1      -1.697   5.090  25.278  0.00  0.00    -0.354 OA
ATOM     22  C   UNL     1      -2.194   4.535  25.633  0.00  0.00    +0.144 C 
ATOM     23  C   UNL     1      -1.974   3.741  25.660  0.00  0.00    +0.048 C 
ENDBRANCH  16  18
ENDBRANCH  11  13
TORSDOF 3
ENDMDL
MODEL 4
REMARK VINA RESULT:     -11.5      1.791      5.521
REMARK  Name = 
REMARK  3 active torsions:
REMARK  status: ('A' for Active; 'I' for Inactive)
REMARK    1  A    between atoms: C_5  and  C_8
REMARK    2  A    between atoms: C_11  and  C_13
REMARK    3  A    between atoms: N_16  and  C_18
REMARK                            x       y       z     vdW  Elec       q    Type
REMARK                         _______ _______ _______ _____ _____    ______ ____
ROOT
ATOM      8  C   UNL     1      -1.083   2.133  25.191  0.00  0.00    +0.250 A 
ATOM      9  N   UNL     1      -0.364   1.731  25.133  0.00  0.00    -0.107 NA
ATOM     10  N   UNL     1      -0.522   0.922  25.172  0.00  0.00    -0.111 NA
ATOM     11  C   UNL     1      -1.337   0.825  25.253  0.00  0.00    +0.227 A 
ATOM     12  O   UNL     1      -1.684   1.574  25.265  0.00  0.00    -0.419 OA
ENDROOT
BRANCH   8   5
ATOM      1  C   UNL     1      -1.480   5.409  25.136  0.00  0.00    +0.031 C 
ATOM      2  C   UNL     1      -1.381   4.590  25.150  0.00  0.00    -0.022 A 
ATOM      3  C   UNL     1      -1.879   4.122  25.613  0.00  0.00    -0.004 A 
ATOM      4  C   UNL     1      -1.779   3.303  25.627  0.00  0.00    +0.004 A 
ATOM      5  C   UNL     1      -1.182   2.952  25.177  0.00  0.00    +0.055 A 
ATOM      6  C   UNL     1      -0.685   3.420  24.715  0.00  0.00    +0.004 A 
ATOM      7  C   UNL     1      -0.784   4.239  24.701  0.00  0.00    -0.004 A 
ENDBRANCH   8   5
BRANCH  11  13
ATOM     13  C   UNL     1      -1.736   0.105  25.313  0.00  0.00    +0.096 C 
ATOM     14  C   UNL     1      -1.657  -0.444  25.923  0.00  0.00    +0.028 C 
ATOM     15  C   UNL     1      -2.156  -1.081  25.760  0.00  0.00    +0.073 C 
ATOM     16  N   UNL     1      -2.544  -0.924  25.049  0.00  0.00    -0.273 NA
ATOM     17  C   UNL     1      -2.284  -0.191  24.772  0.00  0.00    +0.081 C 
BRANCH  16  18
ATOM     18  C   UNL     1      -3.095  -1.415  24.679  0.00  0.00    +0.063 C 
ATOM     19  C   UNL     1      -2.990  -2.233  24.688  0.00  0.00    +0.048 C 
ATOM     20  C   UNL     1      -3.541  -2.724  24.318  0.00  0.00    +0.144 C 
ATOM     21  O   UNL     1      -4.196  -2.396  23.939  0.00  0.00    -0.354 OA
ATOM     22  C   UNL     1      -4.301  -1.577  23.931  0.00  0.00    +0.144 C 
ATOM     23  C   UNL     1      -3.751  -1.087  24.301  0.00  0.00    +0.048 C 
ENDBRANCH  16  18
ENDBRANCH  11  13
TORSDOF 3
ENDMDL
MODEL 5
REMARK VINA RESULT:      -9.8      1.869      2.350
REMARK  Name = 
REMARK  3 active torsions:
REMARK  status: ('A' for Active; 'I' for Inactive)
REMARK    1  A    between atoms: C_5  and  C_8
REMARK    2  A    between atoms: C_11  and  C_13
REMARK    3  A    between atoms: N_16  and  C_18
REMARK                            x       y       z     vdW  Elec       q    Type
REMARK                         _______ _______ _______ _____ _____    ______ ____
ROOT
ATOM      8  C   UNL     1      -2.991  -0.504  24.363  0.00  0.00    +0.250 A 
ATOM      9  N   UNL     1      -2.239  -0.168  24.407  0.00  0.00    -0.107 NA
ATOM     10  N   UNL     1      -2.328   0.653  24.401  0.00  0.00    -0.111 NA
ATOM     11  C   UNL     1      -3.133   0.822  24.353  0.00  0.00    +0.227 A 
ATOM     12  O   UNL     1      -3.544   0.106  24.329  0.00  0.00    -0.419 OA
ENDROOT
BRANCH   8   5
ATOM      1  C   UNL     1      -3.668  -3.735  24.326  0.00  0.00    +0.031 C 
ATOM      2  C   UNL     1      -3.499  -2.926  24.335  0.00  0.00    -0.022 A 
ATOM      3  C   UNL     1      -2.778  -2.660  24.635  0.00  0.00    -0.004 A 
ATOM      4  C   UNL     1      -2.608  -1.853  24.644  0.00  0.00    +0.004 A 
ATOM      5  C   UNL     1      -3.160  -1.312  24.353  0.00  0.00    +0.055 A 
ATOM      6  C   UNL     1      -3.881  -1.579  24.054  0.00  0.00    +0.004 A 
ATOM      7  C   UNL     1      -4.050  -2.387  24.045  0.00  0.00    -0.004 A 
ENDBRANCH   8   5
BRANCH  11  13
ATOM     13  C   UNL     1      -3.471   1.575  24.332  0.00  0.00    +0.096 C 
ATOM     14  C   UNL     1      -3.322   2.157  23.766  0.00  0.00    +0.028 C 
ATOM     15  C   UNL     1      -3.775   2.819  23.957  0.00  0.00    +0.073 C 
ATOM     16  N   UNL     1      -4.203   2.647  24.641  0.00  0.00    -0.273 NA
ATOM     17  C   UNL     1      -4.015   1.878  24.873  0.00  0.00    +0.081 C 
BRANCH  16  18
ATOM     18  C   UNL     1      -4.727   3.155  25.026  0.00  0.00    +0.063 C 
ATOM     19  C   UNL     1      -4.514   3.940  25.165  0.00  0.00    +0.048 C 
ATOM     20  C   UNL     1      -5.038   4.448  25.550  0.00  0.00    +0.144 C 
ATOM     21  O   UNL     1      -5.775   4.171  25.796  0.00  0.00    -0.354 OA
ATOM     22  C   UNL     1      -5.988   3.386  25.657  0.00  0.00    +0.144 C 
ATOM     23  C   UNL     1      -5.464   2.878  25.273  0.00  0.00    +0.048 C 
ENDBRANCH  16  18
ENDBRANCH  11  13
TORSDOF 3
ENDMDL
MODEL 6
REMARK VINA RESULT:      -9.5      2.265      4.713
REMARK  Name = 
REMARK  3 active torsions:
REMARK  status: ('A' for Active; 'I' for Inactive)
REMARK    1  A    between atoms: C_5  and  C_8
REMARK    2  A    between atoms: C_11  and  C_13
REMARK    3  A    between atoms: N_16  and  C_18
REMARK                            x       y       z     vdW  Elec       q    Type
REMARK                         _______ _______ _______ _____ _____    ______ ____
ROOT
ATOM      8  C   UNL     1      -3.532   2.317  24.239  0.00  0.00    +0.250 A 
ATOM      9  N   UNL     1      -3.334   2.380  23.441  0.00  0.00    -0.107 NA
ATOM     10  N   UNL     1      -2.714   1.857  23.291  0.00  0.00    -0.111 NA
ATOM     11  C   UNL     1      -2.529   1.472  23.996  0.00  0.00    +0.227 A 
ATOM     12  O   UNL     1      -3.035   1.756  24.583  0.00  0.00    -0.419 OA
ENDROOT
BRANCH   8   5
ATOM      1  C   UNL     1      -5.901   4.014  25.789  0.00  0.00    +0.031 C 
ATOM      2  C   UNL     1      -5.308   3.590  25.401  0.00  0.00    -0.022 A 
ATOM      3  C   UNL     1      -4.557   3.919  25.312  0.00  0.00    -0.004 A 
ATOM      4  C   UNL     1      -3.965   3.495  24.925  0.00  0.00    +0.004 A 
ATOM      5  C   UNL     1      -4.124   2.741  24.627  0.00  0.00    +0.055 A 
ATOM      6  C   UNL     1      -4.876   2.413  24.717  0.00  0.00    +0.004 A 
ATOM      7  C   UNL     1      -5.468   2.837  25.104  0.00  0.00    -0.004 A 
ENDBRANCH   8   5
BRANCH  11  13
ATOM     13  C   UNL     1      -1.941   0.902  24.098  0.00  0.00    +0.096 C 
ATOM     14  C   UNL     1      -1.139   0.998  23.931  0.00  0.00    +0.028 C 
ATOM     15  C   UNL     1      -0.754   0.292  24.114  0.00  0.00    +0.073 C 
ATOM     16  N   UNL     1      -1.318  -0.242  24.393  0.00  0.00    -0.273 NA
ATOM     17  C   UNL     1      -2.052   0.136  24.383  0.00  0.00    +0.081 C 
BRANCH  16  18
ATOM     18  C   UNL     1      -1.175  -1.016  24.639  0.00  0.00    +0.063 C 
ATOM     19  C   UNL     1      -0.515  -1.185  25.105  0.00  0.00    +0.048 C 
ATOM     20  C   UNL     1      -0.371  -1.959  25.351  0.00  0.00    +0.144 C 
ATOM     21  O   UNL     1      -0.887  -2.564  25.132  0.00  0.00    -0.354 OA
ATOM     22  C   UNL     1      -1.547  -2.395  24.666  0.00  0.00    +0.144 C 
ATOM     23  C   UNL     1      -1.691  -1.621  24.420  0.00  0.00    +0.048 C 
ENDBRANCH  16  18
ENDBRANCH  11  13
TORSDOF 3
ENDMDL
