REMARK  Name = 
REMARK  2 active torsions:
REMARK  status: ('A' for Active; 'I' for Inactive)
REMARK    1  A    between atoms: C_5  and  C_6
REMARK    2  A    between atoms: C_6  and  N_7
REMARK                            x       y       z     vdW  Elec       q    Type
REMARK                         _______ _______ _______ _____ _____    ______ ____
ROOT
ATOM      7  N   UNL     1       1.033  -4.387   0.000  0.00  0.00    -0.186 NA
ATOM      8  C   UNL     1       0.548  -5.055   0.000  0.00  0.00    +0.323 C 
ATOM      9  O   UNL     1       0.884  -5.809   0.000  0.00  0.00    -0.251 OA
ATOM     10  N   UNL     1      -0.272  -4.969   0.000  0.00  0.00    -0.258 N 
ATOM     11  C   UNL     1      -0.757  -5.636   0.000  0.00  0.00    +0.127 C 
ATOM     12  C   UNL     1      -1.577  -5.550   0.000  0.00  0.00    +0.164 C 
ATOM     13  O   UNL     1      -1.913  -4.796   0.000  0.00  0.00    -0.350 OA
ATOM     14  C   UNL     1      -1.428  -4.129   0.000  0.00  0.00    +0.164 C 
ATOM     15  C   UNL     1      -0.608  -4.215   0.000  0.00  0.00    +0.127 C 
ENDROOT
BRANCH   7   6
ATOM      6  C   UNL     1       1.854  -4.474   0.000  0.00  0.00    +0.149 C 
BRANCH   6   5
ATOM      1  N   UNL     1       2.751  -1.712   0.000  0.00  0.00    -0.127 NA
ATOM      2  C   UNL     1       2.751  -2.537   0.000  0.00  0.00    +0.154 C 
ATOM      3  C   UNL     1       3.419  -3.022   0.000  0.00  0.00    +0.164 C 
ATOM      4  O   UNL     1       3.164  -3.806   0.000  0.00  0.00    -0.350 OA
ATOM      5  C   UNL     1       2.339  -3.806   0.000  0.00  0.00    +0.169 C 
ATOM     16  C   UNL     1       2.084  -3.022   0.000  0.00  0.00    +0.201 C 
ATOM     17  O   UNL     1       1.299  -2.767   0.000  0.00  0.00    -0.219 OA
ENDBRANCH   6   5
ENDBRANCH   7   6
TORSDOF 2
