MODEL 1
REMARK VINA RESULT:     -10.7      0.000      0.000
REMARK  Name = 
REMARK  6 active torsions:
REMARK  status: ('A' for Active; 'I' for Inactive)
REMARK    1  A    between atoms: C_2  and  C_4
REMARK    2  A    between atoms: C_6  and  C_7
REMARK    3  A    between atoms: C_7  and  C_8
REMARK    4  A    between atoms: C_19  and  C_20
REMARK    5  A    between atoms: C_20  and  N_21
REMARK    6  A    between atoms: N_24  and  C_25
REMARK                            x       y       z     vdW  Elec       q    Type
REMARK                         _______ _______ _______ _____ _____    ______ ____
ROOT
ATOM      4  C   UNL     1      -4.405   1.285  25.037  0.00  0.00    +0.006 C 
ATOM      5  C   UNL     1      -4.408   0.460  25.039  0.00  0.00    +0.005 C 
ATOM      6  C   UNL     1      -3.696   0.044  25.042  0.00  0.00    +0.027 C 
ATOM     16  C   UNL     1      -2.980   0.453  25.043  0.00  0.00    -0.048 C 
ATOM     17  C   UNL     1      -2.267   0.036  25.046  0.00  0.00    +0.026 C 
ATOM     18  C   UNL     1      -2.975   1.278  25.040  0.00  0.00    -0.033 C 
ATOM     19  C   UNL     1      -3.688   1.694  25.037  0.00  0.00    +0.043 C 
ENDROOT
BRANCH   4   2
ATOM      1  C   UNL     1      -5.530   1.817  25.739  0.00  0.00    +0.000 C 
ATOM      2  C   UNL     1      -5.117   1.700  25.034  0.00  0.00    +0.000 C 
ATOM      3  C   UNL     1      -5.417   1.999  24.326  0.00  0.00    +0.000 C 
ENDBRANCH   4   2
BRANCH   6   7
ATOM      7  C   UNL     1      -3.700  -0.780  25.045  0.00  0.00    +0.089 C 
BRANCH   7   8
ATOM      8  C   UNL     1      -3.978  -1.194  24.386  0.00  0.00    +0.226 C 
ATOM      9  O   UNL     1      -4.335  -0.787  23.765  0.00  0.00    -0.275 OA
ATOM     10  N   UNL     1      -3.898  -2.014  24.351  0.00  0.00    -0.274 N 
ATOM     11  C   UNL     1      -3.541  -2.422  24.972  0.00  0.00    +0.125 C 
ATOM     12  C   UNL     1      -3.461  -3.242  24.937  0.00  0.00    +0.164 C 
ATOM     13  O   UNL     1      -3.738  -3.655  24.279  0.00  0.00    -0.350 OA
ATOM     14  C   UNL     1      -4.096  -3.248  23.656  0.00  0.00    +0.164 C 
ATOM     15  C   UNL     1      -4.176  -2.427  23.693  0.00  0.00    +0.125 C 
ENDBRANCH   7   8
ENDBRANCH   6   7
BRANCH  19  20
ATOM     20  C   UNL     1      -3.684   2.520  25.034  0.00  0.00    +0.121 C 
BRANCH  20  21
ATOM     21  N   UNL     1      -3.148   2.930  25.508  0.00  0.00    -0.187 NA
ATOM     22  C   UNL     1      -2.684   3.529  25.180  0.00  0.00    +0.344 C 
ATOM     23  O   UNL     1      -2.756   3.716  24.381  0.00  0.00    -0.249 OA
ATOM     24  N   UNL     1      -2.147   3.940  25.654  0.00  0.00    -0.161 NA
BRANCH  24  25
ATOM     25  C   UNL     1      -1.684   4.538  25.326  0.00  0.00    +0.075 A 
ATOM     26  C   UNL     1      -0.937   4.361  25.021  0.00  0.00    +0.017 A 
ATOM     27  C   UNL     1      -0.473   4.959  24.694  0.00  0.00    +0.001 A 
ATOM     28  C   UNL     1      -0.754   5.733  24.671  0.00  0.00    +0.000 A 
ATOM     29  C   UNL     1      -1.500   5.911  24.976  0.00  0.00    +0.001 A 
ATOM     30  C   UNL     1      -1.964   5.313  25.304  0.00  0.00    +0.017 A 
ENDBRANCH  24  25
ENDBRANCH  20  21
ENDBRANCH  19  20
TORSDOF 6
ENDMDL
MODEL 2
REMARK VINA RESULT:     -10.0      3.467      5.008
REMARK  Name = 
REMARK  6 active torsions:
REMARK  status: ('A' for Active; 'I' for Inactive)
REMARK    1  A    between atoms: C_2  and  C_4
REMARK    2  A    between atoms: C_6  and  C_7
REMARK    3  A    between atoms: C_7  and  C_8
REMARK    4  A    between atoms: C_19  and  C_20
REMARK    5  A    between atoms: C_20  and  N_21
REMARK    6  A    between atoms: N_24  and  C_25
REMARK                            x       y       z     vdW  Elec       q    Type
REMARK                         _______ _______ _______ _____ _____    ______ ____
ROOT
ATOM      4  C   UNL     1      -1.328   1.482  24.836  0.00  0.00    +0.006 C 
ATOM      5  C   UNL     1      -2.132   1.663  24.789  0.00  0.00    +0.005 C 
ATOM      6  C   UNL     1      -2.486   1.784  24.054  0.00  0.00    +0.027 C 
ATOM     16  C   UNL     1      -2.036   1.723  23.365  0.00  0.00    -0.048 C 
ATOM     17  C   UNL     1      -2.391   1.843  22.629  0.00  0.00    +0.026 C 
ATOM     18  C   UNL     1      -1.233   1.541  23.411  0.00  0.00    -0.033 C 
ATOM     19  C   UNL     1      -0.879   1.421  24.146  0.00  0.00    +0.043 C 
ENDROOT
BRANCH   4   2
ATOM      1  C   UNL     1      -0.982   0.610  25.914  0.00  0.00    +0.000 C 
ATOM      2  C   UNL     1      -0.975   1.361  25.571  0.00  0.00    +0.000 C 
ATOM      3  C   UNL     1      -0.614   1.990  25.963  0.00  0.00    +0.000 C 
ENDBRANCH   4   2
BRANCH   6   7
ATOM      7  C   UNL     1      -3.288   1.965  24.008  0.00  0.00    +0.089 C 
BRANCH   7   8
ATOM      8  C   UNL     1      -3.590   2.611  24.425  0.00  0.00    +0.226 C 
ATOM      9  O   UNL     1      -3.131   3.288  24.525  0.00  0.00    -0.275 OA
ATOM     10  N   UNL     1      -4.352   2.577  24.741  0.00  0.00    -0.274 N 
ATOM     11  C   UNL     1      -4.811   1.900  24.641  0.00  0.00    +0.125 C 
ATOM     12  C   UNL     1      -5.573   1.867  24.957  0.00  0.00    +0.164 C 
ATOM     13  O   UNL     1      -5.875   2.512  25.374  0.00  0.00    -0.350 OA
ATOM     14  C   UNL     1      -5.415   3.190  25.474  0.00  0.00    +0.164 C 
ATOM     15  C   UNL     1      -4.653   3.222  25.158  0.00  0.00    +0.125 C 
ENDBRANCH   7   8
ENDBRANCH   6   7
BRANCH  19  20
ATOM     20  C   UNL     1      -0.075   1.239  24.193  0.00  0.00    +0.121 C 
BRANCH  20  21
ATOM     21  N   UNL     1       0.297   0.853  23.565  0.00  0.00    -0.187 NA
ATOM     22  C   UNL     1       1.121   0.839  23.521  0.00  0.00    +0.344 C 
ATOM     23  O   UNL     1       1.571   1.210  24.103  0.00  0.00    -0.249 OA
ATOM     24  N   UNL     1       1.494   0.454  22.894  0.00  0.00    -0.161 NA
BRANCH  24  25
ATOM     25  C   UNL     1       2.317   0.440  22.850  0.00  0.00    +0.075 A 
ATOM     26  C   UNL     1       2.720  -0.279  22.899  0.00  0.00    +0.017 A 
ATOM     27  C   UNL     1       3.544  -0.293  22.855  0.00  0.00    +0.001 A 
ATOM     28  C   UNL     1       3.964   0.410  22.762  0.00  0.00    +0.000 A 
ATOM     29  C   UNL     1       3.562   1.128  22.713  0.00  0.00    +0.001 A 
ATOM     30  C   UNL     1       2.737   1.142  22.757  0.00  0.00    +0.017 A 
ENDBRANCH  24  25
ENDBRANCH  20  21
ENDBRANCH  19  20
TORSDOF 6
ENDMDL
MODEL 3
REMARK VINA RESULT:      -9.8      3.267      5.042
REMARK  Name = 
REMARK  6 active torsions:
REMARK  status: ('A' for Active; 'I' for Inactive)
REMARK    1  A    between atoms: C_2  and  C_4
REMARK    2  A    between atoms: C_6  and  C_7
REMARK    3  A    between atoms: C_7  and  C_8
REMARK    4  A    between atoms: C_19  and  C_20
REMARK    5  A    between atoms: C_20  and  N_21
REMARK    6  A    between atoms: N_24  and  C_25
REMARK                            x       y       z     vdW  Elec       q    Type
REMARK                         _______ _______ _______ _____ _____    ______ ____
ROOT
ATOM      4  C   UNL     1      -1.076  -0.021  24.550  0.00  0.00    +0.006 C 
ATOM      5  C   UNL     1      -0.290   0.026  24.306  0.00  0.00    +0.005 C 
ATOM      6  C   UNL     1      -0.000   0.725  23.977  0.00  0.00    +0.027 C 
ATOM     16  C   UNL     1      -0.498   1.378  23.892  0.00  0.00    -0.048 C 
ATOM     17  C   UNL     1      -0.208   2.077  23.563  0.00  0.00    +0.026 C 
ATOM     18  C   UNL     1      -1.284   1.332  24.137  0.00  0.00    -0.033 C 
ATOM     19  C   UNL     1      -1.574   0.633  24.466  0.00  0.00    +0.043 C 
ENDROOT
BRANCH   4   2
ATOM      1  C   UNL     1      -1.269  -0.866  25.686  0.00  0.00    +0.000 C 
ATOM      2  C   UNL     1      -1.365  -0.719  24.879  0.00  0.00    +0.000 C 
ATOM      3  C   UNL     1      -1.750  -1.271  24.403  0.00  0.00    +0.000 C 
ENDBRANCH   4   2
BRANCH   6   7
ATOM      7  C   UNL     1       0.785   0.772  23.732  0.00  0.00    +0.089 C 
BRANCH   7   8
ATOM      8  C   UNL     1       1.053   0.297  23.111  0.00  0.00    +0.226 C 
ATOM      9  O   UNL     1       0.532  -0.215  22.730  0.00  0.00    -0.275 OA
ATOM     10  N   UNL     1       1.842   0.337  22.873  0.00  0.00    -0.274 N 
ATOM     11  C   UNL     1       2.363   0.850  23.254  0.00  0.00    +0.125 C 
ATOM     12  C   UNL     1       3.152   0.890  23.015  0.00  0.00    +0.164 C 
ATOM     13  O   UNL     1       3.420   0.417  22.395  0.00  0.00    -0.350 OA
ATOM     14  C   UNL     1       2.898  -0.097  22.013  0.00  0.00    +0.164 C 
ATOM     15  C   UNL     1       2.110  -0.136  22.252  0.00  0.00    +0.125 C 
ENDBRANCH   7   8
ENDBRANCH   6   7
BRANCH  19  20
ATOM     20  C   UNL     1      -2.361   0.586  24.711  0.00  0.00    +0.121 C 
BRANCH  20  21
ATOM     21  N   UNL     1      -2.934   1.055  24.347  0.00  0.00    -0.187 NA
ATOM     22  C   UNL     1      -3.596   1.300  24.773  0.00  0.00    +0.344 C 
ATOM     23  O   UNL     1      -3.686   1.076  25.561  0.00  0.00    -0.249 OA
ATOM     24  N   UNL     1      -4.170   1.770  24.409  0.00  0.00    -0.161 NA
BRANCH  24  25
ATOM     25  C   UNL     1      -4.832   2.014  24.836  0.00  0.00    +0.075 A 
ATOM     26  C   UNL     1      -4.825   2.741  25.228  0.00  0.00    +0.017 A 
ATOM     27  C   UNL     1      -5.488   2.985  25.654  0.00  0.00    +0.001 A 
ATOM     28  C   UNL     1      -6.156   2.505  25.688  0.00  0.00    +0.000 A 
ATOM     29  C   UNL     1      -6.164   1.779  25.297  0.00  0.00    +0.001 A 
ATOM     30  C   UNL     1      -5.501   1.534  24.870  0.00  0.00    +0.017 A 
ENDBRANCH  24  25
ENDBRANCH  20  21
ENDBRANCH  19  20
TORSDOF 6
ENDMDL
MODEL 4
REMARK VINA RESULT:      -9.6      1.114      6.007
REMARK  Name = 
REMARK  6 active torsions:
REMARK  status: ('A' for Active; 'I' for Inactive)
REMARK    1  A    between atoms: C_2  and  C_4
REMARK    2  A    between atoms: C_6  and  C_7
REMARK    3  A    between atoms: C_7  and  C_8
REMARK    4  A    between atoms: C_19  and  C_20
REMARK    5  A    between atoms: C_20  and  N_21
REMARK    6  A    between atoms: N_24  and  C_25
REMARK                            x       y       z     vdW  Elec       q    Type
REMARK                         _______ _______ _______ _____ _____    ______ ____
ROOT
ATOM      4  C   UNL     1      -3.316   2.272  24.557  0.00  0.00    +0.006 C 
ATOM      5  C   UNL     1      -2.814   2.868  24.828  0.00  0.00    +0.005 C 
ATOM      6  C   UNL     1      -2.118   2.673  25.226  0.00  0.00    +0.027 C 
ATOM     16  C   UNL     1      -1.925   1.882  25.354  0.00  0.00    -0.048 C 
ATOM     17  C   UNL     1      -1.228   1.687  25.753  0.00  0.00    +0.026 C 
ATOM     18  C   UNL     1      -2.426   1.285  25.084  0.00  0.00    -0.033 C 
ATOM     19  C   UNL     1      -3.122   1.480  24.685  0.00  0.00    +0.043 C 
ENDROOT
BRANCH   4   2
ATOM      1  C   UNL     1      -3.991   2.631  23.350  0.00  0.00    +0.000 C 
ATOM      2  C   UNL     1      -4.011   2.467  24.159  0.00  0.00    +0.000 C 
ATOM      3  C   UNL     1      -4.726   2.498  24.568  0.00  0.00    +0.000 C 
ENDBRANCH   4   2
BRANCH   6   7
ATOM      7  C   UNL     1      -1.617   3.269  25.496  0.00  0.00    +0.089 C 
BRANCH   7   8
ATOM      8  C   UNL     1      -1.897   4.044  25.566  0.00  0.00    +0.226 C 
ATOM      9  O   UNL     1      -2.601   4.192  25.969  0.00  0.00    -0.275 OA
ATOM     10  N   UNL     1      -1.471   4.667  25.233  0.00  0.00    -0.274 N 
ATOM     11  C   UNL     1      -0.767   4.518  24.831  0.00  0.00    +0.125 C 
ATOM     12  C   UNL     1      -0.342   5.142  24.498  0.00  0.00    +0.164 C 
ATOM     13  O   UNL     1      -0.621   5.915  24.568  0.00  0.00    -0.350 OA
ATOM     14  C   UNL     1      -1.326   6.064  24.971  0.00  0.00    +0.164 C 
ATOM     15  C   UNL     1      -1.751   5.440  25.303  0.00  0.00    +0.125 C 
ENDBRANCH   7   8
ENDBRANCH   6   7
BRANCH  19  20
ATOM     20  C   UNL     1      -3.624   0.883  24.415  0.00  0.00    +0.121 C 
BRANCH  20  21
ATOM     21  N   UNL     1      -3.742   0.206  24.871  0.00  0.00    -0.187 NA
ATOM     22  C   UNL     1      -3.737  -0.537  24.514  0.00  0.00    +0.344 C 
ATOM     23  O   UNL     1      -3.614  -0.603  23.701  0.00  0.00    -0.249 OA
ATOM     24  N   UNL     1      -3.856  -1.215  24.970  0.00  0.00    -0.161 NA
BRANCH  24  25
ATOM     25  C   UNL     1      -3.851  -1.958  24.612  0.00  0.00    +0.075 A 
ATOM     26  C   UNL     1      -3.301  -2.527  24.850  0.00  0.00    +0.017 A 
ATOM     27  C   UNL     1      -3.296  -3.270  24.493  0.00  0.00    +0.001 A 
ATOM     28  C   UNL     1      -3.839  -3.445  23.898  0.00  0.00    +0.000 A 
ATOM     29  C   UNL     1      -4.389  -2.878  23.660  0.00  0.00    +0.001 A 
ATOM     30  C   UNL     1      -4.394  -2.134  24.018  0.00  0.00    +0.017 A 
ENDBRANCH  24  25
ENDBRANCH  20  21
ENDBRANCH  19  20
TORSDOF 6
ENDMDL
MODEL 5
REMARK VINA RESULT:      -9.5      0.928      2.024
REMARK  Name = 
REMARK  6 active torsions:
REMARK  status: ('A' for Active; 'I' for Inactive)
REMARK    1  A    between atoms: C_2  and  C_4
REMARK    2  A    between atoms: C_6  and  C_7
REMARK    3  A    between atoms: C_7  and  C_8
REMARK    4  A    between atoms: C_19  and  C_20
REMARK    5  A    between atoms: C_20  and  N_21
REMARK    6  A    between atoms: N_24  and  C_25
REMARK                            x       y       z     vdW  Elec       q    Type
REMARK                         _______ _______ _______ _____ _____    ______ ____
ROOT
ATOM      4  C   UNL     1      -1.971   0.335  24.717  0.00  0.00    +0.006 C 
ATOM      5  C   UNL     1      -2.520  -0.281  24.705  0.00  0.00    +0.005 C 
ATOM      6  C   UNL     1      -3.323  -0.121  24.799  0.00  0.00    +0.027 C 
ATOM     16  C   UNL     1      -3.579   0.655  24.905  0.00  0.00    -0.048 C 
ATOM     17  C   UNL     1      -4.384   0.816  24.999  0.00  0.00    +0.026 C 
ATOM     18  C   UNL     1      -3.032   1.273  24.917  0.00  0.00    -0.033 C 
ATOM     19  C   UNL     1      -2.228   1.113  24.823  0.00  0.00    +0.043 C 
ENDROOT
BRANCH   4   2
ATOM      1  C   UNL     1      -0.694   0.041  25.285  0.00  0.00    +0.000 C 
ATOM      2  C   UNL     1      -1.169   0.175  24.622  0.00  0.00    +0.000 C 
ATOM      3  C   UNL     1      -0.839   0.148  23.867  0.00  0.00    +0.000 C 
ENDBRANCH   4   2
BRANCH   6   7
ATOM      7  C   UNL     1      -3.871  -0.738  24.787  0.00  0.00    +0.089 C 
BRANCH   7   8
ATOM      8  C   UNL     1      -3.674  -1.471  25.113  0.00  0.00    +0.226 C 
ATOM      9  O   UNL     1      -3.351  -1.511  25.870  0.00  0.00    -0.275 OA
ATOM     10  N   UNL     1      -3.801  -2.162  24.680  0.00  0.00    -0.274 N 
ATOM     11  C   UNL     1      -4.124  -2.121  23.922  0.00  0.00    +0.125 C 
ATOM     12  C   UNL     1      -4.251  -2.812  23.489  0.00  0.00    +0.164 C 
ATOM     13  O   UNL     1      -4.055  -3.544  23.815  0.00  0.00    -0.350 OA
ATOM     14  C   UNL     1      -3.731  -3.585  24.574  0.00  0.00    +0.164 C 
ATOM     15  C   UNL     1      -3.605  -2.894  25.005  0.00  0.00    +0.125 C 
ENDBRANCH   7   8
ENDBRANCH   6   7
BRANCH  19  20
ATOM     20  C   UNL     1      -1.680   1.730  24.835  0.00  0.00    +0.121 C 
BRANCH  20  21
ATOM     21  N   UNL     1      -1.804   2.381  25.325  0.00  0.00    -0.187 NA
ATOM     22  C   UNL     1      -1.605   3.137  25.063  0.00  0.00    +0.344 C 
ATOM     23  O   UNL     1      -1.282   3.242  24.312  0.00  0.00    -0.249 OA
ATOM     24  N   UNL     1      -1.729   3.790  25.553  0.00  0.00    -0.161 NA
BRANCH  24  25
ATOM     25  C   UNL     1      -1.530   4.546  25.291  0.00  0.00    +0.075 A 
ATOM     26  C   UNL     1      -2.099   5.144  25.287  0.00  0.00    +0.017 A 
ATOM     27  C   UNL     1      -1.900   5.900  25.024  0.00  0.00    +0.001 A 
ATOM     28  C   UNL     1      -1.134   6.059  24.766  0.00  0.00    +0.000 A 
ATOM     29  C   UNL     1      -0.565   5.462  24.770  0.00  0.00    +0.001 A 
ATOM     30  C   UNL     1      -0.763   4.705  25.033  0.00  0.00    +0.017 A 
ENDBRANCH  24  25
ENDBRANCH  20  21
ENDBRANCH  19  20
TORSDOF 6
ENDMDL
