MODEL 1
REMARK VINA RESULT:      -9.9      0.000      0.000
REMARK  Name = 
REMARK  5 active torsions:
REMARK  status: ('A' for Active; 'I' for Inactive)
REMARK    1  A    between atoms: C_4  and  C_13
REMARK    2  A    between atoms: C_6  and  C_8
REMARK    3  A    between atoms: C_20  and  C_21
REMARK    4  A    between atoms: C_21  and  N_22
REMARK    5  A    between atoms: N_22  and  S_23
REMARK                            x       y       z     vdW  Elec       q    Type
REMARK                         _______ _______ _______ _____ _____    ______ ____
ROOT
ATOM     13  C   UNL     1      -3.584   1.153  24.205  0.00  0.00    +0.056 C 
ATOM     14  C   UNL     1      -3.177   0.737  23.687  0.00  0.00    +0.078 C 
ATOM     15  N   UNL     1      -3.742   0.443  24.213  0.00  0.00    -0.272 NA
ATOM     16  C   UNL     1      -4.101   1.256  24.769  0.00  0.00    +0.072 C 
ATOM     17  C   UNL     1      -4.493   1.498  25.232  0.00  0.00    +0.018 C 
ATOM     18  C   UNL     1      -4.137   0.856  24.717  0.00  0.00    +0.010 C 
ATOM     19  C   UNL     1      -4.438   0.043  24.852  0.00  0.00    +0.018 C 
ATOM     20  C   UNL     1      -4.060  -0.400  24.358  0.00  0.00    +0.077 C 
ENDROOT
BRANCH  13   4
ATOM      1  C   UNL     1      -4.401   3.833  23.642  0.00  0.00    +0.074 C 
ATOM      2  C   UNL     1      -3.849   3.305  23.953  0.00  0.00    +0.139 A 
ATOM      3  N   UNL     1      -3.993   2.494  23.924  0.00  0.00    -0.235 NA
ATOM      4  C   UNL     1      -3.440   1.965  24.235  0.00  0.00    +0.063 A 
ATOM      5  C   UNL     1      -2.745   2.248  24.575  0.00  0.00    +0.034 A 
ATOM      6  C   UNL     1      -2.601   3.060  24.604  0.00  0.00    +0.090 A 
ATOM      7  N   UNL     1      -3.153   3.589  24.293  0.00  0.00    -0.230 NA
BRANCH   6   8
ATOM      8  C   UNL     1      -1.905   3.344  24.944  0.00  0.00    +0.047 A 
ATOM      9  C   UNL     1      -1.828   3.651  25.707  0.00  0.00    +0.009 A 
ATOM     10  C   UNL     1      -1.040   3.868  25.816  0.00  0.00    +0.008 A 
ATOM     11  C   UNL     1      -0.629   3.696  25.122  0.00  0.00    +0.035 A 
ATOM     12  S   UNL     1      -1.164   3.372  24.583  0.00  0.00    -0.085 S 
ENDBRANCH   6   8
ENDBRANCH  13   4
BRANCH  20  21
ATOM     21  C   UNL     1      -3.983  -1.181  24.105  0.00  0.00    +0.131 C 
BRANCH  21  22
ATOM     22  N   UNL     1      -3.968  -1.794  24.657  0.00  0.00    -0.081 NA
BRANCH  22  23
ATOM     23  S   UNL     1      -3.728  -2.549  24.427  0.00  0.00    +0.059 S 
ATOM     24  C   UNL     1      -3.488  -3.304  24.198  0.00  0.00    +0.197 C 
ATOM     25  O   UNL     1      -3.149  -2.543  25.015  0.00  0.00    -0.156 OA
ATOM     26  O   UNL     1      -4.307  -2.556  23.840  0.00  0.00    -0.156 OA
ENDBRANCH  22  23
ENDBRANCH  21  22
ENDBRANCH  20  21
TORSDOF 5
ENDMDL
MODEL 2
REMARK VINA RESULT:      -9.1      2.813      5.415
REMARK  Name = 
REMARK  5 active torsions:
REMARK  status: ('A' for Active; 'I' for Inactive)
REMARK    1  A    between atoms: C_4  and  C_13
REMARK    2  A    between atoms: C_6  and  C_8
REMARK    3  A    between atoms: C_20  and  C_21
REMARK    4  A    between atoms: C_21  and  N_22
REMARK    5  A    between atoms: N_22  and  S_23
REMARK                            x       y       z     vdW  Elec       q    Type
REMARK                         _______ _______ _______ _____ _____    ______ ____
ROOT
ATOM     13  C   UNL     1      -1.390   0.694  25.017  0.00  0.00    +0.056 C 
ATOM     14  C   UNL     1      -1.716   1.047  25.629  0.00  0.00    +0.078 C 
ATOM     15  N   UNL     1      -1.301   1.415  25.017  0.00  0.00    -0.272 NA
ATOM     16  C   UNL     1      -0.993   0.663  24.356  0.00  0.00    +0.072 C 
ATOM     17  C   UNL     1      -0.686   0.477  23.810  0.00  0.00    +0.018 C 
ATOM     18  C   UNL     1      -0.984   1.062  24.421  0.00  0.00    +0.010 C 
ATOM     19  C   UNL     1      -0.791   1.905  24.274  0.00  0.00    +0.018 C 
ATOM     20  C   UNL     1      -1.097   2.290  24.858  0.00  0.00    +0.077 C 
ENDROOT
BRANCH  13   4
ATOM      1  C   UNL     1      -0.250  -1.913  25.299  0.00  0.00    +0.074 C 
ATOM      2  C   UNL     1      -0.893  -1.430  25.113  0.00  0.00    +0.139 A 
ATOM      3  N   UNL     1      -0.820  -0.610  25.158  0.00  0.00    -0.235 NA
ATOM      4  C   UNL     1      -1.463  -0.128  24.972  0.00  0.00    +0.063 A 
ATOM      5  C   UNL     1      -2.179  -0.465  24.742  0.00  0.00    +0.034 A 
ATOM      6  C   UNL     1      -2.252  -1.285  24.697  0.00  0.00    +0.090 A 
ATOM      7  N   UNL     1      -1.610  -1.768  24.882  0.00  0.00    -0.230 NA
BRANCH   6   8
ATOM      8  C   UNL     1      -2.968  -1.624  24.466  0.00  0.00    +0.047 A 
ATOM      9  C   UNL     1      -3.566  -1.250  24.038  0.00  0.00    +0.009 A 
ATOM     10  C   UNL     1      -4.179  -1.790  23.930  0.00  0.00    +0.008 A 
ATOM     11  C   UNL     1      -3.962  -2.499  24.291  0.00  0.00    +0.035 A 
ATOM     12  S   UNL     1      -3.213  -2.397  24.623  0.00  0.00    -0.085 S 
ENDBRANCH   6   8
ENDBRANCH  13   4
BRANCH  20  21
ATOM     21  C   UNL     1      -1.189   3.050  25.164  0.00  0.00    +0.131 C 
BRANCH  21  22
ATOM     22  N   UNL     1      -1.319   3.687  24.656  0.00  0.00    -0.081 NA
BRANCH  22  23
ATOM     23  S   UNL     1      -1.430   4.444  24.965  0.00  0.00    +0.059 S 
ATOM     24  C   UNL     1      -1.542   5.201  25.274  0.00  0.00    +0.197 C 
ATOM     25  O   UNL     1      -2.247   4.333  24.940  0.00  0.00    -0.156 OA
ATOM     26  O   UNL     1      -0.614   4.555  24.990  0.00  0.00    -0.156 OA
ENDBRANCH  22  23
ENDBRANCH  21  22
ENDBRANCH  20  21
TORSDOF 5
ENDMDL
MODEL 3
REMARK VINA RESULT:      -9.1      2.789      4.539
REMARK  Name = 
REMARK  5 active torsions:
REMARK  status: ('A' for Active; 'I' for Inactive)
REMARK    1  A    between atoms: C_4  and  C_13
REMARK    2  A    between atoms: C_6  and  C_8
REMARK    3  A    between atoms: C_20  and  C_21
REMARK    4  A    between atoms: C_21  and  N_22
REMARK    5  A    between atoms: N_22  and  S_23
REMARK                            x       y       z     vdW  Elec       q    Type
REMARK                         _______ _______ _______ _____ _____    ______ ____
ROOT
ATOM     13  C   UNL     1      -3.864  -0.065  24.854  0.00  0.00    +0.056 C 
ATOM     14  C   UNL     1      -4.105   0.097  25.576  0.00  0.00    +0.078 C 
ATOM     15  N   UNL     1      -4.214   0.570  24.909  0.00  0.00    -0.272 NA
ATOM     16  C   UNL     1      -3.775   0.069  24.099  0.00  0.00    +0.072 C 
ATOM     17  C   UNL     1      -3.623   0.039  23.464  0.00  0.00    +0.018 C 
ATOM     18  C   UNL     1      -3.975   0.404  24.204  0.00  0.00    +0.010 C 
ATOM     19  C   UNL     1      -4.368   1.182  24.100  0.00  0.00    +0.018 C 
ATOM     20  C   UNL     1      -4.620   1.379  24.793  0.00  0.00    +0.077 C 
ENDROOT
BRANCH  13   4
ATOM      1  C   UNL     1      -3.892  -2.849  24.206  0.00  0.00    +0.074 C 
ATOM      2  C   UNL     1      -3.475  -2.169  24.417  0.00  0.00    +0.139 A 
ATOM      3  N   UNL     1      -3.878  -1.458  24.530  0.00  0.00    -0.235 NA
ATOM      4  C   UNL     1      -3.461  -0.777  24.741  0.00  0.00    +0.063 A 
ATOM      5  C   UNL     1      -2.643  -0.808  24.839  0.00  0.00    +0.034 A 
ATOM      6  C   UNL     1      -2.241  -1.519  24.726  0.00  0.00    +0.090 A 
ATOM      7  N   UNL     1      -2.656  -2.199  24.515  0.00  0.00    -0.230 NA
BRANCH   6   8
ATOM      8  C   UNL     1      -1.422  -1.550  24.823  0.00  0.00    +0.047 A 
ATOM      9  C   UNL     1      -0.858  -1.371  24.248  0.00  0.00    +0.009 A 
ATOM     10  C   UNL     1      -0.112  -1.476  24.581  0.00  0.00    +0.008 A 
ATOM     11  C   UNL     1      -0.213  -1.720  25.363  0.00  0.00    +0.035 A 
ATOM     12  S   UNL     1      -1.023  -1.766  25.512  0.00  0.00    -0.085 S 
ENDBRANCH   6   8
ENDBRANCH  13   4
BRANCH  20  21
ATOM     21  C   UNL     1      -5.023   1.973  25.199  0.00  0.00    +0.131 C 
BRANCH  21  22
ATOM     22  N   UNL     1      -4.955   2.758  24.955  0.00  0.00    -0.081 NA
BRANCH  22  23
ATOM     23  S   UNL     1      -5.273   3.362  25.419  0.00  0.00    +0.059 S 
ATOM     24  C   UNL     1      -5.590   3.967  25.883  0.00  0.00    +0.197 C 
ATOM     25  O   UNL     1      -4.540   3.742  25.423  0.00  0.00    -0.156 OA
ATOM     26  O   UNL     1      -6.004   2.982  25.414  0.00  0.00    -0.156 OA
ENDBRANCH  22  23
ENDBRANCH  21  22
ENDBRANCH  20  21
TORSDOF 5
ENDMDL
MODEL 4
REMARK VINA RESULT:      -8.9      2.902      3.765
REMARK  Name = 
REMARK  5 active torsions:
REMARK  status: ('A' for Active; 'I' for Inactive)
REMARK    1  A    between atoms: C_4  and  C_13
REMARK    2  A    between atoms: C_6  and  C_8
REMARK    3  A    between atoms: C_20  and  C_21
REMARK    4  A    between atoms: C_21  and  N_22
REMARK    5  A    between atoms: N_22  and  S_23
REMARK                            x       y       z     vdW  Elec       q    Type
REMARK                         _______ _______ _______ _____ _____    ______ ____
ROOT
ATOM     13  C   UNL     1      -1.529   2.282  24.411  0.00  0.00    +0.056 C 
ATOM     14  C   UNL     1      -1.549   2.126  23.649  0.00  0.00    +0.078 C 
ATOM     15  N   UNL     1      -1.054   1.772  24.207  0.00  0.00    -0.272 NA
ATOM     16  C   UNL     1      -1.277   2.201  25.136  0.00  0.00    +0.072 C 
ATOM     17  C   UNL     1      -1.174   2.248  25.780  0.00  0.00    +0.018 C 
ATOM     18  C   UNL     1      -1.041   1.929  24.952  0.00  0.00    +0.010 C 
ATOM     19  C   UNL     1      -0.424   1.310  24.872  0.00  0.00    +0.018 C 
ATOM     20  C   UNL     1      -0.411   1.128  24.131  0.00  0.00    +0.077 C 
ENDROOT
BRANCH  13   4
ATOM      1  C   UNL     1      -2.023   4.944  25.329  0.00  0.00    +0.074 C 
ATOM      2  C   UNL     1      -2.299   4.187  25.152  0.00  0.00    +0.139 A 
ATOM      3  N   UNL     1      -1.777   3.613  24.870  0.00  0.00    -0.235 NA
ATOM      4  C   UNL     1      -2.052   2.856  24.693  0.00  0.00    +0.063 A 
ATOM      5  C   UNL     1      -2.849   2.672  24.798  0.00  0.00    +0.034 A 
ATOM      6  C   UNL     1      -3.371   3.245  25.080  0.00  0.00    +0.090 A 
ATOM      7  N   UNL     1      -3.096   4.002  25.257  0.00  0.00    -0.230 NA
BRANCH   6   8
ATOM      8  C   UNL     1      -4.168   3.061  25.185  0.00  0.00    +0.047 A 
ATOM      9  C   UNL     1      -4.637   2.622  24.667  0.00  0.00    +0.009 A 
ATOM     10  C   UNL     1      -5.395   2.574  24.987  0.00  0.00    +0.008 A 
ATOM     11  C   UNL     1      -5.396   2.984  25.703  0.00  0.00    +0.035 A 
ATOM     12  S   UNL     1      -4.638   3.285  25.825  0.00  0.00    -0.085 S 
ENDBRANCH   6   8
ENDBRANCH  13   4
BRANCH  20  21
ATOM     21  C   UNL     1      -0.037   0.638  23.584  0.00  0.00    +0.131 C 
BRANCH  21  22
ATOM     22  N   UNL     1       0.759   0.442  23.681  0.00  0.00    -0.081 NA
BRANCH  22  23
ATOM     23  S   UNL     1       1.164   0.052  23.078  0.00  0.00    +0.059 S 
ATOM     24  C   UNL     1       1.570  -0.337  22.474  0.00  0.00    +0.197 C 
ATOM     25  O   UNL     1       1.690   0.686  23.023  0.00  0.00    -0.156 OA
ATOM     26  O   UNL     1       0.638  -0.580  23.132  0.00  0.00    -0.156 OA
ENDBRANCH  22  23
ENDBRANCH  21  22
ENDBRANCH  20  21
TORSDOF 5
ENDMDL
MODEL 5
REMARK VINA RESULT:      -8.8      1.674      2.248
REMARK  Name = 
REMARK  5 active torsions:
REMARK  status: ('A' for Active; 'I' for Inactive)
REMARK    1  A    between atoms: C_4  and  C_13
REMARK    2  A    between atoms: C_6  and  C_8
REMARK    3  A    between atoms: C_20  and  C_21
REMARK    4  A    between atoms: C_21  and  N_22
REMARK    5  A    between atoms: N_22  and  S_23
REMARK                            x       y       z     vdW  Elec       q    Type
REMARK                         _______ _______ _______ _____ _____    ______ ____
ROOT
ATOM     13  C   UNL     1      -1.769   0.906  24.613  0.00  0.00    +0.056 C 
ATOM     14  C   UNL     1      -2.258   0.655  24.063  0.00  0.00    +0.078 C 
ATOM     15  N   UNL     1      -1.867   0.186  24.618  0.00  0.00    -0.272 NA
ATOM     16  C   UNL     1      -1.287   0.827  25.211  0.00  0.00    +0.072 C 
ATOM     17  C   UNL     1      -0.868   0.921  25.704  0.00  0.00    +0.018 C 
ATOM     18  C   UNL     1      -1.389   0.440  25.155  0.00  0.00    +0.010 C 
ATOM     19  C   UNL     1      -1.398  -0.427  25.293  0.00  0.00    +0.018 C 
ATOM     20  C   UNL     1      -1.871  -0.714  24.768  0.00  0.00    +0.077 C 
ENDROOT
BRANCH  13   4
ATOM      1  C   UNL     1      -0.086   3.148  24.052  0.00  0.00    +0.074 C 
ATOM      2  C   UNL     1      -0.783   2.839  24.368  0.00  0.00    +0.139 A 
ATOM      3  N   UNL     1      -0.927   2.028  24.333  0.00  0.00    -0.235 NA
ATOM      4  C   UNL     1      -1.624   1.719  24.649  0.00  0.00    +0.063 A 
ATOM      5  C   UNL     1      -2.176   2.221  24.999  0.00  0.00    +0.034 A 
ATOM      6  C   UNL     1      -2.032   3.032  25.035  0.00  0.00    +0.090 A 
ATOM      7  N   UNL     1      -1.336   3.341  24.719  0.00  0.00    -0.230 NA
BRANCH   6   8
ATOM      8  C   UNL     1      -2.584   3.535  25.385  0.00  0.00    +0.047 A 
ATOM      9  C   UNL     1      -2.495   3.924  26.107  0.00  0.00    +0.009 A 
ATOM     10  C   UNL     1      -3.177   4.367  26.245  0.00  0.00    +0.008 A 
ATOM     11  C   UNL     1      -3.688   4.251  25.608  0.00  0.00    +0.035 A 
ATOM     12  S   UNL     1      -3.322   3.737  25.077  0.00  0.00    -0.085 S 
ENDBRANCH   6   8
ENDBRANCH  13   4
BRANCH  20  21
ATOM     21  C   UNL     1      -2.196  -1.422  24.496  0.00  0.00    +0.131 C 
BRANCH  21  22
ATOM     22  N   UNL     1      -2.573  -1.932  25.023  0.00  0.00    -0.081 NA
BRANCH  22  23
ATOM     23  S   UNL     1      -3.055  -2.537  24.736  0.00  0.00    +0.059 S 
ATOM     24  C   UNL     1      -3.538  -3.142  24.450  0.00  0.00    +0.197 C 
ATOM     25  O   UNL     1      -3.673  -2.269  25.213  0.00  0.00    -0.156 OA
ATOM     26  O   UNL     1      -2.438  -2.805  24.260  0.00  0.00    -0.156 OA
ENDBRANCH  22  23
ENDBRANCH  21  22
ENDBRANCH  20  21
TORSDOF 5
ENDMDL
MODEL 6
REMARK VINA RESULT:      -8.6      2.368      4.876
REMARK  Name = 
REMARK  5 active torsions:
REMARK  status: ('A' for Active; 'I' for Inactive)
REMARK    1  A    between atoms: C_4  and  C_13
REMARK    2  A    between atoms: C_6  and  C_8
REMARK    3  A    between atoms: C_20  and  C_21
REMARK    4  A    between atoms: C_21  and  N_22
REMARK    5  A    between atoms: N_22  and  S_23
REMARK                            x       y       z     vdW  Elec       q    Type
REMARK                         _______ _______ _______ _____ _____    ______ ____
ROOT
ATOM     13  C   UNL     1      -3.132   1.776  24.732  0.00  0.00    +0.056 C 
ATOM     14  C   UNL     1      -2.679   1.901  25.352  0.00  0.00    +0.078 C 
ATOM     15  N   UNL     1      -2.628   2.289  24.625  0.00  0.00    -0.272 NA
ATOM     16  C   UNL     1      -3.377   1.891  24.009  0.00  0.00    +0.072 C 
ATOM     17  C   UNL     1      -3.691   1.872  23.436  0.00  0.00    +0.018 C 
ATOM     18  C   UNL     1      -3.076   2.161  24.022  0.00  0.00    +0.010 C 
ATOM     19  C   UNL     1      -2.537   2.791  23.735  0.00  0.00    +0.018 C 
ATOM     20  C   UNL     1      -2.071   2.944  24.320  0.00  0.00    +0.077 C 
ENDROOT
BRANCH  13   4
ATOM      1  C   UNL     1      -5.861   1.075  25.216  0.00  0.00    +0.074 C 
ATOM      2  C   UNL     1      -5.085   0.851  25.046  0.00  0.00    +0.139 A 
ATOM      3  N   UNL     1      -4.497   1.425  24.974  0.00  0.00    -0.235 NA
ATOM      4  C   UNL     1      -3.721   1.201  24.804  0.00  0.00    +0.063 A 
ATOM      5  C   UNL     1      -3.533   0.405  24.705  0.00  0.00    +0.034 A 
ATOM      6  C   UNL     1      -4.121  -0.169  24.777  0.00  0.00    +0.090 A 
ATOM      7  N   UNL     1      -4.897   0.054  24.947  0.00  0.00    -0.230 NA
BRANCH   6   8
ATOM      8  C   UNL     1      -3.935  -0.967  24.679  0.00  0.00    +0.047 A 
ATOM      9  C   UNL     1      -4.111  -1.428  24.018  0.00  0.00    +0.009 A 
ATOM     10  C   UNL     1      -3.825  -2.189  24.154  0.00  0.00    +0.008 A 
ATOM     11  C   UNL     1      -3.471  -2.199  24.899  0.00  0.00    +0.035 A 
ATOM     12  S   UNL     1      -3.539  -1.444  25.224  0.00  0.00    -0.085 S 
ENDBRANCH   6   8
ENDBRANCH  13   4
BRANCH  20  21
ATOM     21  C   UNL     1      -1.437   3.421  24.544  0.00  0.00    +0.131 C 
BRANCH  21  22
ATOM     22  N   UNL     1      -1.572   4.117  24.966  0.00  0.00    -0.081 NA
BRANCH  22  23
ATOM     23  S   UNL     1      -1.019   4.728  24.940  0.00  0.00    +0.059 S 
ATOM     24  C   UNL     1      -0.466   5.340  24.915  0.00  0.00    +0.197 C 
ATOM     25  O   UNL     1      -1.626   5.280  25.028  0.00  0.00    -0.156 OA
ATOM     26  O   UNL     1      -0.412   4.177  24.853  0.00  0.00    -0.156 OA
ENDBRANCH  22  23
ENDBRANCH  21  22
ENDBRANCH  20  21
TORSDOF 5
ENDMDL
MODEL 7
REMARK VINA RESULT:      -8.5      2.825      4.509
REMARK  Name = 
REMARK  5 active torsions:
REMARK  status: ('A' for Active; 'I' for Inactive)
REMARK    1  A    between atoms: C_4  and  C_13
REMARK    2  A    between atoms: C_6  and  C_8
REMARK    3  A    between atoms: C_20  and  C_21
REMARK    4  A    between atoms: C_21  and  N_22
REMARK    5  A    between atoms: N_22  and  S_23
REMARK                            x       y       z     vdW  Elec       q    Type
REMARK                         _______ _______ _______ _____ _____    ______ ____
ROOT
ATOM     13  C   UNL     1      -2.111   1.581  24.491  0.00  0.00    +0.056 C 
ATOM     14  C   UNL     1      -2.229   1.824  25.221  0.00  0.00    +0.078 C 
ATOM     15  N   UNL     1      -2.662   2.050  24.556  0.00  0.00    -0.272 NA
ATOM     16  C   UNL     1      -2.252   1.547  23.733  0.00  0.00    +0.072 C 
ATOM     17  C   UNL     1      -2.246   1.415  23.093  0.00  0.00    +0.018 C 
ATOM     18  C   UNL     1      -2.541   1.807  23.844  0.00  0.00    +0.010 C 
ATOM     19  C   UNL     1      -3.223   2.352  23.752  0.00  0.00    +0.018 C 
ATOM     20  C   UNL     1      -3.372   2.615  24.453  0.00  0.00    +0.077 C 
ENDROOT
BRANCH  13   4
ATOM      1  C   UNL     1       0.557   1.041  23.618  0.00  0.00    +0.074 C 
ATOM      2  C   UNL     1      -0.160   0.777  23.929  0.00  0.00    +0.139 A 
ATOM      3  N   UNL     1      -0.776   1.310  24.055  0.00  0.00    -0.235 NA
ATOM      4  C   UNL     1      -1.493   1.046  24.366  0.00  0.00    +0.063 A 
ATOM      5  C   UNL     1      -1.594   0.250  24.551  0.00  0.00    +0.034 A 
ATOM      6  C   UNL     1      -0.978  -0.284  24.426  0.00  0.00    +0.090 A 
ATOM      7  N   UNL     1      -0.261  -0.021  24.115  0.00  0.00    -0.230 NA
BRANCH   6   8
ATOM      8  C   UNL     1      -1.078  -1.082  24.612  0.00  0.00    +0.047 A 
ATOM      9  C   UNL     1      -1.483  -1.638  24.156  0.00  0.00    +0.009 A 
ATOM     10  C   UNL     1      -1.447  -2.363  24.547  0.00  0.00    +0.008 A 
ATOM     11  C   UNL     1      -1.019  -2.255  25.245  0.00  0.00    +0.035 A 
ATOM     12  S   UNL     1      -0.792  -1.463  25.285  0.00  0.00    -0.085 S 
ENDBRANCH   6   8
ENDBRANCH  13   4
BRANCH  20  21
ATOM     21  C   UNL     1      -3.877   3.115  24.871  0.00  0.00    +0.131 C 
BRANCH  21  22
ATOM     22  N   UNL     1      -4.694   3.039  24.789  0.00  0.00    -0.081 NA
BRANCH  22  23
ATOM     23  S   UNL     1      -5.198   3.443  25.302  0.00  0.00    +0.059 S 
ATOM     24  C   UNL     1      -5.704   3.845  25.815  0.00  0.00    +0.197 C 
ATOM     25  O   UNL     1      -5.594   2.737  25.466  0.00  0.00    -0.156 OA
ATOM     26  O   UNL     1      -4.804   4.147  25.137  0.00  0.00    -0.156 OA
ENDBRANCH  22  23
ENDBRANCH  21  22
ENDBRANCH  20  21
TORSDOF 5
ENDMDL
