MODEL 1
REMARK VINA RESULT:     -10.9      0.000      0.000
REMARK  Name = 
REMARK  10 active torsions:
REMARK  status: ('A' for Active; 'I' for Inactive)
REMARK    1  A    between atoms: C_2  and  C_4
REMARK    2  A    between atoms: C_4  and  C_5
REMARK    3  A    between atoms: C_4  and  N_13
REMARK    4  A    between atoms: C_5  and  C_6
REMARK    5  A    between atoms: C_14  and  C_16
REMARK    6  A    between atoms: C_23  and  N_25
REMARK    7  A    between atoms: C_26  and  C_28
REMARK    8  A    between atoms: C_28  and  C_29
REMARK    9  A    between atoms: C_29  and  C_30
REMARK   10  A    between atoms: C_30  and  C_31
REMARK                            x       y       z     vdW  Elec       q    Type
REMARK                         _______ _______ _______ _____ _____    ______ ____
ROOT
ATOM     16  C   UNL     1      -0.873   0.349  25.359  0.00  0.00    +0.200 C 
ATOM     17  O   UNL     1      -1.421   0.280  25.971  0.00  0.00    -0.216 OA
ATOM     18  C   UNL     1      -0.375   0.137  24.736  0.00  0.00    +0.075 C 
ATOM     19  C   UNL     1       0.078   0.711  24.356  0.00  0.00    +0.187 C 
ATOM     20  O   UNL     1       0.576   0.499  23.734  0.00  0.00    -0.220 OA
ATOM     21  C   UNL     1       0.035   1.498  24.599  0.00  0.00    +0.202 C 
ATOM     22  O   UNL     1       0.489   2.073  24.218  0.00  0.00    -0.219 OA
ATOM     23  C   UNL     1      -0.463   1.711  25.222  0.00  0.00    +0.131 C 
ATOM     24  C   UNL     1      -0.916   1.137  25.601  0.00  0.00    +0.064 C 
ENDROOT
BRANCH  16  14
ATOM     13  N   UNL     1      -1.578  -0.761  24.800  0.00  0.00    -0.195 NA
ATOM     14  C   UNL     1      -1.020  -0.462  25.329  0.00  0.00    +0.269 C 
ATOM     15  O   UNL     1      -0.609  -0.974  25.828  0.00  0.00    -0.271 OA
BRANCH  13   4
ATOM      4  C   UNL     1      -1.725  -1.572  24.770  0.00  0.00    +0.179 C 
BRANCH   4   2
ATOM      1  N   UNL     1      -0.834  -2.689  24.752  0.00  0.00    -0.086 NA
ATOM      2  C   UNL     1      -1.211  -2.069  24.359  0.00  0.00    +0.281 C 
ATOM      3  O   UNL     1      -1.073  -1.947  23.555  0.00  0.00    -0.270 OA
ENDBRANCH   4   2
BRANCH   4   5
ATOM      5  C   UNL     1      -2.386  -1.886  25.151  0.00  0.00    +0.057 C 
BRANCH   5   6
ATOM      6  C   UNL     1      -3.082  -2.019  24.728  0.00  0.00    -0.020 A 
ATOM      7  C   UNL     1      -3.536  -1.381  24.470  0.00  0.00    -0.001 A 
ATOM      8  C   UNL     1      -4.232  -1.514  24.047  0.00  0.00    +0.042 A 
ATOM      9  C   UNL     1      -4.474  -2.286  23.883  0.00  0.00    +0.196 A 
ATOM     10  O   UNL     1      -5.169  -2.420  23.460  0.00  0.00    -0.287 OA
ATOM     11  C   UNL     1      -4.019  -2.924  24.141  0.00  0.00    +0.042 A 
ATOM     12  C   UNL     1      -3.323  -2.790  24.564  0.00  0.00    -0.001 A 
ENDBRANCH   5   6
ENDBRANCH   4   5
ENDBRANCH  13   4
ENDBRANCH  16  14
BRANCH  23  25
ATOM     25  N   UNL     1      -0.506   2.499  25.464  0.00  0.00    -0.204 NA
ATOM     26  C   UNL     1      -1.196   2.932  25.339  0.00  0.00    +0.241 C 
ATOM     27  O   UNL     1      -1.844   2.578  24.970  0.00  0.00    -0.273 OA
BRANCH  26  28
ATOM     28  C   UNL     1      -1.238   3.720  25.581  0.00  0.00    +0.087 C 
BRANCH  28  29
ATOM     29  C   UNL     1      -1.954   4.129  25.530  0.00  0.00    +0.019 C 
ATOM     34  C   UNL     1      -2.149   3.699  26.206  0.00  0.00    +0.001 C 
ATOM     35  C   UNL     1      -2.912   3.914  26.433  0.00  0.00    +0.000 C 
ATOM     36  C   UNL     1      -3.188   4.477  25.896  0.00  0.00    +0.000 C 
ATOM     37  C   UNL     1      -2.595   4.610  25.338  0.00  0.00    +0.001 C 
BRANCH  29  30
ATOM     30  C   UNL     1      -1.608   4.473  24.864  0.00  0.00    +0.115 C 
BRANCH  30  31
ATOM     31  C   UNL     1      -1.242   5.210  24.924  0.00  0.00    +0.365 C 
ATOM     32  O   UNL     1      -1.698   5.890  25.025  0.00  0.00    -0.246 OA
ATOM     33  O   UNL     1      -0.420   5.267  24.884  0.00  0.00    -0.246 OA
ENDBRANCH  30  31
ENDBRANCH  29  30
ENDBRANCH  28  29
ENDBRANCH  26  28
ENDBRANCH  23  25
TORSDOF 10
ENDMDL
MODEL 2
REMARK VINA RESULT:     -10.7      2.028      6.119
REMARK  Name = 
REMARK  10 active torsions:
REMARK  status: ('A' for Active; 'I' for Inactive)
REMARK    1  A    between atoms: C_2  and  C_4
REMARK    2  A    between atoms: C_4  and  C_5
REMARK    3  A    between atoms: C_4  and  N_13
REMARK    4  A    between atoms: C_5  and  C_6
REMARK    5  A    between atoms: C_14  and  C_16
REMARK    6  A    between atoms: C_23  and  N_25
REMARK    7  A    between atoms: C_26  and  C_28
REMARK    8  A    between atoms: C_28  and  C_29
REMARK    9  A    between atoms: C_29  and  C_30
REMARK   10  A    between atoms: C_30  and  C_31
REMARK                            x       y       z     vdW  Elec       q    Type
REMARK                         _______ _______ _______ _____ _____    ______ ____
ROOT
ATOM     16  C   UNL     1      -3.799   2.239  24.655  0.00  0.00    +0.200 C 
ATOM     17  O   UNL     1      -3.056   2.021  24.371  0.00  0.00    -0.216 OA
ATOM     18  C   UNL     1      -4.409   2.708  24.951  0.00  0.00    +0.075 C 
ATOM     19  C   UNL     1      -5.146   2.375  25.113  0.00  0.00    +0.187 C 
ATOM     20  O   UNL     1      -5.755   2.846  25.409  0.00  0.00    -0.220 OA
ATOM     21  C   UNL     1      -5.274   1.572  24.978  0.00  0.00    +0.202 C 
ATOM     22  O   UNL     1      -6.012   1.239  25.140  0.00  0.00    -0.219 OA
ATOM     23  C   UNL     1      -4.665   1.101  24.682  0.00  0.00    +0.131 C 
ATOM     24  C   UNL     1      -3.928   1.434  24.520  0.00  0.00    +0.064 C 
ENDROOT
BRANCH  16  14
ATOM     13  N   UNL     1      -2.806   3.085  25.237  0.00  0.00    -0.195 NA
ATOM     14  C   UNL     1      -3.413   2.966  24.691  0.00  0.00    +0.269 C 
ATOM     15  O   UNL     1      -3.634   3.576  24.181  0.00  0.00    -0.271 OA
BRANCH  13   4
ATOM      4  C   UNL     1      -2.420   3.813  25.273  0.00  0.00    +0.179 C 
BRANCH   4   2
ATOM      1  N   UNL     1      -2.804   5.182  25.411  0.00  0.00    -0.086 NA
ATOM      2  C   UNL     1      -2.735   4.424  25.729  0.00  0.00    +0.281 C 
ATOM      3  O   UNL     1      -2.981   4.278  26.502  0.00  0.00    -0.270 OA
ENDBRANCH   4   2
BRANCH   4   5
ATOM      5  C   UNL     1      -1.720   3.929  24.854  0.00  0.00    +0.057 C 
BRANCH   5   6
ATOM      6  C   UNL     1      -1.045   3.495  25.047  0.00  0.00    -0.020 A 
ATOM      7  C   UNL     1      -0.853   3.360  25.838  0.00  0.00    -0.001 A 
ATOM      8  C   UNL     1      -0.179   2.926  26.031  0.00  0.00    +0.042 A 
ATOM      9  C   UNL     1       0.304   2.626  25.432  0.00  0.00    +0.196 A 
ATOM     10  O   UNL     1       0.978   2.191  25.624  0.00  0.00    -0.287 OA
ATOM     11  C   UNL     1       0.111   2.760  24.641  0.00  0.00    +0.042 A 
ATOM     12  C   UNL     1      -0.563   3.195  24.449  0.00  0.00    -0.001 A 
ENDBRANCH   5   6
ENDBRANCH   4   5
ENDBRANCH  13   4
ENDBRANCH  16  14
BRANCH  23  25
ATOM     25  N   UNL     1      -4.793   0.297  24.547  0.00  0.00    -0.204 NA
ATOM     26  C   UNL     1      -4.287  -0.263  24.877  0.00  0.00    +0.241 C 
ATOM     27  O   UNL     1      -3.651  -0.019  25.344  0.00  0.00    -0.273 OA
BRANCH  26  28
ATOM     28  C   UNL     1      -4.416  -1.066  24.742  0.00  0.00    +0.087 C 
BRANCH  28  29
ATOM     29  C   UNL     1      -3.791  -1.602  24.813  0.00  0.00    +0.019 C 
ATOM     34  C   UNL     1      -3.842  -1.422  25.617  0.00  0.00    +0.001 C 
ATOM     35  C   UNL     1      -3.266  -1.860  26.012  0.00  0.00    +0.000 C 
ATOM     36  C   UNL     1      -2.859  -2.310  25.452  0.00  0.00    +0.000 C 
ATOM     37  C   UNL     1      -3.184  -2.150  24.711  0.00  0.00    +0.001 C 
BRANCH  29  30
ATOM     30  C   UNL     1      -3.872  -1.669  23.995  0.00  0.00    +0.115 C 
BRANCH  30  31
ATOM     31  C   UNL     1      -4.138  -2.377  23.663  0.00  0.00    +0.365 C 
ATOM     32  O   UNL     1      -4.945  -2.498  23.542  0.00  0.00    -0.246 OA
ATOM     33  O   UNL     1      -3.596  -2.962  23.453  0.00  0.00    -0.246 OA
ENDBRANCH  30  31
ENDBRANCH  29  30
ENDBRANCH  28  29
ENDBRANCH  26  28
ENDBRANCH  23  25
TORSDOF 10
ENDMDL
MODEL 3
REMARK VINA RESULT:     -10.6      1.205      5.330
REMARK  Name = 
REMARK  10 active torsions:
REMARK  status: ('A' for Active; 'I' for Inactive)
REMARK    1  A    between atoms: C_2  and  C_4
REMARK    2  A    between atoms: C_4  and  C_5
REMARK    3  A    between atoms: C_4  and  N_13
REMARK    4  A    between atoms: C_5  and  C_6
REMARK    5  A    between atoms: C_14  and  C_16
REMARK    6  A    between atoms: C_23  and  N_25
REMARK    7  A    between atoms: C_26  and  C_28
REMARK    8  A    between atoms: C_28  and  C_29
REMARK    9  A    between atoms: C_29  and  C_30
REMARK   10  A    between atoms: C_30  and  C_31
REMARK                            x       y       z     vdW  Elec       q    Type
REMARK                         _______ _______ _______ _____ _____    ______ ____
ROOT
ATOM     16  C   UNL     1      -0.804   1.747  25.276  0.00  0.00    +0.200 C 
ATOM     17  O   UNL     1      -1.387   1.844  25.852  0.00  0.00    -0.216 OA
ATOM     18  C   UNL     1      -0.218   1.934  24.726  0.00  0.00    +0.075 C 
ATOM     19  C   UNL     1       0.156   1.334  24.301  0.00  0.00    +0.187 C 
ATOM     20  O   UNL     1       0.741   1.522  23.752  0.00  0.00    -0.220 OA
ATOM     21  C   UNL     1      -0.056   0.547  24.426  0.00  0.00    +0.202 C 
ATOM     22  O   UNL     1       0.318  -0.053  24.000  0.00  0.00    -0.219 OA
ATOM     23  C   UNL     1      -0.642   0.359  24.975  0.00  0.00    +0.131 C 
ATOM     24  C   UNL     1      -1.016   0.959  25.400  0.00  0.00    +0.064 C 
ENDROOT
BRANCH  16  14
ATOM     13  N   UNL     1      -1.393   3.021  25.008  0.00  0.00    -0.195 NA
ATOM     14  C   UNL     1      -0.795   2.568  25.352  0.00  0.00    +0.269 C 
ATOM     15  O   UNL     1      -0.187   2.936  25.771  0.00  0.00    -0.271 OA
BRANCH  13   4
ATOM      4  C   UNL     1      -1.383   3.842  25.084  0.00  0.00    +0.179 C 
BRANCH   4   2
ATOM      1  N   UNL     1      -0.430   4.897  24.938  0.00  0.00    -0.086 NA
ATOM      2  C   UNL     1      -0.885   4.294  24.606  0.00  0.00    +0.281 C 
ATOM      3  O   UNL     1      -0.842   4.145  23.796  0.00  0.00    -0.270 OA
ENDBRANCH   4   2
BRANCH   4   5
ATOM      5  C   UNL     1      -1.871   4.211  25.637  0.00  0.00    +0.057 C 
BRANCH   5   6
ATOM      6  C   UNL     1      -2.691   4.149  25.571  0.00  0.00    -0.020 A 
ATOM      7  C   UNL     1      -3.050   4.193  24.830  0.00  0.00    -0.001 A 
ATOM      8  C   UNL     1      -3.870   4.131  24.763  0.00  0.00    +0.042 A 
ATOM      9  C   UNL     1      -4.331   4.026  25.439  0.00  0.00    +0.196 A 
ATOM     10  O   UNL     1      -5.151   3.964  25.375  0.00  0.00    -0.287 OA
ATOM     11  C   UNL     1      -3.972   3.983  26.182  0.00  0.00    +0.042 A 
ATOM     12  C   UNL     1      -3.152   4.044  26.247  0.00  0.00    -0.001 A 
ENDBRANCH   5   6
ENDBRANCH   4   5
ENDBRANCH  13   4
ENDBRANCH  16  14
BRANCH  23  25
ATOM     25  N   UNL     1      -0.854  -0.429  25.099  0.00  0.00    -0.204 NA
ATOM     26  C   UNL     1      -1.611  -0.690  24.901  0.00  0.00    +0.241 C 
ATOM     27  O   UNL     1      -2.157  -0.161  24.578  0.00  0.00    -0.273 OA
BRANCH  26  28
ATOM     28  C   UNL     1      -1.821  -1.477  25.025  0.00  0.00    +0.087 C 
BRANCH  28  29
ATOM     29  C   UNL     1      -2.618  -1.690  25.062  0.00  0.00    +0.019 C 
ATOM     34  C   UNL     1      -2.573  -1.395  25.831  0.00  0.00    +0.001 C 
ATOM     35  C   UNL     1      -3.316  -1.477  26.179  0.00  0.00    +0.000 C 
ATOM     36  C   UNL     1      -3.820  -1.823  25.626  0.00  0.00    +0.000 C 
ATOM     37  C   UNL     1      -3.389  -1.955  24.935  0.00  0.00    +0.001 C 
BRANCH  29  30
ATOM     30  C   UNL     1      -2.497  -1.940  24.285  0.00  0.00    +0.115 C 
BRANCH  30  31
ATOM     31  C   UNL     1      -2.478  -2.747  24.110  0.00  0.00    +0.365 C 
ATOM     32  O   UNL     1      -1.783  -3.177  24.221  0.00  0.00    -0.246 OA
ATOM     33  O   UNL     1      -3.155  -3.122  23.824  0.00  0.00    -0.246 OA
ENDBRANCH  30  31
ENDBRANCH  29  30
ENDBRANCH  28  29
ENDBRANCH  26  28
ENDBRANCH  23  25
TORSDOF 10
ENDMDL
MODEL 4
REMARK VINA RESULT:     -10.3      1.891      3.190
REMARK  Name = 
REMARK  10 active torsions:
REMARK  status: ('A' for Active; 'I' for Inactive)
REMARK    1  A    between atoms: C_2  and  C_4
REMARK    2  A    between atoms: C_4  and  C_5
REMARK    3  A    between atoms: C_4  and  N_13
REMARK    4  A    between atoms: C_5  and  C_6
REMARK    5  A    between atoms: C_14  and  C_16
REMARK    6  A    between atoms: C_23  and  N_25
REMARK    7  A    between atoms: C_26  and  C_28
REMARK    8  A    between atoms: C_28  and  C_29
REMARK    9  A    between atoms: C_29  and  C_30
REMARK   10  A    between atoms: C_30  and  C_31
REMARK                            x       y       z     vdW  Elec       q    Type
REMARK                         _______ _______ _______ _____ _____    ______ ____
ROOT
ATOM     16  C   UNL     1      -3.910   0.970  24.539  0.00  0.00    +0.200 C 
ATOM     17  O   UNL     1      -3.246   0.662  24.160  0.00  0.00    -0.216 OA
ATOM     18  C   UNL     1      -4.636   1.000  24.930  0.00  0.00    +0.075 C 
ATOM     19  C   UNL     1      -4.955   1.726  25.155  0.00  0.00    +0.187 C 
ATOM     20  O   UNL     1      -5.680   1.755  25.546  0.00  0.00    -0.220 OA
ATOM     21  C   UNL     1      -4.548   2.424  24.987  0.00  0.00    +0.202 C 
ATOM     22  O   UNL     1      -4.868   3.151  25.212  0.00  0.00    -0.219 OA
ATOM     23  C   UNL     1      -3.823   2.396  24.596  0.00  0.00    +0.131 C 
ATOM     24  C   UNL     1      -3.504   1.669  24.372  0.00  0.00    +0.064 C 
ENDROOT
BRANCH  16  14
ATOM     13  N   UNL     1      -3.525  -0.390  24.333  0.00  0.00    -0.195 NA
ATOM     14  C   UNL     1      -4.085   0.166  24.574  0.00  0.00    +0.269 C 
ATOM     15  O   UNL     1      -4.821  -0.084  24.850  0.00  0.00    -0.271 OA
BRANCH  13   4
ATOM      4  C   UNL     1      -3.700  -1.195  24.368  0.00  0.00    +0.179 C 
BRANCH   4   2
ATOM      1  N   UNL     1      -4.739  -2.092  23.969  0.00  0.00    -0.086 NA
ATOM      2  C   UNL     1      -4.153  -1.545  23.774  0.00  0.00    +0.281 C 
ATOM      3  O   UNL     1      -4.020  -1.349  22.984  0.00  0.00    -0.270 OA
ENDBRANCH   4   2
BRANCH   4   5
ATOM      5  C   UNL     1      -3.423  -1.650  24.997  0.00  0.00    +0.057 C 
BRANCH   5   6
ATOM      6  C   UNL     1      -2.615  -1.795  25.078  0.00  0.00    -0.020 A 
ATOM      7  C   UNL     1      -2.230  -2.298  24.551  0.00  0.00    -0.001 A 
ATOM      8  C   UNL     1      -1.422  -2.442  24.632  0.00  0.00    +0.042 A 
ATOM      9  C   UNL     1      -0.998  -2.083  25.242  0.00  0.00    +0.196 A 
ATOM     10  O   UNL     1      -0.190  -2.226  25.324  0.00  0.00    -0.287 OA
ATOM     11  C   UNL     1      -1.383  -1.579  25.771  0.00  0.00    +0.042 A 
ATOM     12  C   UNL     1      -2.192  -1.435  25.688  0.00  0.00    -0.001 A 
ENDBRANCH   5   6
ENDBRANCH   4   5
ENDBRANCH  13   4
ENDBRANCH  16  14
BRANCH  23  25
ATOM     25  N   UNL     1      -3.417   3.095  24.429  0.00  0.00    -0.204 NA
ATOM     26  C   UNL     1      -2.694   3.250  24.795  0.00  0.00    +0.241 C 
ATOM     27  O   UNL     1      -2.377   2.705  25.328  0.00  0.00    -0.273 OA
BRANCH  26  28
ATOM     28  C   UNL     1      -2.289   3.948  24.627  0.00  0.00    +0.087 C 
BRANCH  28  29
ATOM     29  C   UNL     1      -1.500   4.031  24.855  0.00  0.00    +0.019 C 
ATOM     34  C   UNL     1      -1.354   3.523  24.222  0.00  0.00    +0.001 C 
ATOM     35  C   UNL     1      -0.540   3.394  24.181  0.00  0.00    +0.000 C 
ATOM     36  C   UNL     1      -0.183   3.824  24.788  0.00  0.00    +0.000 C 
ATOM     37  C   UNL     1      -0.777   4.217  25.205  0.00  0.00    +0.001 C 
BRANCH  29  30
ATOM     30  C   UNL     1      -1.811   4.522  25.440  0.00  0.00    +0.115 C 
BRANCH  30  31
ATOM     31  C   UNL     1      -1.823   5.340  25.329  0.00  0.00    +0.365 C 
ATOM     32  O   UNL     1      -1.183   5.717  24.969  0.00  0.00    -0.246 OA
ATOM     33  O   UNL     1      -2.474   5.781  25.578  0.00  0.00    -0.246 OA
ENDBRANCH  30  31
ENDBRANCH  29  30
ENDBRANCH  28  29
ENDBRANCH  26  28
ENDBRANCH  23  25
TORSDOF 10
ENDMDL
MODEL 5
REMARK VINA RESULT:     -10.2      2.062      3.057
REMARK  Name = 
REMARK  10 active torsions:
REMARK  status: ('A' for Active; 'I' for Inactive)
REMARK    1  A    between atoms: C_2  and  C_4
REMARK    2  A    between atoms: C_4  and  C_5
REMARK    3  A    between atoms: C_4  and  N_13
REMARK    4  A    between atoms: C_5  and  C_6
REMARK    5  A    between atoms: C_14  and  C_16
REMARK    6  A    between atoms: C_23  and  N_25
REMARK    7  A    between atoms: C_26  and  C_28
REMARK    8  A    between atoms: C_28  and  C_29
REMARK    9  A    between atoms: C_29  and  C_30
REMARK   10  A    between atoms: C_30  and  C_31
REMARK                            x       y       z     vdW  Elec       q    Type
REMARK                         _______ _______ _______ _____ _____    ______ ____
ROOT
ATOM     16  C   UNL     1      -1.117   1.783  24.352  0.00  0.00    +0.200 C 
ATOM     17  O   UNL     1      -1.433   1.341  23.731  0.00  0.00    -0.216 OA
ATOM     18  C   UNL     1      -0.588   2.039  24.931  0.00  0.00    +0.075 C 
ATOM     19  C   UNL     1      -0.783   2.676  25.416  0.00  0.00    +0.187 C 
ATOM     20  O   UNL     1      -0.254   2.932  25.994  0.00  0.00    -0.220 OA
ATOM     21  C   UNL     1      -1.509   3.058  25.323  0.00  0.00    +0.202 C 
ATOM     22  O   UNL     1      -1.704   3.696  25.809  0.00  0.00    -0.219 OA
ATOM     23  C   UNL     1      -2.038   2.802  24.744  0.00  0.00    +0.131 C 
ATOM     24  C   UNL     1      -1.843   2.165  24.259  0.00  0.00    +0.064 C 
ENDROOT
BRANCH  16  14
ATOM     13  N   UNL     1      -0.666   0.481  23.973  0.00  0.00    -0.195 NA
ATOM     14  C   UNL     1      -0.502   1.248  24.229  0.00  0.00    +0.269 C 
ATOM     15  O   UNL     1       0.279   1.479  24.362  0.00  0.00    -0.271 OA
BRANCH  13   4
ATOM      4  C   UNL     1      -0.051  -0.054  23.850  0.00  0.00    +0.179 C 
BRANCH   4   2
ATOM      1  N   UNL     1       1.254   0.053  23.278  0.00  0.00    -0.086 NA
ATOM      2  C   UNL     1       0.435   0.021  23.187  0.00  0.00    +0.281 C 
ATOM      3  O   UNL     1       0.102   0.066  22.434  0.00  0.00    -0.270 OA
ENDBRANCH   4   2
BRANCH   4   5
ATOM      5  C   UNL     1       0.079  -0.665  24.388  0.00  0.00    +0.057 C 
BRANCH   5   6
ATOM      6  C   UNL     1      -0.510  -1.226  24.527  0.00  0.00    -0.020 A 
ATOM      7  C   UNL     1      -0.817  -1.665  23.900  0.00  0.00    -0.001 A 
ATOM      8  C   UNL     1      -1.406  -2.227  24.039  0.00  0.00    +0.042 A 
ATOM      9  C   UNL     1      -1.688  -2.348  24.804  0.00  0.00    +0.196 A 
ATOM     10  O   UNL     1      -2.276  -2.909  24.944  0.00  0.00    -0.287 OA
ATOM     11  C   UNL     1      -1.381  -1.908  25.432  0.00  0.00    +0.042 A 
ATOM     12  C   UNL     1      -0.792  -1.347  25.292  0.00  0.00    -0.001 A 
ENDBRANCH   5   6
ENDBRANCH   4   5
ENDBRANCH  13   4
ENDBRANCH  16  14
BRANCH  23  25
ATOM     25  N   UNL     1      -2.764   3.185  24.652  0.00  0.00    -0.204 NA
ATOM     26  C   UNL     1      -3.462   2.804  24.871  0.00  0.00    +0.241 C 
ATOM     27  O   UNL     1      -3.435   2.041  25.184  0.00  0.00    -0.273 OA
BRANCH  26  28
ATOM     28  C   UNL     1      -4.187   3.187  24.779  0.00  0.00    +0.087 C 
BRANCH  28  29
ATOM     29  C   UNL     1      -4.882   2.820  25.031  0.00  0.00    +0.019 C 
ATOM     34  C   UNL     1      -4.773   2.348  24.364  0.00  0.00    +0.001 C 
ATOM     35  C   UNL     1      -5.392   1.804  24.333  0.00  0.00    +0.000 C 
ATOM     36  C   UNL     1      -5.884   1.941  24.981  0.00  0.00    +0.000 C 
ATOM     37  C   UNL     1      -5.568   2.569  25.413  0.00  0.00    +0.001 C 
BRANCH  29  30
ATOM     30  C   UNL     1      -4.845   3.370  25.646  0.00  0.00    +0.115 C 
BRANCH  30  31
ATOM     31  C   UNL     1      -5.406   3.973  25.693  0.00  0.00    +0.365 C 
ATOM     32  O   UNL     1      -5.349   4.630  25.197  0.00  0.00    -0.246 OA
ATOM     33  O   UNL     1      -6.023   3.920  26.238  0.00  0.00    -0.246 OA
ENDBRANCH  30  31
ENDBRANCH  29  30
ENDBRANCH  28  29
ENDBRANCH  26  28
ENDBRANCH  23  25
TORSDOF 10
ENDMDL
