REMARK  Name = 
REMARK  8 active torsions:
REMARK  status: ('A' for Active; 'I' for Inactive)
REMARK    1  A    between atoms: N_2  and  C_3
REMARK    2  A    between atoms: N_2  and  C_11
REMARK    3  A    between atoms: C_3  and  C_4
REMARK    4  A    between atoms: C_4  and  C_5
REMARK    5  A    between atoms: C_12  and  C_13
REMARK    6  A    between atoms: C_13  and  N_14
REMARK    7  A    between atoms: C_15  and  C_17
REMARK    8  A    between atoms: C_23  and  C_24
REMARK                            x       y       z     vdW  Elec       q    Type
REMARK                         _______ _______ _______ _____ _____    ______ ____
ROOT
ATOM     11  C   UNL     1      -1.322  -2.537   0.000  0.00  0.00    +0.120 C 
ATOM     12  C   UNL     1      -0.655  -3.022   0.000  0.00  0.00    +0.154 C 
ATOM     22  O   UNL     1      -0.910  -3.806   0.000  0.00  0.00    -0.350 OA
ATOM     23  C   UNL     1      -1.735  -3.806   0.000  0.00  0.00    +0.180 C 
ATOM     26  C   UNL     1      -1.990  -3.022   0.000  0.00  0.00    +0.198 C 
ATOM     27  O   UNL     1      -2.774  -2.767   0.000  0.00  0.00    -0.219 OA
ENDROOT
BRANCH  11   2
ATOM      1  C   UNL     1      -0.608  -1.299   0.000  0.00  0.00    +0.090 C 
ATOM      2  N   UNL     1      -1.322  -1.712   0.000  0.00  0.00    -0.268 NA
BRANCH   2   3
ATOM      3  C   UNL     1      -2.037  -1.299   0.000  0.00  0.00    +0.079 C 
BRANCH   3   4
ATOM      4  C   UNL     1      -2.037  -0.474   0.000  0.00  0.00    +0.063 C 
BRANCH   4   5
ATOM      5  C   UNL     1      -2.751  -0.062   0.000  0.00  0.00    +0.060 A 
ATOM      6  N   UNL     1      -3.466  -0.474   0.000  0.00  0.00    -0.248 NA
ATOM      7  C   UNL     1      -4.180  -0.062   0.000  0.00  0.00    +0.098 A 
ATOM      8  C   UNL     1      -4.180   0.763   0.000  0.00  0.00    +0.021 A 
ATOM      9  C   UNL     1      -3.466   1.176   0.000  0.00  0.00    +0.003 A 
ATOM     10  C   UNL     1      -2.751   0.763   0.000  0.00  0.00    +0.015 A 
ENDBRANCH   4   5
ENDBRANCH   3   4
ENDBRANCH   2   3
ENDBRANCH  11   2
BRANCH  23  24
ATOM     24  C   UNL     1      -2.220  -4.474   0.000  0.00  0.00    +0.214 C 
ATOM     25  O   UNL     1      -3.040  -4.387   0.000  0.00  0.00    -0.218 OA
ENDBRANCH  23  24
BRANCH  12  13
ATOM     13  C   UNL     1       0.130  -2.767   0.000  0.00  0.00    +0.146 C 
BRANCH  13  14
ATOM     14  N   UNL     1       0.743  -3.319   0.000  0.00  0.00    -0.203 NA
ATOM     15  C   UNL     1       1.528  -3.064   0.000  0.00  0.00    +0.241 C 
ATOM     16  O   UNL     1       1.699  -2.257   0.000  0.00  0.00    -0.273 OA
BRANCH  15  17
ATOM     17  C   UNL     1       2.141  -3.616   0.000  0.00  0.00    +0.078 C 
ATOM     18  C   UNL     1       2.948  -3.444   0.000  0.00  0.00    +0.009 C 
ATOM     19  C   UNL     1       3.360  -4.159   0.000  0.00  0.00    +0.001 C 
ATOM     20  C   UNL     1       2.808  -4.772   0.000  0.00  0.00    +0.001 C 
ATOM     21  C   UNL     1       2.054  -4.436   0.000  0.00  0.00    +0.009 C 
ENDBRANCH  15  17
ENDBRANCH  13  14
ENDBRANCH  12  13
TORSDOF 8
