MODEL 1
REMARK VINA RESULT:     -13.0      0.000      0.000
REMARK  Name = 
REMARK  7 active torsions:
REMARK  status: ('A' for Active; 'I' for Inactive)
REMARK    1  A    between atoms: C_5  and  C_8
REMARK    2  A    between atoms: C_10  and  C_11
REMARK    3  A    between atoms: C_11  and  C_12
REMARK    4  A    between atoms: C_17  and  C_18
REMARK    5  A    between atoms: C_18  and  C_19
REMARK    6  A    between atoms: N_21  and  C_22
REMARK    7  A    between atoms: C_22  and  C_23
REMARK                            x       y       z     vdW  Elec       q    Type
REMARK                         _______ _______ _______ _____ _____    ______ ____
ROOT
ATOM     12  C   UNL     1      -4.663   2.262  24.750  0.00  0.00    +0.024 C 
ATOM     13  C   UNL     1      -5.354   2.175  25.192  0.00  0.00    +0.089 C 
ATOM     14  N   UNL     1      -5.644   2.809  25.633  0.00  0.00    -0.218 NA
ATOM     15  C   UNL     1      -5.243   3.530  25.631  0.00  0.00    +0.089 C 
ATOM     16  C   UNL     1      -4.552   3.617  25.189  0.00  0.00    +0.019 C 
ATOM     17  C   UNL     1      -4.262   2.983  24.748  0.00  0.00    +0.012 C 
ENDROOT
BRANCH  12  11
ATOM     11  C   UNL     1      -4.373   1.628  24.309  0.00  0.00    +0.051 C 
BRANCH  11  10
ATOM      8  C   UNL     1      -4.181  -0.445  24.786  0.00  0.00    +0.177 A 
ATOM      9  C   UNL     1      -4.104   0.183  24.256  0.00  0.00    +0.058 A 
ATOM     10  C   UNL     1      -4.357   0.871  24.636  0.00  0.00    +0.101 A 
ATOM     28  N   UNL     1      -4.590   0.668  25.401  0.00  0.00    -0.081 NA
ATOM     29  O   UNL     1      -4.482  -0.145  25.493  0.00  0.00    -0.354 OA
BRANCH   8   5
ATOM      1  F   UNL     1      -3.423  -3.599  24.180  0.00  0.00    -0.204 F 
ATOM      2  C   UNL     1      -3.612  -2.810  24.332  0.00  0.00    +0.140 A 
ATOM      3  C   UNL     1      -4.089  -2.391  23.804  0.00  0.00    +0.030 A 
ATOM      4  C   UNL     1      -4.279  -1.603  23.955  0.00  0.00    +0.005 A 
ATOM      5  C   UNL     1      -3.992  -1.233  24.635  0.00  0.00    +0.037 A 
ATOM      6  C   UNL     1      -3.515  -1.651  25.162  0.00  0.00    +0.005 A 
ATOM      7  C   UNL     1      -3.326  -2.439  25.011  0.00  0.00    +0.030 A 
ENDBRANCH   8   5
ENDBRANCH  11  10
ENDBRANCH  12  11
BRANCH  17  18
ATOM     18  C   UNL     1      -3.571   3.070  24.306  0.00  0.00    +0.087 C 
BRANCH  18  19
ATOM     19  C   UNL     1      -2.928   3.478  24.620  0.00  0.00    +0.242 C 
ATOM     20  O   UNL     1      -2.977   4.293  24.743  0.00  0.00    -0.273 OA
ATOM     21  N   UNL     1      -2.236   3.074  24.813  0.00  0.00    -0.200 NA
BRANCH  21  22
ATOM     22  C   UNL     1      -1.592   3.483  25.128  0.00  0.00    +0.148 C 
BRANCH  22  23
ATOM     23  C   UNL     1      -0.926   3.069  25.384  0.00  0.00    +0.029 A 
ATOM     24  C   UNL     1      -0.735   2.895  26.168  0.00  0.00    +0.004 A 
ATOM     25  C   UNL     1      -0.025   2.475  26.170  0.00  0.00    +0.007 A 
ATOM     26  C   UNL     1       0.223   2.389  25.387  0.00  0.00    +0.035 A 
ATOM     27  S   UNL     1      -0.334   2.756  24.902  0.00  0.00    -0.089 S 
ENDBRANCH  22  23
ENDBRANCH  21  22
ENDBRANCH  18  19
ENDBRANCH  17  18
TORSDOF 7
ENDMDL
MODEL 2
REMARK VINA RESULT:     -12.5      1.839      3.451
REMARK  Name = 
REMARK  7 active torsions:
REMARK  status: ('A' for Active; 'I' for Inactive)
REMARK    1  A    between atoms: C_5  and  C_8
REMARK    2  A    between atoms: C_10  and  C_11
REMARK    3  A    between atoms: C_11  and  C_12
REMARK    4  A    between atoms: C_17  and  C_18
REMARK    5  A    between atoms: C_18  and  C_19
REMARK    6  A    between atoms: N_21  and  C_22
REMARK    7  A    between atoms: C_22  and  C_23
REMARK                            x       y       z     vdW  Elec       q    Type
REMARK                         _______ _______ _______ _____ _____    ______ ____
ROOT
ATOM     12  C   UNL     1      -0.561   0.814  25.070  0.00  0.00    +0.024 C 
ATOM     13  C   UNL     1      -0.141   0.436  24.468  0.00  0.00    +0.089 C 
ATOM     14  N   UNL     1       0.310   0.879  23.939  0.00  0.00    -0.218 NA
ATOM     15  C   UNL     1       0.343   1.700  24.011  0.00  0.00    +0.089 C 
ATOM     16  C   UNL     1      -0.077   2.079  24.612  0.00  0.00    +0.019 C 
ATOM     17  C   UNL     1      -0.529   1.635  25.141  0.00  0.00    +0.012 C 
ENDROOT
BRANCH  12  11
ATOM     11  C   UNL     1      -1.013   0.371  25.599  0.00  0.00    +0.051 C 
BRANCH  11  10
ATOM      8  C   UNL     1      -2.182  -1.274  24.901  0.00  0.00    +0.177 A 
ATOM      9  C   UNL     1      -2.094  -0.469  25.064  0.00  0.00    +0.058 A 
ATOM     10  C   UNL     1      -1.334  -0.351  25.363  0.00  0.00    +0.101 A 
ATOM     28  N   UNL     1      -0.952  -1.082  25.385  0.00  0.00    -0.081 NA
ATOM     29  O   UNL     1      -1.476  -1.652  25.100  0.00  0.00    -0.354 OA
BRANCH   8   5
ATOM      1  F   UNL     1      -4.881  -2.721  23.672  0.00  0.00    -0.204 F 
ATOM      2  C   UNL     1      -4.206  -2.359  23.980  0.00  0.00    +0.140 A 
ATOM      3  C   UNL     1      -3.604  -2.819  24.308  0.00  0.00    +0.030 A 
ATOM      4  C   UNL     1      -2.929  -2.457  24.616  0.00  0.00    +0.005 A 
ATOM      5  C   UNL     1      -2.856  -1.636  24.594  0.00  0.00    +0.037 A 
ATOM      6  C   UNL     1      -3.457  -1.176  24.266  0.00  0.00    +0.005 A 
ATOM      7  C   UNL     1      -4.132  -1.538  23.959  0.00  0.00    +0.030 A 
ENDBRANCH   8   5
ENDBRANCH  11  10
ENDBRANCH  12  11
BRANCH  17  18
ATOM     18  C   UNL     1      -0.949   2.014  25.742  0.00  0.00    +0.087 C 
BRANCH  18  19
ATOM     19  C   UNL     1      -1.314   2.739  25.598  0.00  0.00    +0.242 C 
ATOM     20  O   UNL     1      -0.864   3.430  25.579  0.00  0.00    -0.273 OA
ATOM     21  N   UNL     1      -2.128   2.774  25.472  0.00  0.00    -0.200 NA
BRANCH  21  22
ATOM     22  C   UNL     1      -2.493   3.500  25.327  0.00  0.00    +0.148 C 
BRANCH  22  23
ATOM     23  C   UNL     1      -3.304   3.531  25.177  0.00  0.00    +0.029 A 
ATOM     24  C   UNL     1      -3.675   3.311  24.473  0.00  0.00    +0.004 A 
ATOM     25  C   UNL     1      -4.486   3.431  24.565  0.00  0.00    +0.007 A 
ATOM     26  C   UNL     1      -4.616   3.725  25.325  0.00  0.00    +0.035 A 
ATOM     27  S   UNL     1      -3.886   3.786  25.703  0.00  0.00    -0.089 S 
ENDBRANCH  22  23
ENDBRANCH  21  22
ENDBRANCH  18  19
ENDBRANCH  17  18
TORSDOF 7
ENDMDL
MODEL 3
REMARK VINA RESULT:     -12.5      1.776      3.392
REMARK  Name = 
REMARK  7 active torsions:
REMARK  status: ('A' for Active; 'I' for Inactive)
REMARK    1  A    between atoms: C_5  and  C_8
REMARK    2  A    between atoms: C_10  and  C_11
REMARK    3  A    between atoms: C_11  and  C_12
REMARK    4  A    between atoms: C_17  and  C_18
REMARK    5  A    between atoms: C_18  and  C_19
REMARK    6  A    between atoms: N_21  and  C_22
REMARK    7  A    between atoms: C_22  and  C_23
REMARK                            x       y       z     vdW  Elec       q    Type
REMARK                         _______ _______ _______ _____ _____    ______ ____
ROOT
ATOM     12  C   UNL     1      -0.927   1.903  24.915  0.00  0.00    +0.024 C 
ATOM     13  C   UNL     1      -0.345   1.727  25.473  0.00  0.00    +0.089 C 
ATOM     14  N   UNL     1      -0.187   2.258  26.085  0.00  0.00    -0.218 NA
ATOM     15  C   UNL     1      -0.610   2.963  26.139  0.00  0.00    +0.089 C 
ATOM     16  C   UNL     1      -1.193   3.139  25.581  0.00  0.00    +0.019 C 
ATOM     17  C   UNL     1      -1.351   2.608  24.969  0.00  0.00    +0.012 C 
ENDROOT
BRANCH  12  11
ATOM     11  C   UNL     1      -1.085   1.372  24.304  0.00  0.00    +0.051 C 
BRANCH  11  10
ATOM      8  C   UNL     1      -1.649  -0.653  24.675  0.00  0.00    +0.177 A 
ATOM      9  C   UNL     1      -1.846   0.130  24.504  0.00  0.00    +0.058 A 
ATOM     10  C   UNL     1      -1.145   0.565  24.463  0.00  0.00    +0.101 A 
ATOM     28  N   UNL     1      -0.517   0.051  24.608  0.00  0.00    -0.081 NA
ATOM     29  O   UNL     1      -0.828  -0.702  24.740  0.00  0.00    -0.354 OA
BRANCH   8   5
ATOM      1  F   UNL     1      -3.776  -3.151  25.037  0.00  0.00    -0.204 F 
ATOM      2  C   UNL     1      -3.244  -2.526  24.947  0.00  0.00    +0.140 A 
ATOM      3  C   UNL     1      -3.435  -1.776  25.235  0.00  0.00    +0.030 A 
ATOM      4  C   UNL     1      -2.903  -1.152  25.144  0.00  0.00    +0.005 A 
ATOM      5  C   UNL     1      -2.181  -1.277  24.766  0.00  0.00    +0.037 A 
ATOM      6  C   UNL     1      -1.990  -2.026  24.478  0.00  0.00    +0.005 A 
ATOM      7  C   UNL     1      -2.522  -2.650  24.568  0.00  0.00    +0.030 A 
ENDBRANCH   8   5
ENDBRANCH  11  10
ENDBRANCH  12  11
BRANCH  17  18
ATOM     18  C   UNL     1      -1.933   2.784  24.412  0.00  0.00    +0.087 C 
BRANCH  18  19
ATOM     19  C   UNL     1      -2.598   3.219  24.632  0.00  0.00    +0.242 C 
ATOM     20  O   UNL     1      -2.532   4.030  24.772  0.00  0.00    -0.273 OA
ATOM     21  N   UNL     1      -3.328   2.844  24.712  0.00  0.00    -0.200 NA
BRANCH  21  22
ATOM     22  C   UNL     1      -3.994   3.280  24.932  0.00  0.00    +0.148 C 
BRANCH  22  23
ATOM     23  C   UNL     1      -4.704   2.893  25.094  0.00  0.00    +0.029 A 
ATOM     24  C   UNL     1      -5.034   2.280  24.650  0.00  0.00    +0.004 A 
ATOM     25  C   UNL     1      -5.743   2.059  25.009  0.00  0.00    +0.007 A 
ATOM     26  C   UNL     1      -5.851   2.536  25.675  0.00  0.00    +0.035 A 
ATOM     27  S   UNL     1      -5.210   3.051  25.727  0.00  0.00    -0.089 S 
ENDBRANCH  22  23
ENDBRANCH  21  22
ENDBRANCH  18  19
ENDBRANCH  17  18
TORSDOF 7
ENDMDL
MODEL 4
REMARK VINA RESULT:     -12.4      3.280      6.126
REMARK  Name = 
REMARK  7 active torsions:
REMARK  status: ('A' for Active; 'I' for Inactive)
REMARK    1  A    between atoms: C_5  and  C_8
REMARK    2  A    between atoms: C_10  and  C_11
REMARK    3  A    between atoms: C_11  and  C_12
REMARK    4  A    between atoms: C_17  and  C_18
REMARK    5  A    between atoms: C_18  and  C_19
REMARK    6  A    between atoms: N_21  and  C_22
REMARK    7  A    between atoms: C_22  and  C_23
REMARK                            x       y       z     vdW  Elec       q    Type
REMARK                         _______ _______ _______ _____ _____    ______ ____
ROOT
ATOM     12  C   UNL     1      -0.487   0.482  24.696  0.00  0.00    +0.024 C 
ATOM     13  C   UNL     1      -0.063   0.902  24.126  0.00  0.00    +0.089 C 
ATOM     14  N   UNL     1       0.369   0.497  23.552  0.00  0.00    -0.218 NA
ATOM     15  C   UNL     1       0.377  -0.328  23.547  0.00  0.00    +0.089 C 
ATOM     16  C   UNL     1      -0.047  -0.748  24.116  0.00  0.00    +0.019 C 
ATOM     17  C   UNL     1      -0.478  -0.343  24.691  0.00  0.00    +0.012 C 
ENDROOT
BRANCH  12  11
ATOM     11  C   UNL     1      -0.918   0.887  25.271  0.00  0.00    +0.051 C 
BRANCH  11  10
ATOM      8  C   UNL     1      -0.815   3.009  25.477  0.00  0.00    +0.177 A 
ATOM      9  C   UNL     1      -1.185   2.330  25.188  0.00  0.00    +0.058 A 
ATOM     10  C   UNL     1      -0.746   1.676  25.436  0.00  0.00    +0.101 A 
ATOM     28  N   UNL     1      -0.106   1.952  25.877  0.00  0.00    -0.081 NA
ATOM     29  O   UNL     1      -0.149   2.775  25.902  0.00  0.00    -0.354 OA
BRANCH   8   5
ATOM      1  F   UNL     1      -1.828   6.115  25.008  0.00  0.00    -0.204 F 
ATOM      2  C   UNL     1      -1.575   5.339  25.125  0.00  0.00    +0.140 A 
ATOM      3  C   UNL     1      -2.050   4.808  25.543  0.00  0.00    +0.030 A 
ATOM      4  C   UNL     1      -1.797   4.031  25.660  0.00  0.00    +0.005 A 
ATOM      5  C   UNL     1      -1.068   3.786  25.360  0.00  0.00    +0.037 A 
ATOM      6  C   UNL     1      -0.594   4.315  24.943  0.00  0.00    +0.005 A 
ATOM      7  C   UNL     1      -0.847   5.092  24.826  0.00  0.00    +0.030 A 
ENDBRANCH   8   5
ENDBRANCH  11  10
ENDBRANCH  12  11
BRANCH  17  18
ATOM     18  C   UNL     1      -0.902  -0.763  25.261  0.00  0.00    +0.087 C 
BRANCH  18  19
ATOM     19  C   UNL     1      -1.273  -1.471  25.061  0.00  0.00    +0.242 C 
ATOM     20  O   UNL     1      -0.841  -2.175  25.048  0.00  0.00    -0.273 OA
ATOM     21  N   UNL     1      -2.076  -1.478  24.873  0.00  0.00    -0.200 NA
BRANCH  21  22
ATOM     22  C   UNL     1      -2.448  -2.188  24.672  0.00  0.00    +0.148 C 
BRANCH  22  23
ATOM     23  C   UNL     1      -3.218  -2.180  24.377  0.00  0.00    +0.029 A 
ATOM     24  C   UNL     1      -3.659  -1.508  24.191  0.00  0.00    +0.004 A 
ATOM     25  C   UNL     1      -4.396  -1.755  23.916  0.00  0.00    +0.007 A 
ATOM     26  C   UNL     1      -4.411  -2.580  23.932  0.00  0.00    +0.035 A 
ATOM     27  S   UNL     1      -3.683  -2.843  24.217  0.00  0.00    -0.089 S 
ENDBRANCH  22  23
ENDBRANCH  21  22
ENDBRANCH  18  19
ENDBRANCH  17  18
TORSDOF 7
ENDMDL
MODEL 5
REMARK VINA RESULT:     -12.0      2.388      4.506
REMARK  Name = 
REMARK  7 active torsions:
REMARK  status: ('A' for Active; 'I' for Inactive)
REMARK    1  A    between atoms: C_5  and  C_8
REMARK    2  A    between atoms: C_10  and  C_11
REMARK    3  A    between atoms: C_11  and  C_12
REMARK    4  A    between atoms: C_17  and  C_18
REMARK    5  A    between atoms: C_18  and  C_19
REMARK    6  A    between atoms: N_21  and  C_22
REMARK    7  A    between atoms: C_22  and  C_23
REMARK                            x       y       z     vdW  Elec       q    Type
REMARK                         _______ _______ _______ _____ _____    ______ ____
ROOT
ATOM     12  C   UNL     1      -3.810  -1.210  24.845  0.00  0.00    +0.024 C 
ATOM     13  C   UNL     1      -4.464  -1.371  24.367  0.00  0.00    +0.089 C 
ATOM     14  N   UNL     1      -4.443  -2.005  23.841  0.00  0.00    -0.218 NA
ATOM     15  C   UNL     1      -3.770  -2.479  23.792  0.00  0.00    +0.089 C 
ATOM     16  C   UNL     1      -3.117  -2.319  24.269  0.00  0.00    +0.019 C 
ATOM     17  C   UNL     1      -3.137  -1.684  24.796  0.00  0.00    +0.012 C 
ENDROOT
BRANCH  12  11
ATOM     11  C   UNL     1      -3.830  -0.575  25.372  0.00  0.00    +0.051 C 
BRANCH  11  10
ATOM      8  C   UNL     1      -4.395   1.403  24.800  0.00  0.00    +0.177 A 
ATOM      9  C   UNL     1      -3.818   0.846  24.997  0.00  0.00    +0.058 A 
ATOM     10  C   UNL     1      -4.198   0.130  25.154  0.00  0.00    +0.101 A 
ATOM     28  N   UNL     1      -5.009   0.244  25.054  0.00  0.00    -0.081 NA
ATOM     29  O   UNL     1      -5.130   1.031  24.836  0.00  0.00    -0.354 OA
BRANCH   8   5
ATOM      1  F   UNL     1      -3.853   4.561  24.012  0.00  0.00    -0.204 F 
ATOM      2  C   UNL     1      -3.989   3.771  24.209  0.00  0.00    +0.140 A 
ATOM      3  C   UNL     1      -4.355   3.581  24.924  0.00  0.00    +0.030 A 
ATOM      4  C   UNL     1      -4.490   2.792  25.121  0.00  0.00    +0.005 A 
ATOM      5  C   UNL     1      -4.260   2.192  24.603  0.00  0.00    +0.037 A 
ATOM      6  C   UNL     1      -3.894   2.382  23.889  0.00  0.00    +0.005 A 
ATOM      7  C   UNL     1      -3.759   3.171  23.692  0.00  0.00    +0.030 A 
ENDBRANCH   8   5
ENDBRANCH  11  10
ENDBRANCH  12  11
BRANCH  17  18
ATOM     18  C   UNL     1      -2.484  -1.524  25.274  0.00  0.00    +0.087 C 
BRANCH  18  19
ATOM     19  C   UNL     1      -1.722  -1.590  24.966  0.00  0.00    +0.242 C 
ATOM     20  O   UNL     1      -1.378  -2.335  24.873  0.00  0.00    -0.273 OA
ATOM     21  N   UNL     1      -1.302  -0.913  24.752  0.00  0.00    -0.200 NA
BRANCH  21  22
ATOM     22  C   UNL     1      -0.539  -0.979  24.445  0.00  0.00    +0.148 C 
BRANCH  22  23
ATOM     23  C   UNL     1      -0.165  -0.319  24.122  0.00  0.00    +0.029 A 
ATOM     24  C   UNL     1      -0.277   0.465  24.359  0.00  0.00    +0.004 A 
ATOM     25  C   UNL     1       0.204   0.943  23.890  0.00  0.00    +0.007 A 
ATOM     26  C   UNL     1       0.613   0.456  23.364  0.00  0.00    +0.035 A 
ATOM     27  S   UNL     1       0.384  -0.323  23.507  0.00  0.00    -0.089 S 
ENDBRANCH  22  23
ENDBRANCH  21  22
ENDBRANCH  18  19
ENDBRANCH  17  18
TORSDOF 7
ENDMDL
MODEL 6
REMARK VINA RESULT:     -11.8      2.176      4.476
REMARK  Name = 
REMARK  7 active torsions:
REMARK  status: ('A' for Active; 'I' for Inactive)
REMARK    1  A    between atoms: C_5  and  C_8
REMARK    2  A    between atoms: C_10  and  C_11
REMARK    3  A    between atoms: C_11  and  C_12
REMARK    4  A    between atoms: C_17  and  C_18
REMARK    5  A    between atoms: C_18  and  C_19
REMARK    6  A    between atoms: N_21  and  C_22
REMARK    7  A    between atoms: C_22  and  C_23
REMARK                            x       y       z     vdW  Elec       q    Type
REMARK                         _______ _______ _______ _____ _____    ______ ____
ROOT
ATOM     12  C   UNL     1      -1.165   2.572  24.813  0.00  0.00    +0.024 C 
ATOM     13  C   UNL     1      -1.030   3.144  25.393  0.00  0.00    +0.089 C 
ATOM     14  N   UNL     1      -0.452   3.019  25.968  0.00  0.00    -0.218 NA
ATOM     15  C   UNL     1      -0.009   2.324  25.964  0.00  0.00    +0.089 C 
ATOM     16  C   UNL     1      -0.143   1.752  25.385  0.00  0.00    +0.019 C 
ATOM     17  C   UNL     1      -0.721   1.877  24.809  0.00  0.00    +0.012 C 
ENDROOT
BRANCH  12  11
ATOM     11  C   UNL     1      -1.743   2.696  24.238  0.00  0.00    +0.051 C 
BRANCH  11  10
ATOM      8  C   UNL     1      -3.784   2.936  24.817  0.00  0.00    +0.177 A 
ATOM      9  C   UNL     1      -3.142   2.456  24.619  0.00  0.00    +0.058 A 
ATOM     10  C   UNL     1      -2.497   2.945  24.459  0.00  0.00    +0.101 A 
ATOM     28  N   UNL     1      -2.740   3.728  24.557  0.00  0.00    -0.081 NA
ATOM     29  O   UNL     1      -3.535   3.722  24.779  0.00  0.00    -0.354 OA
BRANCH   8   5
ATOM      1  F   UNL     1      -6.810   1.895  25.620  0.00  0.00    -0.204 F 
ATOM      2  C   UNL     1      -6.054   2.155  25.420  0.00  0.00    +0.140 A 
ATOM      3  C   UNL     1      -5.612   1.745  24.855  0.00  0.00    +0.030 A 
ATOM      4  C   UNL     1      -4.856   2.006  24.654  0.00  0.00    +0.005 A 
ATOM      5  C   UNL     1      -4.540   2.676  25.018  0.00  0.00    +0.037 A 
ATOM      6  C   UNL     1      -4.981   3.085  25.582  0.00  0.00    +0.005 A 
ATOM      7  C   UNL     1      -5.737   2.825  25.783  0.00  0.00    +0.030 A 
ENDBRANCH   8   5
ENDBRANCH  11  10
ENDBRANCH  12  11
BRANCH  17  18
ATOM     18  C   UNL     1      -0.855   1.305  24.230  0.00  0.00    +0.087 C 
BRANCH  18  19
ATOM     19  C   UNL     1      -0.700   0.511  24.389  0.00  0.00    +0.242 C 
ATOM     20  O   UNL     1       0.080   0.247  24.446  0.00  0.00    -0.273 OA
ATOM     21  N   UNL     1      -1.323  -0.020  24.492  0.00  0.00    -0.200 NA
BRANCH  21  22
ATOM     22  C   UNL     1      -1.167  -0.815  24.651  0.00  0.00    +0.148 C 
BRANCH  22  23
ATOM     23  C   UNL     1      -1.791  -1.349  24.731  0.00  0.00    +0.029 A 
ATOM     24  C   UNL     1      -2.524  -1.190  25.075  0.00  0.00    +0.004 A 
ATOM     25  C   UNL     1      -2.978  -1.878  25.037  0.00  0.00    +0.007 A 
ATOM     26  C   UNL     1      -2.524  -2.462  24.670  0.00  0.00    +0.035 A 
ATOM     27  S   UNL     1      -1.791  -2.135  24.481  0.00  0.00    -0.089 S 
ENDBRANCH  22  23
ENDBRANCH  21  22
ENDBRANCH  18  19
ENDBRANCH  17  18
TORSDOF 7
ENDMDL
MODEL 7
REMARK VINA RESULT:     -11.8      2.673      5.362
REMARK  Name = 
REMARK  7 active torsions:
REMARK  status: ('A' for Active; 'I' for Inactive)
REMARK    1  A    between atoms: C_5  and  C_8
REMARK    2  A    between atoms: C_10  and  C_11
REMARK    3  A    between atoms: C_11  and  C_12
REMARK    4  A    between atoms: C_17  and  C_18
REMARK    5  A    between atoms: C_18  and  C_19
REMARK    6  A    between atoms: N_21  and  C_22
REMARK    7  A    between atoms: C_22  and  C_23
REMARK                            x       y       z     vdW  Elec       q    Type
REMARK                         _______ _______ _______ _____ _____    ______ ____
ROOT
ATOM     12  C   UNL     1      -1.704   0.150  24.790  0.00  0.00    +0.024 C 
ATOM     13  C   UNL     1      -1.149  -0.107  25.344  0.00  0.00    +0.089 C 
ATOM     14  N   UNL     1      -1.361  -0.670  25.908  0.00  0.00    -0.218 NA
ATOM     15  C   UNL     1      -2.126  -0.976  25.919  0.00  0.00    +0.089 C 
ATOM     16  C   UNL     1      -2.681  -0.719  25.365  0.00  0.00    +0.019 C 
ATOM     17  C   UNL     1      -2.470  -0.156  24.800  0.00  0.00    +0.012 C 
ENDROOT
BRANCH  12  11
ATOM     11  C   UNL     1      -1.493   0.713  24.226  0.00  0.00    +0.051 C 
BRANCH  11  10
ATOM      8  C   UNL     1      -0.923   2.698  24.767  0.00  0.00    +0.177 A 
ATOM      9  C   UNL     1      -1.490   2.155  24.513  0.00  0.00    +0.058 A 
ATOM     10  C   UNL     1      -1.128   1.415  24.459  0.00  0.00    +0.101 A 
ATOM     28  N   UNL     1      -0.338   1.501  24.681  0.00  0.00    -0.081 NA
ATOM     29  O   UNL     1      -0.211   2.294  24.871  0.00  0.00    -0.354 OA
BRANCH   8   5
ATOM      1  F   UNL     1      -1.417   5.921  25.280  0.00  0.00    -0.204 F 
ATOM      2  C   UNL     1      -1.294   5.115  25.152  0.00  0.00    +0.140 A 
ATOM      3  C   UNL     1      -0.638   4.862  24.718  0.00  0.00    +0.030 A 
ATOM      4  C   UNL     1      -0.515   4.056  24.590  0.00  0.00    +0.005 A 
ATOM      5  C   UNL     1      -1.046   3.504  24.895  0.00  0.00    +0.037 A 
ATOM      6  C   UNL     1      -1.701   3.757  25.328  0.00  0.00    +0.005 A 
ATOM      7  C   UNL     1      -1.824   4.562  25.457  0.00  0.00    +0.030 A 
ENDBRANCH   8   5
ENDBRANCH  11  10
ENDBRANCH  12  11
BRANCH  17  18
ATOM     18  C   UNL     1      -3.025   0.101  24.247  0.00  0.00    +0.087 C 
BRANCH  18  19
ATOM     19  C   UNL     1      -3.820   0.158  24.455  0.00  0.00    +0.242 C 
ATOM     20  O   UNL     1      -4.286  -0.522  24.496  0.00  0.00    -0.273 OA
ATOM     21  N   UNL     1      -4.151   0.895  24.623  0.00  0.00    -0.200 NA
BRANCH  21  22
ATOM     22  C   UNL     1      -4.948   0.953  24.831  0.00  0.00    +0.148 C 
BRANCH  22  23
ATOM     23  C   UNL     1      -5.254   1.671  25.096  0.00  0.00    +0.029 A 
ATOM     24  C   UNL     1      -5.081   2.416  24.784  0.00  0.00    +0.004 A 
ATOM     25  C   UNL     1      -5.506   2.977  25.213  0.00  0.00    +0.007 A 
ATOM     26  C   UNL     1      -5.941   2.580  25.791  0.00  0.00    +0.035 A 
ATOM     27  S   UNL     1      -5.785   1.773  25.718  0.00  0.00    -0.089 S 
ENDBRANCH  22  23
ENDBRANCH  21  22
ENDBRANCH  18  19
ENDBRANCH  17  18
TORSDOF 7
ENDMDL
