REMARK  Name = 
REMARK  10 active torsions:
REMARK  status: ('A' for Active; 'I' for Inactive)
REMARK    1  A    between atoms: O_2  and  C_3
REMARK    2  A    between atoms: C_3  and  C_4
REMARK    3  A    between atoms: N_6  and  C_7
REMARK    4  A    between atoms: C_11  and  C_13
REMARK    5  A    between atoms: N_15  and  C_16
REMARK    6  A    between atoms: C_16  and  C_17
REMARK    7  A    between atoms: C_16  and  C_27
REMARK    8  A    between atoms: C_17  and  C_18
REMARK    9  A    between atoms: C_30  and  C_32
REMARK   10  A    between atoms: C_32  and  O_33
REMARK                            x       y       z     vdW  Elec       q    Type
REMARK                         _______ _______ _______ _____ _____    ______ ____
ROOT
ATOM      7  C   UNL     1      -4.208  -3.297   0.000  0.00  0.00    +0.099 C 
ATOM      8  C   UNL     1      -4.923  -2.885   0.000  0.00  0.00    +0.043 C 
ATOM      9  C   UNL     1      -4.923  -2.060   0.000  0.00  0.00    +0.096 C 
ATOM     10  N   UNL     1      -4.208  -1.647   0.000  0.00  0.00    -0.271 N 
ATOM     11  C   UNL     1      -3.494  -2.060   0.000  0.00  0.00    +0.155 C 
ATOM     12  C   UNL     1      -3.494  -2.885   0.000  0.00  0.00    +0.051 C 
ATOM     30  C   UNL     1      -4.208  -0.822   0.000  0.00  0.00    +0.256 C 
ATOM     31  O   UNL     1      -3.494  -0.410   0.000  0.00  0.00    -0.272 OA
ENDROOT
BRANCH   7   6
ATOM      4  C   UNL     1      -4.923  -4.535   0.000  0.00  0.00    +0.272 C 
ATOM      5  O   UNL     1      -5.637  -4.122   0.000  0.00  0.00    -0.271 OA
ATOM      6  N   UNL     1      -4.208  -4.122   0.000  0.00  0.00    -0.205 NA
BRANCH   4   3
ATOM      3  C   UNL     1      -4.923  -5.360   0.000  0.00  0.00    +0.229 C 
BRANCH   3   2
ATOM      1  C   UNL     1      -5.637  -6.597   0.000  0.00  0.00    +0.175 C 
ATOM      2  O   UNL     1      -5.637  -5.772   0.000  0.00  0.00    -0.342 OA
ENDBRANCH   3   2
ENDBRANCH   4   3
ENDBRANCH   7   6
BRANCH  11  13
ATOM     13  C   UNL     1      -2.779  -1.647   0.000  0.00  0.00    +0.260 C 
ATOM     14  O   UNL     1      -2.065  -2.060   0.000  0.00  0.00    -0.272 OA
ATOM     15  N   UNL     1      -2.779  -0.822   0.000  0.00  0.00    -0.196 NA
BRANCH  15  16
ATOM     16  C   UNL     1      -2.065  -0.410   0.000  0.00  0.00    +0.179 C 
BRANCH  16  27
ATOM     27  C   UNL     1      -1.350  -0.822   0.000  0.00  0.00    +0.281 C 
ATOM     28  N   UNL     1      -0.636  -0.410   0.000  0.00  0.00    -0.086 NA
ATOM     29  O   UNL     1      -1.350  -1.647   0.000  0.00  0.00    -0.270 OA
ENDBRANCH  16  27
BRANCH  16  17
ATOM     17  C   UNL     1      -2.065   0.415   0.000  0.00  0.00    +0.059 C 
BRANCH  17  18
ATOM     18  C   UNL     1      -1.350   0.828   0.000  0.00  0.00    +0.001 A 
ATOM     19  C   UNL     1      -0.597   0.492   0.000  0.00  0.00    +0.095 A 
ATOM     20  N   UNL     1      -0.044   1.105   0.000  0.00  0.00    -0.244 NA
ATOM     21  C   UNL     1      -0.457   1.820   0.000  0.00  0.00    +0.081 A 
ATOM     22  C   UNL     1      -1.264   1.648   0.000  0.00  0.00    +0.015 A 
ATOM     23  C   UNL     1      -1.816   2.261   0.000  0.00  0.00    +0.001 A 
ATOM     24  C   UNL     1      -1.561   3.046   0.000  0.00  0.00    +0.000 A 
ATOM     25  C   UNL     1      -0.754   3.218   0.000  0.00  0.00    +0.002 A 
ATOM     26  C   UNL     1      -0.202   2.605   0.000  0.00  0.00    +0.019 A 
ENDBRANCH  17  18
ENDBRANCH  16  17
ENDBRANCH  15  16
ENDBRANCH  11  13
BRANCH  30  32
ATOM     32  C   UNL     1      -4.923  -0.410   0.000  0.00  0.00    +0.227 C 
BRANCH  32  33
ATOM     33  O   UNL     1      -5.637  -0.822   0.000  0.00  0.00    -0.342 OA
ATOM     34  C   UNL     1      -6.351  -0.410   0.000  0.00  0.00    +0.175 C 
ENDBRANCH  32  33
ENDBRANCH  30  32
TORSDOF 10
