MODEL 1
REMARK VINA RESULT:     -12.2      0.000      0.000
REMARK  Name = 
REMARK  5 active torsions:
REMARK  status: ('A' for Active; 'I' for Inactive)
REMARK    1  A    between atoms: C_5  and  N_8
REMARK    2  A    between atoms: C_13  and  C_14
REMARK    3  A    between atoms: C_16  and  C_17
REMARK    4  A    between atoms: C_17  and  S_18
REMARK    5  A    between atoms: S_18  and  C_21
REMARK                            x       y       z     vdW  Elec       q    Type
REMARK                         _______ _______ _______ _____ _____    ______ ____
ROOT
ATOM     14  C   UNL     1      -2.988   2.271  24.575  0.00  0.00    +0.251 A 
ATOM     15  N   UNL     1      -3.419   1.752  25.049  0.00  0.00    -0.192 NA
ATOM     16  C   UNL     1      -3.922   1.318  24.560  0.00  0.00    +0.205 A 
ATOM     28  N   UNL     1      -3.802   1.570  23.783  0.00  0.00    -0.059 NA
ATOM     29  O   UNL     1      -3.225   2.159  23.793  0.00  0.00    -0.336 OA
ENDROOT
BRANCH  14  13
ATOM      8  N   UNL     1      -1.610   2.666  24.902  0.00  0.00    -0.265 NA
ATOM      9  C   UNL     1      -1.251   3.352  25.186  0.00  0.00    +0.106 C 
ATOM     10  C   UNL     1      -1.839   3.920  25.297  0.00  0.00    +0.170 C 
ATOM     11  O   UNL     1      -1.725   4.689  25.575  0.00  0.00    -0.222 OA
ATOM     12  C   UNL     1      -2.561   3.585  25.082  0.00  0.00    +0.060 C 
ATOM     13  C   UNL     1      -2.419   2.809  24.838  0.00  0.00    +0.140 C 
BRANCH   8   5
ATOM      1  C   UNL     1      -0.074  -0.158  24.155  0.00  0.00    +0.090 C 
ATOM      2  N   UNL     1      -0.458   0.548  24.342  0.00  0.00    -0.271 NA
ATOM      3  C   UNL     1      -0.651   0.718  25.127  0.00  0.00    +0.074 C 
ATOM      4  C   UNL     1      -1.035   1.423  25.313  0.00  0.00    +0.033 C 
ATOM      5  C   UNL     1      -1.226   1.960  24.716  0.00  0.00    +0.061 C 
ATOM      6  C   UNL     1      -1.032   1.789  23.932  0.00  0.00    +0.033 C 
ATOM      7  C   UNL     1      -0.649   1.084  23.746  0.00  0.00    +0.074 C 
ENDBRANCH   8   5
ENDBRANCH  14  13
BRANCH  16  17
ATOM     17  C   UNL     1      -4.452   0.736  24.804  0.00  0.00    +0.224 C 
BRANCH  17  18
ATOM     18  S   UNL     1      -4.238  -0.061  24.762  0.00  0.00    +0.016 S 
ATOM     19  O   UNL     1      -4.137  -0.076  25.581  0.00  0.00    -0.168 OA
ATOM     20  O   UNL     1      -4.340  -0.046  23.944  0.00  0.00    -0.168 OA
BRANCH  18  21
ATOM     21  C   UNL     1      -4.025  -0.857  24.722  0.00  0.00    +0.106 A 
ATOM     22  C   UNL     1      -3.643  -1.214  25.359  0.00  0.00    +0.021 A 
ATOM     23  C   UNL     1      -3.429  -2.010  25.318  0.00  0.00    +0.031 A 
ATOM     24  C   UNL     1      -3.598  -2.448  24.640  0.00  0.00    +0.140 A 
ATOM     25  F   UNL     1      -3.384  -3.244  24.599  0.00  0.00    -0.204 F 
ATOM     26  C   UNL     1      -3.980  -2.090  24.002  0.00  0.00    +0.031 A 
ATOM     27  C   UNL     1      -4.194  -1.295  24.043  0.00  0.00    +0.021 A 
ENDBRANCH  18  21
ENDBRANCH  17  18
ENDBRANCH  16  17
TORSDOF 5
ENDMDL
MODEL 2
REMARK VINA RESULT:     -11.7      1.326      2.534
REMARK  Name = 
REMARK  5 active torsions:
REMARK  status: ('A' for Active; 'I' for Inactive)
REMARK    1  A    between atoms: C_5  and  N_8
REMARK    2  A    between atoms: C_13  and  C_14
REMARK    3  A    between atoms: C_16  and  C_17
REMARK    4  A    between atoms: C_17  and  S_18
REMARK    5  A    between atoms: S_18  and  C_21
REMARK                            x       y       z     vdW  Elec       q    Type
REMARK                         _______ _______ _______ _____ _____    ______ ____
ROOT
ATOM     14  C   UNL     1      -1.645   2.396  24.686  0.00  0.00    +0.251 A 
ATOM     15  N   UNL     1      -1.449   1.813  25.236  0.00  0.00    -0.192 NA
ATOM     16  C   UNL     1      -1.350   1.101  24.828  0.00  0.00    +0.205 A 
ATOM     28  N   UNL     1      -1.484   1.246  24.027  0.00  0.00    -0.059 NA
ATOM     29  O   UNL     1      -1.667   2.046  23.939  0.00  0.00    -0.336 OA
ENDROOT
BRANCH  14  13
ATOM      8  N   UNL     1      -2.537   3.536  24.944  0.00  0.00    -0.265 NA
ATOM      9  C   UNL     1      -2.427   4.337  25.107  0.00  0.00    +0.106 C 
ATOM     10  C   UNL     1      -1.615   4.487  25.118  0.00  0.00    +0.170 C 
ATOM     11  O   UNL     1      -1.259   5.217  25.260  0.00  0.00    -0.222 OA
ATOM     12  C   UNL     1      -1.224   3.778  24.961  0.00  0.00    +0.060 C 
ATOM     13  C   UNL     1      -1.793   3.190  24.854  0.00  0.00    +0.140 C 
BRANCH   8   5
ATOM      1  C   UNL     1      -5.440   1.987  24.697  0.00  0.00    +0.090 C 
ATOM      2  N   UNL     1      -4.714   2.374  24.759  0.00  0.00    -0.271 NA
ATOM      3  C   UNL     1      -4.382   2.512  25.502  0.00  0.00    +0.074 C 
ATOM      4  C   UNL     1      -3.657   2.899  25.564  0.00  0.00    +0.033 C 
ATOM      5  C   UNL     1      -3.263   3.148  24.882  0.00  0.00    +0.061 C 
ATOM      6  C   UNL     1      -3.595   3.010  24.140  0.00  0.00    +0.033 C 
ATOM      7  C   UNL     1      -4.320   2.624  24.078  0.00  0.00    +0.074 C 
ENDBRANCH   8   5
ENDBRANCH  14  13
BRANCH  16  17
ATOM     17  C   UNL     1      -1.151   0.375  25.163  0.00  0.00    +0.224 C 
BRANCH  17  18
ATOM     18  S   UNL     1      -1.687  -0.253  25.137  0.00  0.00    +0.016 S 
ATOM     19  O   UNL     1      -1.917  -0.087  25.912  0.00  0.00    -0.168 OA
ATOM     20  O   UNL     1      -1.457  -0.418  24.362  0.00  0.00    -0.168 OA
BRANCH  18  21
ATOM     21  C   UNL     1      -2.223  -0.879  25.112  0.00  0.00    +0.106 A 
ATOM     22  C   UNL     1      -2.034  -1.567  24.698  0.00  0.00    +0.021 A 
ATOM     23  C   UNL     1      -2.569  -2.193  24.673  0.00  0.00    +0.031 A 
ATOM     24  C   UNL     1      -3.295  -2.133  25.062  0.00  0.00    +0.140 A 
ATOM     25  F   UNL     1      -3.830  -2.759  25.036  0.00  0.00    -0.204 F 
ATOM     26  C   UNL     1      -3.484  -1.444  25.476  0.00  0.00    +0.031 A 
ATOM     27  C   UNL     1      -2.948  -0.818  25.501  0.00  0.00    +0.021 A 
ENDBRANCH  18  21
ENDBRANCH  17  18
ENDBRANCH  16  17
TORSDOF 5
ENDMDL
MODEL 3
REMARK VINA RESULT:     -11.3      2.441      4.983
REMARK  Name = 
REMARK  5 active torsions:
REMARK  status: ('A' for Active; 'I' for Inactive)
REMARK    1  A    between atoms: C_5  and  N_8
REMARK    2  A    between atoms: C_13  and  C_14
REMARK    3  A    between atoms: C_16  and  C_17
REMARK    4  A    between atoms: C_17  and  S_18
REMARK    5  A    between atoms: S_18  and  C_21
REMARK                            x       y       z     vdW  Elec       q    Type
REMARK                         _______ _______ _______ _____ _____    ______ ____
ROOT
ATOM     14  C   UNL     1      -1.220   0.096  24.572  0.00  0.00    +0.251 A 
ATOM     15  N   UNL     1      -0.970   0.545  25.217  0.00  0.00    -0.192 NA
ATOM     16  C   UNL     1      -0.608   1.228  24.927  0.00  0.00    +0.205 A 
ATOM     28  N   UNL     1      -0.635   1.201  24.103  0.00  0.00    -0.059 NA
ATOM     29  O   UNL     1      -1.013   0.501  23.883  0.00  0.00    -0.336 OA
ENDROOT
BRANCH  14  13
ATOM      8  N   UNL     1      -2.426  -0.743  24.618  0.00  0.00    -0.265 NA
ATOM      9  C   UNL     1      -2.572  -1.554  24.658  0.00  0.00    +0.106 C 
ATOM     10  C   UNL     1      -1.844  -1.943  24.674  0.00  0.00    +0.170 C 
ATOM     11  O   UNL     1      -1.731  -2.759  24.713  0.00  0.00    -0.222 OA
ATOM     12  C   UNL     1      -1.249  -1.372  24.644  0.00  0.00    +0.060 C 
ATOM     13  C   UNL     1      -1.609  -0.631  24.609  0.00  0.00    +0.140 C 
BRANCH   8   5
ATOM      1  C   UNL     1      -4.713   1.634  24.512  0.00  0.00    +0.090 C 
ATOM      2  N   UNL     1      -4.141   1.040  24.539  0.00  0.00    -0.271 NA
ATOM      3  C   UNL     1      -3.774   0.789  23.843  0.00  0.00    +0.074 C 
ATOM      4  C   UNL     1      -3.203   0.195  23.870  0.00  0.00    +0.033 C 
ATOM      5  C   UNL     1      -2.998  -0.149  24.592  0.00  0.00    +0.061 C 
ATOM      6  C   UNL     1      -3.365   0.103  25.286  0.00  0.00    +0.033 C 
ATOM      7  C   UNL     1      -3.936   0.696  25.260  0.00  0.00    +0.074 C 
ENDBRANCH   8   5
ENDBRANCH  14  13
BRANCH  16  17
ATOM     17  C   UNL     1      -0.277   1.832  25.382  0.00  0.00    +0.224 C 
BRANCH  17  18
ATOM     18  S   UNL     1      -0.593   2.594  25.348  0.00  0.00    +0.016 S 
ATOM     19  O   UNL     1      -1.005   2.453  26.049  0.00  0.00    -0.168 OA
ATOM     20  O   UNL     1      -0.181   2.734  24.648  0.00  0.00    -0.168 OA
BRANCH  18  21
ATOM     21  C   UNL     1      -0.908   3.355  25.315  0.00  0.00    +0.106 A 
ATOM     22  C   UNL     1      -0.484   3.962  24.952  0.00  0.00    +0.021 A 
ATOM     23  C   UNL     1      -0.799   4.723  24.919  0.00  0.00    +0.031 A 
ATOM     24  C   UNL     1      -1.539   4.878  25.250  0.00  0.00    +0.140 A 
ATOM     25  F   UNL     1      -1.855   5.640  25.217  0.00  0.00    -0.204 F 
ATOM     26  C   UNL     1      -1.964   4.271  25.613  0.00  0.00    +0.031 A 
ATOM     27  C   UNL     1      -1.648   3.510  25.646  0.00  0.00    +0.021 A 
ENDBRANCH  18  21
ENDBRANCH  17  18
ENDBRANCH  16  17
TORSDOF 5
ENDMDL
MODEL 4
REMARK VINA RESULT:     -11.3      1.585      2.565
REMARK  Name = 
REMARK  5 active torsions:
REMARK  status: ('A' for Active; 'I' for Inactive)
REMARK    1  A    between atoms: C_5  and  N_8
REMARK    2  A    between atoms: C_13  and  C_14
REMARK    3  A    between atoms: C_16  and  C_17
REMARK    4  A    between atoms: C_17  and  S_18
REMARK    5  A    between atoms: S_18  and  C_21
REMARK                            x       y       z     vdW  Elec       q    Type
REMARK                         _______ _______ _______ _____ _____    ______ ____
ROOT
ATOM     14  C   UNL     1      -3.869   2.049  24.779  0.00  0.00    +0.251 A 
ATOM     15  N   UNL     1      -3.492   1.441  25.189  0.00  0.00    -0.192 NA
ATOM     16  C   UNL     1      -3.062   0.993  24.645  0.00  0.00    +0.205 A 
ATOM     28  N   UNL     1      -3.173   1.326  23.898  0.00  0.00    -0.059 NA
ATOM     29  O   UNL     1      -3.672   1.978  23.980  0.00  0.00    -0.336 OA
ENDROOT
BRANCH  14  13
ATOM      8  N   UNL     1      -4.123   3.382  25.344  0.00  0.00    -0.265 NA
ATOM      9  C   UNL     1      -4.786   3.773  25.642  0.00  0.00    +0.106 C 
ATOM     10  C   UNL     1      -5.430   3.259  25.589  0.00  0.00    +0.170 C 
ATOM     11  O   UNL     1      -6.203   3.425  25.825  0.00  0.00    -0.222 OA
ATOM     12  C   UNL     1      -5.165   2.551  25.259  0.00  0.00    +0.060 C 
ATOM     13  C   UNL     1      -4.357   2.627  25.108  0.00  0.00    +0.140 C 
BRANCH   8   5
ATOM      1  C   UNL     1      -1.072   4.621  25.137  0.00  0.00    +0.090 C 
ATOM      2  N   UNL     1      -1.835   4.311  25.189  0.00  0.00    -0.271 NA
ATOM      3  C   UNL     1      -2.347   4.365  24.543  0.00  0.00    +0.074 C 
ATOM      4  C   UNL     1      -3.109   4.055  24.595  0.00  0.00    +0.033 C 
ATOM      5  C   UNL     1      -3.360   3.692  25.292  0.00  0.00    +0.061 C 
ATOM      6  C   UNL     1      -2.848   3.639  25.937  0.00  0.00    +0.033 C 
ATOM      7  C   UNL     1      -2.086   3.948  25.885  0.00  0.00    +0.074 C 
ENDBRANCH   8   5
ENDBRANCH  14  13
BRANCH  16  17
ATOM     17  C   UNL     1      -2.602   0.331  24.818  0.00  0.00    +0.224 C 
BRANCH  17  18
ATOM     18  S   UNL     1      -2.906  -0.426  24.693  0.00  0.00    +0.016 S 
ATOM     19  O   UNL     1      -2.580  -0.431  23.935  0.00  0.00    -0.168 OA
ATOM     20  O   UNL     1      -3.232  -0.422  25.450  0.00  0.00    -0.168 OA
BRANCH  18  21
ATOM     21  C   UNL     1      -3.209  -1.183  24.567  0.00  0.00    +0.106 A 
ATOM     22  C   UNL     1      -2.865  -1.832  24.941  0.00  0.00    +0.021 A 
ATOM     23  C   UNL     1      -3.168  -2.589  24.816  0.00  0.00    +0.031 A 
ATOM     24  C   UNL     1      -3.815  -2.697  24.316  0.00  0.00    +0.140 A 
ATOM     25  F   UNL     1      -4.118  -3.454  24.191  0.00  0.00    -0.204 F 
ATOM     26  C   UNL     1      -4.160  -2.047  23.942  0.00  0.00    +0.031 A 
ATOM     27  C   UNL     1      -3.857  -1.290  24.067  0.00  0.00    +0.021 A 
ENDBRANCH  18  21
ENDBRANCH  17  18
ENDBRANCH  16  17
TORSDOF 5
ENDMDL
MODEL 5
REMARK VINA RESULT:     -11.0      2.056      4.171
REMARK  Name = 
REMARK  5 active torsions:
REMARK  status: ('A' for Active; 'I' for Inactive)
REMARK    1  A    between atoms: C_5  and  N_8
REMARK    2  A    between atoms: C_13  and  C_14
REMARK    3  A    between atoms: C_16  and  C_17
REMARK    4  A    between atoms: C_17  and  S_18
REMARK    5  A    between atoms: S_18  and  C_21
REMARK                            x       y       z     vdW  Elec       q    Type
REMARK                         _______ _______ _______ _____ _____    ______ ____
ROOT
ATOM     14  C   UNL     1      -3.524   0.187  24.424  0.00  0.00    +0.251 A 
ATOM     15  N   UNL     1      -3.816   0.810  24.878  0.00  0.00    -0.192 NA
ATOM     16  C   UNL     1      -3.994   1.435  24.368  0.00  0.00    +0.205 A 
ATOM     28  N   UNL     1      -3.812   1.196  23.599  0.00  0.00    -0.059 NA
ATOM     29  O   UNL     1      -3.521   0.425  23.634  0.00  0.00    -0.336 OA
ENDROOT
BRANCH  14  13
ATOM      8  N   UNL     1      -2.505  -0.752  24.917  0.00  0.00    -0.265 NA
ATOM      9  C   UNL     1      -2.510  -1.537  25.174  0.00  0.00    +0.106 C 
ATOM     10  C   UNL     1      -3.285  -1.816  25.126  0.00  0.00    +0.170 C 
ATOM     11  O   UNL     1      -3.541  -2.573  25.329  0.00  0.00    -0.222 OA
ATOM     12  C   UNL     1      -3.759  -1.205  24.839  0.00  0.00    +0.060 C 
ATOM     13  C   UNL     1      -3.277  -0.547  24.710  0.00  0.00    +0.140 C 
BRANCH   8   5
ATOM      1  C   UNL     1       0.138   1.217  24.746  0.00  0.00    +0.090 C 
ATOM      2  N   UNL     1      -0.523   0.724  24.789  0.00  0.00    -0.271 NA
ATOM      3  C   UNL     1      -0.918   0.624  25.507  0.00  0.00    +0.074 C 
ATOM      4  C   UNL     1      -1.578   0.133  25.550  0.00  0.00    +0.033 C 
ATOM      5  C   UNL     1      -1.845  -0.260  24.874  0.00  0.00    +0.061 C 
ATOM      6  C   UNL     1      -1.450  -0.160  24.157  0.00  0.00    +0.033 C 
ATOM      7  C   UNL     1      -0.790   0.332  24.114  0.00  0.00    +0.074 C 
ENDBRANCH   8   5
ENDBRANCH  14  13
BRANCH  16  17
ATOM     17  C   UNL     1      -4.301   2.168  24.589  0.00  0.00    +0.224 C 
BRANCH  17  18
ATOM     18  S   UNL     1      -3.792   2.775  24.821  0.00  0.00    +0.016 S 
ATOM     19  O   UNL     1      -3.967   2.618  25.612  0.00  0.00    -0.168 OA
ATOM     20  O   UNL     1      -3.617   2.932  24.031  0.00  0.00    -0.168 OA
BRANCH  18  21
ATOM     21  C   UNL     1      -3.284   3.382  25.054  0.00  0.00    +0.106 A 
ATOM     22  C   UNL     1      -2.751   3.703  24.514  0.00  0.00    +0.021 A 
ATOM     23  C   UNL     1      -2.243   4.310  24.747  0.00  0.00    +0.031 A 
ATOM     24  C   UNL     1      -2.268   4.595  25.520  0.00  0.00    +0.140 A 
ATOM     25  F   UNL     1      -1.760   5.202  25.753  0.00  0.00    -0.204 F 
ATOM     26  C   UNL     1      -2.801   4.273  26.061  0.00  0.00    +0.031 A 
ATOM     27  C   UNL     1      -3.309   3.666  25.828  0.00  0.00    +0.021 A 
ENDBRANCH  18  21
ENDBRANCH  17  18
ENDBRANCH  16  17
TORSDOF 5
ENDMDL
MODEL 6
REMARK VINA RESULT:     -11.0      2.072      3.652
REMARK  Name = 
REMARK  5 active torsions:
REMARK  status: ('A' for Active; 'I' for Inactive)
REMARK    1  A    between atoms: C_5  and  N_8
REMARK    2  A    between atoms: C_13  and  C_14
REMARK    3  A    between atoms: C_16  and  C_17
REMARK    4  A    between atoms: C_17  and  S_18
REMARK    5  A    between atoms: S_18  and  C_21
REMARK                            x       y       z     vdW  Elec       q    Type
REMARK                         _______ _______ _______ _____ _____    ______ ____
ROOT
ATOM     14  C   UNL     1      -1.157   1.388  24.456  0.00  0.00    +0.251 A 
ATOM     15  N   UNL     1      -1.759   1.763  24.035  0.00  0.00    -0.192 NA
ATOM     16  C   UNL     1      -2.095   2.336  24.525  0.00  0.00    +0.205 A 
ATOM     28  N   UNL     1      -1.700   2.315  25.249  0.00  0.00    -0.059 NA
ATOM     29  O   UNL     1      -1.120   1.729  25.207  0.00  0.00    -0.336 OA
ENDROOT
BRANCH  14  13
ATOM      8  N   UNL     1      -0.797  -0.028  24.294  0.00  0.00    -0.265 NA
ATOM      9  C   UNL     1      -0.185  -0.436  23.919  0.00  0.00    +0.106 C 
ATOM     10  C   UNL     1       0.315   0.120  23.569  0.00  0.00    +0.170 C 
ATOM     11  O   UNL     1       0.998  -0.046  23.138  0.00  0.00    -0.222 OA
ATOM     12  C   UNL     1       0.012   0.871  23.728  0.00  0.00    +0.060 C 
ATOM     13  C   UNL     1      -0.675   0.779  24.175  0.00  0.00    +0.140 C 
BRANCH   8   5
ATOM      1  C   UNL     1      -3.293  -1.389  25.969  0.00  0.00    +0.090 C 
ATOM      2  N   UNL     1      -2.669  -1.049  25.550  0.00  0.00    -0.271 NA
ATOM      3  C   UNL     1      -2.706  -0.994  24.727  0.00  0.00    +0.074 C 
ATOM      4  C   UNL     1      -2.082  -0.654  24.309  0.00  0.00    +0.033 C 
ATOM      5  C   UNL     1      -1.421  -0.368  24.712  0.00  0.00    +0.061 C 
ATOM      6  C   UNL     1      -1.385  -0.424  25.534  0.00  0.00    +0.033 C 
ATOM      7  C   UNL     1      -2.008  -0.764  25.953  0.00  0.00    +0.074 C 
ENDBRANCH   8   5
ENDBRANCH  14  13
BRANCH  16  17
ATOM     17  C   UNL     1      -2.715   2.841  24.326  0.00  0.00    +0.224 C 
BRANCH  17  18
ATOM     18  S   UNL     1      -3.481   2.679  24.590  0.00  0.00    +0.016 S 
ATOM     19  O   UNL     1      -3.674   2.379  23.846  0.00  0.00    -0.168 OA
ATOM     20  O   UNL     1      -3.287   2.978  25.334  0.00  0.00    -0.168 OA
BRANCH  18  21
ATOM     21  C   UNL     1      -4.245   2.516  24.854  0.00  0.00    +0.106 A 
ATOM     22  C   UNL     1      -4.650   1.859  24.564  0.00  0.00    +0.021 A 
ATOM     23  C   UNL     1      -5.415   1.697  24.828  0.00  0.00    +0.031 A 
ATOM     24  C   UNL     1      -5.774   2.192  25.381  0.00  0.00    +0.140 A 
ATOM     25  F   UNL     1      -6.539   2.030  25.645  0.00  0.00    -0.204 F 
ATOM     26  C   UNL     1      -5.369   2.850  25.671  0.00  0.00    +0.031 A 
ATOM     27  C   UNL     1      -4.604   3.012  25.408  0.00  0.00    +0.021 A 
ENDBRANCH  18  21
ENDBRANCH  17  18
ENDBRANCH  16  17
TORSDOF 5
ENDMDL
