MODEL 1
REMARK VINA RESULT:     -11.7      0.000      0.000
REMARK  Name = 
REMARK  9 active torsions:
REMARK  status: ('A' for Active; 'I' for Inactive)
REMARK    1  A    between atoms: C_2  and  C_4
REMARK    2  A    between atoms: C_6  and  C_7
REMARK    3  A    between atoms: C_7  and  C_8
REMARK    4  A    between atoms: N_10  and  C_11
REMARK    5  A    between atoms: C_11  and  C_12
REMARK    6  A    between atoms: C_21  and  C_22
REMARK    7  A    between atoms: C_22  and  N_23
REMARK    8  A    between atoms: C_24  and  C_26
REMARK    9  A    between atoms: C_26  and  C_27
REMARK                            x       y       z     vdW  Elec       q    Type
REMARK                         _______ _______ _______ _____ _____    ______ ____
ROOT
ATOM      4  C   UNL     1      -3.513   1.464  24.034  0.00  0.00    +0.006 C 
ATOM      5  C   UNL     1      -3.640   2.230  24.313  0.00  0.00    +0.005 C 
ATOM      6  C   UNL     1      -4.292   2.391  24.793  0.00  0.00    +0.027 C 
ATOM     18  C   UNL     1      -4.816   1.787  24.995  0.00  0.00    -0.048 C 
ATOM     19  C   UNL     1      -5.466   1.948  25.475  0.00  0.00    +0.026 C 
ATOM     20  C   UNL     1      -4.688   1.021  24.716  0.00  0.00    -0.033 C 
ATOM     21  C   UNL     1      -4.037   0.859  24.236  0.00  0.00    +0.043 C 
ENDROOT
BRANCH   4   2
ATOM      1  C   UNL     1      -2.163   1.019  23.889  0.00  0.00    +0.000 C 
ATOM      2  C   UNL     1      -2.862   1.303  23.554  0.00  0.00    +0.000 C 
ATOM      3  C   UNL     1      -2.909   1.426  22.741  0.00  0.00    +0.000 C 
ENDBRANCH   4   2
BRANCH   6   7
ATOM      7  C   UNL     1      -4.418   3.157  25.072  0.00  0.00    +0.091 C 
BRANCH   7   8
ATOM      8  C   UNL     1      -3.864   3.511  25.572  0.00  0.00    +0.242 C 
ATOM      9  O   UNL     1      -3.924   3.412  26.389  0.00  0.00    -0.273 OA
ATOM     10  N   UNL     1      -3.250   3.962  25.254  0.00  0.00    -0.200 NA
BRANCH  10  11
ATOM     11  C   UNL     1      -2.698   4.315  25.755  0.00  0.00    +0.143 C 
BRANCH  11  12
ATOM     12  C   UNL     1      -1.994   4.613  25.445  0.00  0.00    +0.019 A 
ATOM     13  C   UNL     1      -1.331   4.128  25.385  0.00  0.00    +0.001 A 
ATOM     14  C   UNL     1      -0.627   4.427  25.074  0.00  0.00    +0.020 A 
ATOM     15  C   UNL     1      -0.587   5.212  24.824  0.00  0.00    +0.099 A 
ATOM     16  N   UNL     1      -1.250   5.698  24.884  0.00  0.00    -0.243 NA
ATOM     17  C   UNL     1      -1.954   5.399  25.194  0.00  0.00    +0.096 A 
ENDBRANCH  11  12
ENDBRANCH  10  11
ENDBRANCH   7   8
ENDBRANCH   6   7
BRANCH  21  22
ATOM     22  C   UNL     1      -3.910   0.094  23.957  0.00  0.00    +0.119 C 
BRANCH  22  23
ATOM     23  N   UNL     1      -4.016  -0.552  24.460  0.00  0.00    -0.205 NA
ATOM     24  C   UNL     1      -4.068  -1.313  24.148  0.00  0.00    +0.241 C 
ATOM     25  O   UNL     1      -4.015  -1.430  23.334  0.00  0.00    -0.273 OA
BRANCH  24  26
ATOM     26  C   UNL     1      -4.173  -1.959  24.651  0.00  0.00    +0.087 C 
BRANCH  26  27
ATOM     27  C   UNL     1      -3.648  -2.594  24.624  0.00  0.00    +0.009 C 
ATOM     28  C   UNL     1      -3.122  -3.230  24.596  0.00  0.00    +0.000 C 
ATOM     29  C   UNL     1      -3.270  -2.312  25.301  0.00  0.00    +0.000 C 
ATOM     30  C   UNL     1      -4.025  -2.878  23.947  0.00  0.00    +0.000 C 
ENDBRANCH  26  27
ENDBRANCH  24  26
ENDBRANCH  22  23
ENDBRANCH  21  22
TORSDOF 9
ENDMDL
MODEL 2
REMARK VINA RESULT:     -10.0      1.274      5.199
REMARK  Name = 
REMARK  9 active torsions:
REMARK  status: ('A' for Active; 'I' for Inactive)
REMARK    1  A    between atoms: C_2  and  C_4
REMARK    2  A    between atoms: C_6  and  C_7
REMARK    3  A    between atoms: C_7  and  C_8
REMARK    4  A    between atoms: N_10  and  C_11
REMARK    5  A    between atoms: C_11  and  C_12
REMARK    6  A    between atoms: C_21  and  C_22
REMARK    7  A    between atoms: C_22  and  N_23
REMARK    8  A    between atoms: C_24  and  C_26
REMARK    9  A    between atoms: C_26  and  C_27
REMARK                            x       y       z     vdW  Elec       q    Type
REMARK                         _______ _______ _______ _____ _____    ______ ____
ROOT
ATOM      4  C   UNL     1      -3.326   1.538  23.664  0.00  0.00    +0.006 C 
ATOM      5  C   UNL     1      -3.652   0.783  23.743  0.00  0.00    +0.005 C 
ATOM      6  C   UNL     1      -4.172   0.623  24.364  0.00  0.00    +0.027 C 
ATOM     18  C   UNL     1      -4.365   1.215  24.904  0.00  0.00    -0.048 C 
ATOM     19  C   UNL     1      -4.884   1.054  25.524  0.00  0.00    +0.026 C 
ATOM     20  C   UNL     1      -4.039   1.968  24.825  0.00  0.00    -0.033 C 
ATOM     21  C   UNL     1      -3.520   2.130  24.204  0.00  0.00    +0.043 C 
ENDROOT
BRANCH   4   2
ATOM      1  C   UNL     1      -3.089   2.044  22.349  0.00  0.00    +0.000 C 
ATOM      2  C   UNL     1      -2.807   1.698  23.043  0.00  0.00    +0.000 C 
ATOM      3  C   UNL     1      -2.007   1.514  23.117  0.00  0.00    +0.000 C 
ENDBRANCH   4   2
BRANCH   6   7
ATOM      7  C   UNL     1      -4.497  -0.131  24.443  0.00  0.00    +0.091 C 
BRANCH   7   8
ATOM      8  C   UNL     1      -4.041  -0.797  24.272  0.00  0.00    +0.242 C 
ATOM      9  O   UNL     1      -4.163  -1.213  23.570  0.00  0.00    -0.273 OA
ATOM     10  N   UNL     1      -3.461  -1.048  24.804  0.00  0.00    -0.200 NA
BRANCH  10  11
ATOM     11  C   UNL     1      -3.005  -1.714  24.633  0.00  0.00    +0.143 C 
BRANCH  11  12
ATOM     12  C   UNL     1      -2.220  -1.749  24.882  0.00  0.00    +0.019 A 
ATOM     13  C   UNL     1      -1.985  -1.351  25.564  0.00  0.00    +0.001 A 
ATOM     14  C   UNL     1      -1.198  -1.386  25.813  0.00  0.00    +0.020 A 
ATOM     15  C   UNL     1      -0.648  -1.821  25.378  0.00  0.00    +0.099 A 
ATOM     16  N   UNL     1      -0.883  -2.219  24.696  0.00  0.00    -0.243 NA
ATOM     17  C   UNL     1      -1.669  -2.184  24.447  0.00  0.00    +0.096 A 
ENDBRANCH  11  12
ENDBRANCH  10  11
ENDBRANCH   7   8
ENDBRANCH   6   7
BRANCH  21  22
ATOM     22  C   UNL     1      -3.194   2.883  24.125  0.00  0.00    +0.119 C 
BRANCH  22  23
ATOM     23  N   UNL     1      -2.728   3.198  24.729  0.00  0.00    -0.205 NA
ATOM     24  C   UNL     1      -2.636   4.014  24.796  0.00  0.00    +0.241 C 
ATOM     25  O   UNL     1      -3.010   4.517  24.260  0.00  0.00    -0.273 OA
BRANCH  24  26
ATOM     26  C   UNL     1      -2.170   4.329  25.400  0.00  0.00    +0.087 C 
BRANCH  26  27
ATOM     27  C   UNL     1      -1.504   4.780  25.216  0.00  0.00    +0.009 C 
ATOM     28  C   UNL     1      -0.838   5.231  25.032  0.00  0.00    +0.000 C 
ATOM     29  C   UNL     1      -1.029   4.110  25.291  0.00  0.00    +0.000 C 
ATOM     30  C   UNL     1      -1.979   5.451  25.141  0.00  0.00    +0.000 C 
ENDBRANCH  26  27
ENDBRANCH  24  26
ENDBRANCH  22  23
ENDBRANCH  21  22
TORSDOF 9
ENDMDL
MODEL 3
REMARK VINA RESULT:      -9.7      3.609      5.279
REMARK  Name = 
REMARK  9 active torsions:
REMARK  status: ('A' for Active; 'I' for Inactive)
REMARK    1  A    between atoms: C_2  and  C_4
REMARK    2  A    between atoms: C_6  and  C_7
REMARK    3  A    between atoms: C_7  and  C_8
REMARK    4  A    between atoms: N_10  and  C_11
REMARK    5  A    between atoms: C_11  and  C_12
REMARK    6  A    between atoms: C_21  and  C_22
REMARK    7  A    between atoms: C_22  and  N_23
REMARK    8  A    between atoms: C_24  and  C_26
REMARK    9  A    between atoms: C_26  and  C_27
REMARK                            x       y       z     vdW  Elec       q    Type
REMARK                         _______ _______ _______ _____ _____    ______ ____
ROOT
ATOM      4  C   UNL     1      -0.711   1.456  24.422  0.00  0.00    +0.006 C 
ATOM      5  C   UNL     1      -0.086   0.957  24.220  0.00  0.00    +0.005 C 
ATOM      6  C   UNL     1      -0.223   0.152  24.099  0.00  0.00    +0.027 C 
ATOM     18  C   UNL     1      -0.985  -0.153  24.180  0.00  0.00    -0.048 C 
ATOM     19  C   UNL     1      -1.121  -0.957  24.059  0.00  0.00    +0.026 C 
ATOM     20  C   UNL     1      -1.610   0.345  24.382  0.00  0.00    -0.033 C 
ATOM     21  C   UNL     1      -1.473   1.150  24.503  0.00  0.00    +0.043 C 
ENDROOT
BRANCH   4   2
ATOM      1  C   UNL     1      -0.360   2.534  25.292  0.00  0.00    +0.000 C 
ATOM      2  C   UNL     1      -0.574   2.260  24.543  0.00  0.00    +0.000 C 
ATOM      3  C   UNL     1      -0.650   2.790  23.917  0.00  0.00    +0.000 C 
ENDBRANCH   4   2
BRANCH   6   7
ATOM      7  C   UNL     1       0.403  -0.346  23.897  0.00  0.00    +0.091 C 
BRANCH   7   8
ATOM      8  C   UNL     1       0.878  -0.167  23.246  0.00  0.00    +0.242 C 
ATOM      9  O   UNL     1       0.540  -0.088  22.498  0.00  0.00    -0.273 OA
ATOM     10  N   UNL     1       1.692  -0.068  23.345  0.00  0.00    -0.200 NA
BRANCH  10  11
ATOM     11  C   UNL     1       2.167   0.111  22.694  0.00  0.00    +0.143 C 
BRANCH  11  12
ATOM     12  C   UNL     1       2.976   0.231  22.796  0.00  0.00    +0.019 A 
ATOM     13  C   UNL     1       3.300   0.980  22.683  0.00  0.00    +0.001 A 
ATOM     14  C   UNL     1       4.110   1.100  22.785  0.00  0.00    +0.020 A 
ATOM     15  C   UNL     1       4.596   0.469  23.001  0.00  0.00    +0.099 A 
ATOM     16  N   UNL     1       4.272  -0.280  23.115  0.00  0.00    -0.243 NA
ATOM     17  C   UNL     1       3.463  -0.400  23.012  0.00  0.00    +0.096 A 
ENDBRANCH  11  12
ENDBRANCH  10  11
ENDBRANCH   7   8
ENDBRANCH   6   7
BRANCH  21  22
ATOM     22  C   UNL     1      -2.098   1.649  24.705  0.00  0.00    +0.119 C 
BRANCH  22  23
ATOM     23  N   UNL     1      -2.861   1.485  24.436  0.00  0.00    -0.205 NA
ATOM     24  C   UNL     1      -3.509   1.862  24.779  0.00  0.00    +0.241 C 
ATOM     25  O   UNL     1      -3.395   2.403  25.392  0.00  0.00    -0.273 OA
BRANCH  24  26
ATOM     26  C   UNL     1      -4.272   1.698  24.511  0.00  0.00    +0.087 C 
BRANCH  26  27
ATOM     27  C   UNL     1      -4.924   2.030  24.891  0.00  0.00    +0.009 C 
ATOM     28  C   UNL     1      -5.577   2.362  25.273  0.00  0.00    +0.000 C 
ATOM     29  C   UNL     1      -5.054   1.319  25.289  0.00  0.00    +0.000 C 
ATOM     30  C   UNL     1      -4.794   2.742  24.495  0.00  0.00    +0.000 C 
ENDBRANCH  26  27
ENDBRANCH  24  26
ENDBRANCH  22  23
ENDBRANCH  21  22
TORSDOF 9
ENDMDL
MODEL 4
REMARK VINA RESULT:      -9.4      1.258      2.240
REMARK  Name = 
REMARK  9 active torsions:
REMARK  status: ('A' for Active; 'I' for Inactive)
REMARK    1  A    between atoms: C_2  and  C_4
REMARK    2  A    between atoms: C_6  and  C_7
REMARK    3  A    between atoms: C_7  and  C_8
REMARK    4  A    between atoms: N_10  and  C_11
REMARK    5  A    between atoms: C_11  and  C_12
REMARK    6  A    between atoms: C_21  and  C_22
REMARK    7  A    between atoms: C_22  and  N_23
REMARK    8  A    between atoms: C_24  and  C_26
REMARK    9  A    between atoms: C_26  and  C_27
REMARK                            x       y       z     vdW  Elec       q    Type
REMARK                         _______ _______ _______ _____ _____    ______ ____
ROOT
ATOM      4  C   UNL     1      -2.593   1.114  24.271  0.00  0.00    +0.006 C 
ATOM      5  C   UNL     1      -1.903   1.555  24.376  0.00  0.00    +0.005 C 
ATOM      6  C   UNL     1      -1.190   1.173  24.540  0.00  0.00    +0.027 C 
ATOM     18  C   UNL     1      -1.167   0.351  24.599  0.00  0.00    -0.048 C 
ATOM     19  C   UNL     1      -0.455  -0.031  24.762  0.00  0.00    +0.026 C 
ATOM     20  C   UNL     1      -1.856  -0.090  24.494  0.00  0.00    -0.033 C 
ATOM     21  C   UNL     1      -2.569   0.292  24.330  0.00  0.00    +0.043 C 
ENDROOT
BRANCH   4   2
ATOM      1  C   UNL     1      -3.487   1.714  23.332  0.00  0.00    +0.000 C 
ATOM      2  C   UNL     1      -3.305   1.496  24.108  0.00  0.00    +0.000 C 
ATOM      3  C   UNL     1      -3.834   1.661  24.717  0.00  0.00    +0.000 C 
ENDBRANCH   4   2
BRANCH   6   7
ATOM      7  C   UNL     1      -0.501   1.614  24.645  0.00  0.00    +0.091 C 
BRANCH   7   8
ATOM      8  C   UNL     1      -0.488   2.235  25.189  0.00  0.00    +0.242 C 
ATOM      9  O   UNL     1      -0.370   2.077  25.991  0.00  0.00    -0.273 OA
ATOM     10  N   UNL     1      -0.593   3.012  24.932  0.00  0.00    -0.200 NA
BRANCH  10  11
ATOM     11  C   UNL     1      -0.579   3.631  25.477  0.00  0.00    +0.143 C 
BRANCH  11  12
ATOM     12  C   UNL     1      -0.902   4.363  25.276  0.00  0.00    +0.019 A 
ATOM     13  C   UNL     1      -1.672   4.551  25.503  0.00  0.00    +0.001 A 
ATOM     14  C   UNL     1      -1.995   5.284  25.301  0.00  0.00    +0.020 A 
ATOM     15  C   UNL     1      -1.546   5.827  24.872  0.00  0.00    +0.099 A 
ATOM     16  N   UNL     1      -0.777   5.640  24.645  0.00  0.00    -0.243 NA
ATOM     17  C   UNL     1      -0.454   4.908  24.847  0.00  0.00    +0.096 A 
ENDBRANCH  11  12
ENDBRANCH  10  11
ENDBRANCH   7   8
ENDBRANCH   6   7
BRANCH  21  22
ATOM     22  C   UNL     1      -3.258  -0.149  24.226  0.00  0.00    +0.119 C 
BRANCH  22  23
ATOM     23  N   UNL     1      -3.364  -0.856  24.637  0.00  0.00    -0.205 NA
ATOM     24  C   UNL     1      -3.879  -1.430  24.347  0.00  0.00    +0.241 C 
ATOM     25  O   UNL     1      -4.291  -1.297  23.645  0.00  0.00    -0.273 OA
BRANCH  24  26
ATOM     26  C   UNL     1      -3.985  -2.137  24.759  0.00  0.00    +0.087 C 
BRANCH  26  27
ATOM     27  C   UNL     1      -3.779  -2.854  24.408  0.00  0.00    +0.009 C 
ATOM     28  C   UNL     1      -3.574  -3.572  24.055  0.00  0.00    +0.000 C 
ATOM     29  C   UNL     1      -3.230  -2.992  25.008  0.00  0.00    +0.000 C 
ATOM     30  C   UNL     1      -4.328  -2.717  23.807  0.00  0.00    +0.000 C 
ENDBRANCH  26  27
ENDBRANCH  24  26
ENDBRANCH  22  23
ENDBRANCH  21  22
TORSDOF 9
ENDMDL
MODEL 5
REMARK VINA RESULT:      -9.3      2.213      4.744
REMARK  Name = 
REMARK  9 active torsions:
REMARK  status: ('A' for Active; 'I' for Inactive)
REMARK    1  A    between atoms: C_2  and  C_4
REMARK    2  A    between atoms: C_6  and  C_7
REMARK    3  A    between atoms: C_7  and  C_8
REMARK    4  A    between atoms: N_10  and  C_11
REMARK    5  A    between atoms: C_11  and  C_12
REMARK    6  A    between atoms: C_21  and  C_22
REMARK    7  A    between atoms: C_22  and  N_23
REMARK    8  A    between atoms: C_24  and  C_26
REMARK    9  A    between atoms: C_26  and  C_27
REMARK                            x       y       z     vdW  Elec       q    Type
REMARK                         _______ _______ _______ _____ _____    ______ ____
ROOT
ATOM      4  C   UNL     1      -2.174   3.254  24.817  0.00  0.00    +0.006 C 
ATOM      5  C   UNL     1      -1.504   2.924  24.465  0.00  0.00    +0.005 C 
ATOM      6  C   UNL     1      -1.582   2.460  23.787  0.00  0.00    +0.027 C 
ATOM     18  C   UNL     1      -2.328   2.325  23.463  0.00  0.00    -0.048 C 
ATOM     19  C   UNL     1      -2.405   1.861  22.786  0.00  0.00    +0.026 C 
ATOM     20  C   UNL     1      -2.997   2.654  23.815  0.00  0.00    -0.033 C 
ATOM     21  C   UNL     1      -2.920   3.119  24.493  0.00  0.00    +0.043 C 
ENDROOT
BRANCH   4   2
ATOM      1  C   UNL     1      -2.003   4.536  25.425  0.00  0.00    +0.000 C 
ATOM      2  C   UNL     1      -2.096   3.718  25.495  0.00  0.00    +0.000 C 
ATOM      3  C   UNL     1      -2.111   3.367  26.240  0.00  0.00    +0.000 C 
ENDBRANCH   4   2
BRANCH   6   7
ATOM      7  C   UNL     1      -0.913   2.131  23.435  0.00  0.00    +0.091 C 
BRANCH   7   8
ATOM      8  C   UNL     1      -0.424   1.627  23.870  0.00  0.00    +0.242 C 
ATOM      9  O   UNL     1       0.289   1.906  24.176  0.00  0.00    -0.273 OA
ATOM     10  N   UNL     1      -0.650   0.843  23.998  0.00  0.00    -0.200 NA
BRANCH  10  11
ATOM     11  C   UNL     1      -0.161   0.340  24.433  0.00  0.00    +0.143 C 
BRANCH  11  12
ATOM     12  C   UNL     1      -0.444  -0.394  24.682  0.00  0.00    +0.019 A 
ATOM     13  C   UNL     1      -0.798  -0.469  25.423  0.00  0.00    +0.001 A 
ATOM     14  C   UNL     1      -1.081  -1.204  25.672  0.00  0.00    +0.020 A 
ATOM     15  C   UNL     1      -1.010  -1.861  25.180  0.00  0.00    +0.099 A 
ATOM     16  N   UNL     1      -0.656  -1.786  24.439  0.00  0.00    -0.243 NA
ATOM     17  C   UNL     1      -0.373  -1.052  24.190  0.00  0.00    +0.096 A 
ENDBRANCH  11  12
ENDBRANCH  10  11
ENDBRANCH   7   8
ENDBRANCH   6   7
BRANCH  21  22
ATOM     22  C   UNL     1      -3.589   3.448  24.845  0.00  0.00    +0.119 C 
BRANCH  22  23
ATOM     23  N   UNL     1      -4.324   3.085  24.757  0.00  0.00    -0.205 NA
ATOM     24  C   UNL     1      -4.971   3.350  25.194  0.00  0.00    +0.241 C 
ATOM     25  O   UNL     1      -4.883   3.979  25.720  0.00  0.00    -0.273 OA
BRANCH  24  26
ATOM     26  C   UNL     1      -5.706   2.986  25.106  0.00  0.00    +0.087 C 
BRANCH  26  27
ATOM     27  C   UNL     1      -5.928   2.375  25.614  0.00  0.00    +0.009 C 
ATOM     28  C   UNL     1      -6.151   1.764  26.122  0.00  0.00    +0.000 C 
ATOM     29  C   UNL     1      -5.832   2.877  26.261  0.00  0.00    +0.000 C 
ATOM     30  C   UNL     1      -6.025   1.872  24.967  0.00  0.00    +0.000 C 
ENDBRANCH  26  27
ENDBRANCH  24  26
ENDBRANCH  22  23
ENDBRANCH  21  22
TORSDOF 9
ENDMDL
MODEL 6
REMARK VINA RESULT:      -9.2      2.748      4.577
REMARK  Name = 
REMARK  9 active torsions:
REMARK  status: ('A' for Active; 'I' for Inactive)
REMARK    1  A    between atoms: C_2  and  C_4
REMARK    2  A    between atoms: C_6  and  C_7
REMARK    3  A    between atoms: C_7  and  C_8
REMARK    4  A    between atoms: N_10  and  C_11
REMARK    5  A    between atoms: C_11  and  C_12
REMARK    6  A    between atoms: C_21  and  C_22
REMARK    7  A    between atoms: C_22  and  N_23
REMARK    8  A    between atoms: C_24  and  C_26
REMARK    9  A    between atoms: C_26  and  C_27
REMARK                            x       y       z     vdW  Elec       q    Type
REMARK                         _______ _______ _______ _____ _____    ______ ____
ROOT
ATOM      4  C   UNL     1      -1.432   1.066  24.371  0.00  0.00    +0.006 C 
ATOM      5  C   UNL     1      -2.172   0.874  24.682  0.00  0.00    +0.005 C 
ATOM      6  C   UNL     1      -2.366   0.085  24.826  0.00  0.00    +0.027 C 
ATOM     18  C   UNL     1      -1.822  -0.512  24.659  0.00  0.00    -0.048 C 
ATOM     19  C   UNL     1      -2.017  -1.300  24.803  0.00  0.00    +0.026 C 
ATOM     20  C   UNL     1      -1.083  -0.320  24.348  0.00  0.00    -0.033 C 
ATOM     21  C   UNL     1      -0.887   0.469  24.204  0.00  0.00    +0.043 C 
ENDROOT
BRANCH   4   2
ATOM      1  C   UNL     1      -0.876   2.304  24.818  0.00  0.00    +0.000 C 
ATOM      2  C   UNL     1      -1.237   1.854  24.227  0.00  0.00    +0.000 C 
ATOM      3  C   UNL     1      -1.403   2.193  23.495  0.00  0.00    +0.000 C 
ENDBRANCH   4   2
BRANCH   6   7
ATOM      7  C   UNL     1      -3.106  -0.106  25.138  0.00  0.00    +0.091 C 
BRANCH   7   8
ATOM      8  C   UNL     1      -3.788   0.225  24.812  0.00  0.00    +0.242 C 
ATOM      9  O   UNL     1      -4.073  -0.047  24.087  0.00  0.00    -0.273 OA
ATOM     10  N   UNL     1      -4.185   0.829  25.211  0.00  0.00    -0.200 NA
BRANCH  10  11
ATOM     11  C   UNL     1      -4.867   1.160  24.885  0.00  0.00    +0.143 C 
BRANCH  11  12
ATOM     12  C   UNL     1      -5.155   1.876  25.175  0.00  0.00    +0.019 A 
ATOM     13  C   UNL     1      -4.922   2.586  24.827  0.00  0.00    +0.001 A 
ATOM     14  C   UNL     1      -5.212   3.303  25.117  0.00  0.00    +0.020 A 
ATOM     15  C   UNL     1      -5.734   3.308  25.756  0.00  0.00    +0.099 A 
ATOM     16  N   UNL     1      -5.967   2.598  26.104  0.00  0.00    -0.243 NA
ATOM     17  C   UNL     1      -5.678   1.882  25.814  0.00  0.00    +0.096 A 
ENDBRANCH  11  12
ENDBRANCH  10  11
ENDBRANCH   7   8
ENDBRANCH   6   7
BRANCH  21  22
ATOM     22  C   UNL     1      -0.148   0.661  23.893  0.00  0.00    +0.119 C 
BRANCH  22  23
ATOM     23  N   UNL     1       0.308   0.081  23.523  0.00  0.00    -0.205 NA
ATOM     24  C   UNL     1       1.078   0.251  23.284  0.00  0.00    +0.241 C 
ATOM     25  O   UNL     1       1.393   1.003  23.413  0.00  0.00    -0.273 OA
BRANCH  24  26
ATOM     26  C   UNL     1       1.534  -0.328  22.914  0.00  0.00    +0.087 C 
BRANCH  26  27
ATOM     27  C   UNL     1       2.127  -0.112  22.384  0.00  0.00    +0.009 C 
ATOM     28  C   UNL     1       2.721   0.105  21.852  0.00  0.00    +0.000 C 
ATOM     29  C   UNL     1       2.636   0.042  23.014  0.00  0.00    +0.000 C 
ATOM     30  C   UNL     1       1.619  -0.265  21.752  0.00  0.00    +0.000 C 
ENDBRANCH  26  27
ENDBRANCH  24  26
ENDBRANCH  22  23
ENDBRANCH  21  22
TORSDOF 9
ENDMDL
