MODEL 1
REMARK VINA RESULT:      -9.3      0.000      0.000
REMARK  Name = 
REMARK  7 active torsions:
REMARK  status: ('A' for Active; 'I' for Inactive)
REMARK    1  A    between atoms: N_2  and  C_4
REMARK    2  A    between atoms: C_4  and  C_5
REMARK    3  A    between atoms: N_7  and  C_10
REMARK    4  A    between atoms: C_14  and  O_18
REMARK    5  A    between atoms: O_18  and  C_19
REMARK    6  A    between atoms: N_21  and  C_22
REMARK    7  A    between atoms: C_25  and  C_28
REMARK                            x       y       z     vdW  Elec       q    Type
REMARK                         _______ _______ _______ _____ _____    ______ ____
ROOT
ATOM     10  C   UNL     1       1.620   0.305  22.990  0.00  0.00    +0.166 C 
ATOM     11  C   UNL     1       1.288  -0.299  22.538  0.00  0.00    +0.169 C 
ATOM     12  O   UNL     1       0.490  -0.357  22.738  0.00  0.00    -0.348 OA
ATOM     13  C   UNL     1       0.329   0.210  23.313  0.00  0.00    +0.187 C 
ATOM     14  C   UNL     1      -0.263   0.526  23.794  0.00  0.00    +0.229 C 
ATOM     15  C   UNL     1       0.069   1.130  24.246  0.00  0.00    +0.188 C 
ATOM     16  O   UNL     1       0.867   1.188  24.046  0.00  0.00    -0.348 OA
ATOM     17  C   UNL     1       1.028   0.620  23.470  0.00  0.00    +0.171 C 
ENDROOT
BRANCH  10   7
ATOM      5  C   UNL     1       3.739   0.540  22.864  0.00  0.00    +0.117 A 
ATOM      6  C   UNL     1       3.064   0.066  22.844  0.00  0.00    +0.115 A 
ATOM      7  N   UNL     1       2.408   0.551  22.967  0.00  0.00    -0.227 N 
ATOM      8  N   UNL     1       2.677   1.324  23.063  0.00  0.00    -0.064 NA
ATOM      9  N   UNL     1       3.500   1.318  22.999  0.00  0.00    -0.132 NA
BRANCH   5   4
ATOM      4  C   UNL     1       4.517   0.281  22.766  0.00  0.00    +0.122 C 
BRANCH   4   2
ATOM      1  C   UNL     1       5.420   0.654  23.807  0.00  0.00    +0.090 C 
ATOM      2  N   UNL     1       4.969   0.078  23.425  0.00  0.00    -0.265 NA
ATOM      3  C   UNL     1       4.971  -0.699  23.702  0.00  0.00    +0.090 C 
ENDBRANCH   4   2
ENDBRANCH   5   4
ENDBRANCH  10   7
BRANCH  14  18
ATOM     18  O   UNL     1      -1.051   0.280  23.817  0.00  0.00    -0.432 OA
BRANCH  18  19
ATOM     19  C   UNL     1      -1.628   0.773  24.139  0.00  0.00    +0.425 C 
ATOM     20  O   UNL     1      -1.485   1.165  24.851  0.00  0.00    -0.224 OA
ATOM     21  N   UNL     1      -2.348   0.875  23.751  0.00  0.00    -0.142 NA
BRANCH  21  22
ATOM     22  C   UNL     1      -2.925   1.368  24.074  0.00  0.00    +0.077 A 
ATOM     23  C   UNL     1      -2.998   2.146  23.811  0.00  0.00    +0.016 A 
ATOM     24  C   UNL     1      -3.574   2.639  24.133  0.00  0.00    -0.003 A 
ATOM     25  C   UNL     1      -4.080   2.354  24.719  0.00  0.00    -0.023 A 
ATOM     26  C   UNL     1      -4.008   1.575  24.983  0.00  0.00    -0.003 A 
ATOM     27  C   UNL     1      -3.431   1.083  24.660  0.00  0.00    +0.016 A 
BRANCH  25  28
ATOM     28  C   UNL     1      -4.657   2.846  25.042  0.00  0.00    +0.019 C 
ATOM     29  C   UNL     1      -5.235   3.340  25.366  0.00  0.00    +0.004 C 
ATOM     30  C   UNL     1      -5.245   2.327  24.785  0.00  0.00    +0.004 C 
ATOM     31  C   UNL     1      -4.070   3.366  25.299  0.00  0.00    +0.004 C 
ENDBRANCH  25  28
ENDBRANCH  21  22
ENDBRANCH  18  19
ENDBRANCH  14  18
TORSDOF 7
ENDMDL
MODEL 2
REMARK VINA RESULT:      -8.5      0.900      1.260
REMARK  Name = 
REMARK  7 active torsions:
REMARK  status: ('A' for Active; 'I' for Inactive)
REMARK    1  A    between atoms: N_2  and  C_4
REMARK    2  A    between atoms: C_4  and  C_5
REMARK    3  A    between atoms: N_7  and  C_10
REMARK    4  A    between atoms: C_14  and  O_18
REMARK    5  A    between atoms: O_18  and  C_19
REMARK    6  A    between atoms: N_21  and  C_22
REMARK    7  A    between atoms: C_25  and  C_28
REMARK                            x       y       z     vdW  Elec       q    Type
REMARK                         _______ _______ _______ _____ _____    ______ ____
ROOT
ATOM     10  C   UNL     1       0.745  -0.260  23.359  0.00  0.00    +0.166 C 
ATOM     11  C   UNL     1       0.567  -1.036  23.572  0.00  0.00    +0.169 C 
ATOM     12  O   UNL     1      -0.185  -1.040  23.912  0.00  0.00    -0.348 OA
ATOM     13  C   UNL     1      -0.471  -0.267  23.909  0.00  0.00    +0.187 C 
ATOM     14  C   UNL     1      -1.111   0.209  24.116  0.00  0.00    +0.229 C 
ATOM     15  C   UNL     1      -0.933   0.986  23.903  0.00  0.00    +0.188 C 
ATOM     16  O   UNL     1      -0.181   0.990  23.564  0.00  0.00    -0.348 OA
ATOM     17  C   UNL     1       0.105   0.216  23.567  0.00  0.00    +0.171 C 
ENDROOT
BRANCH  10   7
ATOM      5  C   UNL     1       2.624   0.587  22.797  0.00  0.00    +0.117 A 
ATOM      6  C   UNL     1       2.026   0.464  23.352  0.00  0.00    +0.115 A 
ATOM      7  N   UNL     1       1.443  -0.004  23.001  0.00  0.00    -0.227 N 
ATOM      8  N   UNL     1       1.681  -0.170  22.229  0.00  0.00    -0.064 NA
ATOM      9  N   UNL     1       2.411   0.194  22.103  0.00  0.00    -0.132 NA
BRANCH   5   4
ATOM      4  C   UNL     1       3.313   1.024  22.916  0.00  0.00    +0.122 C 
BRANCH   4   2
ATOM      1  C   UNL     1       4.347   0.591  22.030  0.00  0.00    +0.090 C 
ATOM      2  N   UNL     1       4.049   0.673  22.796  0.00  0.00    -0.265 NA
ATOM      3  C   UNL     1       4.489   0.403  23.440  0.00  0.00    +0.090 C 
ENDBRANCH   4   2
ENDBRANCH   5   4
ENDBRANCH  10   7
BRANCH  14  18
ATOM     18  O   UNL     1      -1.810  -0.047  24.475  0.00  0.00    -0.432 OA
BRANCH  18  19
ATOM     19  C   UNL     1      -2.382   0.502  24.702  0.00  0.00    +0.425 C 
ATOM     20  O   UNL     1      -2.202   1.076  25.266  0.00  0.00    -0.224 OA
ATOM     21  N   UNL     1      -3.135   0.477  24.366  0.00  0.00    -0.142 NA
BRANCH  21  22
ATOM     22  C   UNL     1      -3.707   1.025  24.594  0.00  0.00    +0.077 A 
ATOM     23  C   UNL     1      -3.762   1.751  24.206  0.00  0.00    +0.016 A 
ATOM     24  C   UNL     1      -4.334   2.299  24.433  0.00  0.00    -0.003 A 
ATOM     25  C   UNL     1      -4.853   2.122  25.050  0.00  0.00    -0.023 A 
ATOM     26  C   UNL     1      -4.799   1.396  25.439  0.00  0.00    -0.003 A 
ATOM     27  C   UNL     1      -4.226   0.848  25.211  0.00  0.00    +0.016 A 
BRANCH  25  28
ATOM     28  C   UNL     1      -5.425   2.669  25.278  0.00  0.00    +0.019 C 
ATOM     29  C   UNL     1      -5.999   3.218  25.506  0.00  0.00    +0.004 C 
ATOM     30  C   UNL     1      -4.833   3.214  25.460  0.00  0.00    +0.004 C 
ATOM     31  C   UNL     1      -6.018   2.126  25.096  0.00  0.00    +0.004 C 
ENDBRANCH  25  28
ENDBRANCH  21  22
ENDBRANCH  18  19
ENDBRANCH  14  18
TORSDOF 7
ENDMDL
MODEL 3
REMARK VINA RESULT:      -8.2      3.334      5.091
REMARK  Name = 
REMARK  7 active torsions:
REMARK  status: ('A' for Active; 'I' for Inactive)
REMARK    1  A    between atoms: N_2  and  C_4
REMARK    2  A    between atoms: C_4  and  C_5
REMARK    3  A    between atoms: N_7  and  C_10
REMARK    4  A    between atoms: C_14  and  O_18
REMARK    5  A    between atoms: O_18  and  C_19
REMARK    6  A    between atoms: N_21  and  C_22
REMARK    7  A    between atoms: C_25  and  C_28
REMARK                            x       y       z     vdW  Elec       q    Type
REMARK                         _______ _______ _______ _____ _____    ______ ____
ROOT
ATOM     10  C   UNL     1      -1.376  -1.161  25.081  0.00  0.00    +0.166 C 
ATOM     11  C   UNL     1      -1.098  -1.006  25.842  0.00  0.00    +0.169 C 
ATOM     12  O   UNL     1      -0.664  -0.305  25.816  0.00  0.00    -0.348 OA
ATOM     13  C   UNL     1      -0.674  -0.026  25.041  0.00  0.00    +0.187 C 
ATOM     14  C   UNL     1      -0.413   0.578  24.544  0.00  0.00    +0.229 C 
ATOM     15  C   UNL     1      -0.691   0.423  23.783  0.00  0.00    +0.188 C 
ATOM     16  O   UNL     1      -1.125  -0.278  23.809  0.00  0.00    -0.348 OA
ATOM     17  C   UNL     1      -1.114  -0.556  24.586  0.00  0.00    +0.171 C 
ENDROOT
BRANCH  10   7
ATOM      5  C   UNL     1      -2.884  -2.599  24.617  0.00  0.00    +0.117 A 
ATOM      6  C   UNL     1      -2.658  -1.858  24.899  0.00  0.00    +0.115 A 
ATOM      7  N   UNL     1      -1.835  -1.808  24.856  0.00  0.00    -0.227 N 
ATOM      8  N   UNL     1      -1.553  -2.519  24.548  0.00  0.00    -0.064 NA
ATOM      9  N   UNL     1      -2.201  -3.009  24.400  0.00  0.00    -0.132 NA
BRANCH   5   4
ATOM      4  C   UNL     1      -3.658  -2.882  24.563  0.00  0.00    +0.122 C 
BRANCH   4   2
ATOM      1  C   UNL     1      -4.327  -3.134  23.326  0.00  0.00    +0.090 C 
ATOM      2  N   UNL     1      -4.148  -2.625  23.951  0.00  0.00    -0.265 NA
ATOM      3  C   UNL     1      -4.458  -1.860  23.963  0.00  0.00    +0.090 C 
ENDBRANCH   4   2
ENDBRANCH   5   4
ENDBRANCH  10   7
BRANCH  14  18
ATOM     18  O   UNL     1       0.047   1.226  24.770  0.00  0.00    -0.432 OA
BRANCH  18  19
ATOM     19  C   UNL     1      -0.256   1.990  24.703  0.00  0.00    +0.425 C 
ATOM     20  O   UNL     1      -0.352   2.333  23.959  0.00  0.00    -0.224 OA
ATOM     21  N   UNL     1      -0.464   2.412  25.381  0.00  0.00    -0.142 NA
BRANCH  21  22
ATOM     22  C   UNL     1      -0.767   3.177  25.315  0.00  0.00    +0.077 A 
ATOM     23  C   UNL     1      -0.287   3.789  25.040  0.00  0.00    +0.016 A 
ATOM     24  C   UNL     1      -0.589   4.552  24.974  0.00  0.00    -0.003 A 
ATOM     25  C   UNL     1      -1.373   4.706  25.183  0.00  0.00    -0.023 A 
ATOM     26  C   UNL     1      -1.854   4.093  25.458  0.00  0.00    -0.003 A 
ATOM     27  C   UNL     1      -1.550   3.329  25.524  0.00  0.00    +0.016 A 
BRANCH  25  28
ATOM     28  C   UNL     1      -1.677   5.469  25.117  0.00  0.00    +0.019 C 
ATOM     29  C   UNL     1      -1.981   6.234  25.052  0.00  0.00    +0.004 C 
ATOM     30  C   UNL     1      -0.974   5.718  24.764  0.00  0.00    +0.004 C 
ATOM     31  C   UNL     1      -2.379   5.220  25.471  0.00  0.00    +0.004 C 
ENDBRANCH  25  28
ENDBRANCH  21  22
ENDBRANCH  18  19
ENDBRANCH  14  18
TORSDOF 7
ENDMDL
MODEL 4
REMARK VINA RESULT:      -7.6      4.229      5.408
REMARK  Name = 
REMARK  7 active torsions:
REMARK  status: ('A' for Active; 'I' for Inactive)
REMARK    1  A    between atoms: N_2  and  C_4
REMARK    2  A    between atoms: C_4  and  C_5
REMARK    3  A    between atoms: N_7  and  C_10
REMARK    4  A    between atoms: C_14  and  O_18
REMARK    5  A    between atoms: O_18  and  C_19
REMARK    6  A    between atoms: N_21  and  C_22
REMARK    7  A    between atoms: C_25  and  C_28
REMARK                            x       y       z     vdW  Elec       q    Type
REMARK                         _______ _______ _______ _____ _____    ______ ____
ROOT
ATOM     10  C   UNL     1      -4.115  -0.641  24.782  0.00  0.00    +0.166 C 
ATOM     11  C   UNL     1      -4.544  -0.414  25.448  0.00  0.00    +0.169 C 
ATOM     12  O   UNL     1      -4.644   0.404  25.420  0.00  0.00    -0.348 OA
ATOM     13  C   UNL     1      -4.276   0.683  24.738  0.00  0.00    +0.187 C 
ATOM     14  C   UNL     1      -4.110   1.361  24.297  0.00  0.00    +0.229 C 
ATOM     15  C   UNL     1      -3.680   1.134  23.631  0.00  0.00    +0.188 C 
ATOM     16  O   UNL     1      -3.581   0.316  23.659  0.00  0.00    -0.348 OA
ATOM     17  C   UNL     1      -3.949   0.037  24.343  0.00  0.00    +0.171 C 
ENDROOT
BRANCH  10   7
ATOM      5  C   UNL     1      -3.188  -2.542  24.491  0.00  0.00    +0.117 A 
ATOM      6  C   UNL     1      -3.180  -1.777  24.798  0.00  0.00    +0.115 A 
ATOM      7  N   UNL     1      -3.890  -1.411  24.588  0.00  0.00    -0.227 N 
ATOM      8  N   UNL     1      -4.336  -1.951  24.151  0.00  0.00    -0.064 NA
ATOM      9  N   UNL     1      -3.902  -2.650  24.091  0.00  0.00    -0.132 NA
BRANCH   5   4
ATOM      4  C   UNL     1      -2.586  -3.102  24.569  0.00  0.00    +0.122 C 
BRANCH   4   2
ATOM      1  C   UNL     1      -1.483  -2.910  23.682  0.00  0.00    +0.090 C 
ATOM      2  N   UNL     1      -1.801  -2.883  24.443  0.00  0.00    -0.265 NA
ATOM      3  C   UNL     1      -1.334  -2.636  25.077  0.00  0.00    +0.090 C 
ENDBRANCH   4   2
ENDBRANCH   5   4
ENDBRANCH  10   7
BRANCH  14  18
ATOM     18  O   UNL     1      -4.334   2.131  24.491  0.00  0.00    -0.432 OA
BRANCH  18  19
ATOM     19  C   UNL     1      -3.782   2.743  24.456  0.00  0.00    +0.425 C 
ATOM     20  O   UNL     1      -3.716   3.201  23.773  0.00  0.00    -0.224 OA
ATOM     21  N   UNL     1      -3.296   2.898  25.104  0.00  0.00    -0.142 NA
BRANCH  21  22
ATOM     22  C   UNL     1      -2.744   3.510  25.070  0.00  0.00    +0.077 A 
ATOM     23  C   UNL     1      -2.955   4.270  25.310  0.00  0.00    +0.016 A 
ATOM     24  C   UNL     1      -2.403   4.882  25.275  0.00  0.00    -0.003 A 
ATOM     25  C   UNL     1      -1.639   4.734  25.000  0.00  0.00    -0.023 A 
ATOM     26  C   UNL     1      -1.428   3.973  24.759  0.00  0.00    -0.003 A 
ATOM     27  C   UNL     1      -1.981   3.361  24.794  0.00  0.00    +0.016 A 
BRANCH  25  28
ATOM     28  C   UNL     1      -1.087   5.344  24.965  0.00  0.00    +0.019 C 
ATOM     29  C   UNL     1      -0.534   5.957  24.931  0.00  0.00    +0.004 C 
ATOM     30  C   UNL     1      -0.487   4.795  24.829  0.00  0.00    +0.004 C 
ATOM     31  C   UNL     1      -1.687   5.894  25.101  0.00  0.00    +0.004 C 
ENDBRANCH  25  28
ENDBRANCH  21  22
ENDBRANCH  18  19
ENDBRANCH  14  18
TORSDOF 7
ENDMDL
MODEL 5
REMARK VINA RESULT:      -7.6      1.975      6.918
REMARK  Name = 
REMARK  7 active torsions:
REMARK  status: ('A' for Active; 'I' for Inactive)
REMARK    1  A    between atoms: N_2  and  C_4
REMARK    2  A    between atoms: C_4  and  C_5
REMARK    3  A    between atoms: N_7  and  C_10
REMARK    4  A    between atoms: C_14  and  O_18
REMARK    5  A    between atoms: O_18  and  C_19
REMARK    6  A    between atoms: N_21  and  C_22
REMARK    7  A    between atoms: C_25  and  C_28
REMARK                            x       y       z     vdW  Elec       q    Type
REMARK                         _______ _______ _______ _____ _____    ______ ____
ROOT
ATOM     10  C   UNL     1      -1.409   0.265  24.285  0.00  0.00    +0.166 C 
ATOM     11  C   UNL     1      -1.461   1.030  23.979  0.00  0.00    +0.169 C 
ATOM     12  O   UNL     1      -0.776   1.177  23.545  0.00  0.00    -0.348 OA
ATOM     13  C   UNL     1      -0.300   0.505  23.582  0.00  0.00    +0.187 C 
ATOM     14  C   UNL     1       0.418   0.179  23.337  0.00  0.00    +0.229 C 
ATOM     15  C   UNL     1       0.470  -0.585  23.643  0.00  0.00    +0.188 C 
ATOM     16  O   UNL     1      -0.216  -0.732  24.077  0.00  0.00    -0.348 OA
ATOM     17  C   UNL     1      -0.692  -0.059  24.039  0.00  0.00    +0.171 C 
ENDROOT
BRANCH  10   7
ATOM      5  C   UNL     1      -3.059  -0.788  25.137  0.00  0.00    +0.117 A 
ATOM      6  C   UNL     1      -2.652  -0.496  24.482  0.00  0.00    +0.115 A 
ATOM      7  N   UNL     1      -1.976  -0.109  24.754  0.00  0.00    -0.227 N 
ATOM      8  N   UNL     1      -1.965  -0.162  25.577  0.00  0.00    -0.064 NA
ATOM      9  N   UNL     1      -2.635  -0.581  25.814  0.00  0.00    -0.132 NA
BRANCH   5   4
ATOM      4  C   UNL     1      -3.767  -1.212  25.118  0.00  0.00    +0.122 C 
BRANCH   4   2
ATOM      1  C   UNL     1      -4.203  -1.894  23.941  0.00  0.00    +0.090 C 
ATOM      2  N   UNL     1      -3.821  -1.904  24.673  0.00  0.00    -0.265 NA
ATOM      3  C   UNL     1      -3.493  -2.606  24.957  0.00  0.00    +0.090 C 
ENDBRANCH   4   2
ENDBRANCH   5   4
ENDBRANCH  10   7
BRANCH  14  18
ATOM     18  O   UNL     1       0.984   0.554  22.868  0.00  0.00    -0.432 OA
BRANCH  18  19
ATOM     19  C   UNL     1       1.779   0.539  23.090  0.00  0.00    +0.425 C 
ATOM     20  O   UNL     1       2.013   0.875  23.806  0.00  0.00    -0.224 OA
ATOM     21  N   UNL     1       2.339   0.190  22.596  0.00  0.00    -0.142 NA
BRANCH  21  22
ATOM     22  C   UNL     1       3.134   0.176  22.817  0.00  0.00    +0.077 A 
ATOM     23  C   UNL     1       3.450  -0.496  23.176  0.00  0.00    +0.016 A 
ATOM     24  C   UNL     1       4.244  -0.510  23.398  0.00  0.00    -0.003 A 
ATOM     25  C   UNL     1       4.723   0.148  23.261  0.00  0.00    -0.023 A 
ATOM     26  C   UNL     1       4.406   0.820  22.902  0.00  0.00    -0.003 A 
ATOM     27  C   UNL     1       3.612   0.834  22.680  0.00  0.00    +0.016 A 
BRANCH  25  28
ATOM     28  C   UNL     1       5.516   0.134  23.482  0.00  0.00    +0.019 C 
ATOM     29  C   UNL     1       6.312   0.121  23.704  0.00  0.00    +0.004 C 
ATOM     30  C   UNL     1       5.711  -0.224  22.764  0.00  0.00    +0.004 C 
ATOM     31  C   UNL     1       5.323   0.492  24.199  0.00  0.00    +0.004 C 
ENDBRANCH  25  28
ENDBRANCH  21  22
ENDBRANCH  18  19
ENDBRANCH  14  18
TORSDOF 7
ENDMDL
MODEL 6
REMARK VINA RESULT:      -7.6      4.026      5.610
REMARK  Name = 
REMARK  7 active torsions:
REMARK  status: ('A' for Active; 'I' for Inactive)
REMARK    1  A    between atoms: N_2  and  C_4
REMARK    2  A    between atoms: C_4  and  C_5
REMARK    3  A    between atoms: N_7  and  C_10
REMARK    4  A    between atoms: C_14  and  O_18
REMARK    5  A    between atoms: O_18  and  C_19
REMARK    6  A    between atoms: N_21  and  C_22
REMARK    7  A    between atoms: C_25  and  C_28
REMARK                            x       y       z     vdW  Elec       q    Type
REMARK                         _______ _______ _______ _____ _____    ______ ____
ROOT
ATOM     10  C   UNL     1      -3.175   3.783  25.348  0.00  0.00    +0.166 C 
ATOM     11  C   UNL     1      -3.618   3.569  26.009  0.00  0.00    +0.169 C 
ATOM     12  O   UNL     1      -4.082   2.919  25.805  0.00  0.00    -0.348 OA
ATOM     13  C   UNL     1      -3.926   2.731  25.018  0.00  0.00    +0.187 C 
ATOM     14  C   UNL     1      -4.116   2.214  24.404  0.00  0.00    +0.229 C 
ATOM     15  C   UNL     1      -3.673   2.428  23.742  0.00  0.00    +0.188 C 
ATOM     16  O   UNL     1      -3.209   3.078  23.946  0.00  0.00    -0.348 OA
ATOM     17  C   UNL     1      -3.365   3.266  24.735  0.00  0.00    +0.171 C 
ENDROOT
BRANCH  10   7
ATOM      5  C   UNL     1      -1.504   5.099  25.153  0.00  0.00    +0.117 A 
ATOM      6  C   UNL     1      -1.830   4.341  25.137  0.00  0.00    +0.115 A 
ATOM      7  N   UNL     1      -2.635   4.407  25.306  0.00  0.00    -0.227 N 
ATOM      8  N   UNL     1      -2.807   5.205  25.427  0.00  0.00    -0.064 NA
ATOM      9  N   UNL     1      -2.107   5.633  25.332  0.00  0.00    -0.132 NA
BRANCH   5   4
ATOM      4  C   UNL     1      -0.713   5.289  25.015  0.00  0.00    +0.122 C 
BRANCH   4   2
ATOM      1  C   UNL     1       0.128   4.142  24.880  0.00  0.00    +0.090 C 
ATOM      2  N   UNL     1      -0.247   4.796  24.545  0.00  0.00    -0.265 NA
ATOM      3  C   UNL     1      -0.156   4.957  23.740  0.00  0.00    +0.090 C 
ENDBRANCH   4   2
ENDBRANCH   5   4
ENDBRANCH  10   7
BRANCH  14  18
ATOM     18  O   UNL     1      -4.655   1.590  24.445  0.00  0.00    -0.432 OA
BRANCH  18  19
ATOM     19  C   UNL     1      -4.396   0.813  24.346  0.00  0.00    +0.425 C 
ATOM     20  O   UNL     1      -3.978   0.601  23.667  0.00  0.00    -0.224 OA
ATOM     21  N   UNL     1      -4.555   0.248  24.925  0.00  0.00    -0.142 NA
BRANCH  21  22
ATOM     22  C   UNL     1      -4.296  -0.529  24.826  0.00  0.00    +0.077 A 
ATOM     23  C   UNL     1      -3.755  -0.855  25.356  0.00  0.00    +0.016 A 
ATOM     24  C   UNL     1      -3.496  -1.631  25.257  0.00  0.00    -0.003 A 
ATOM     25  C   UNL     1      -3.779  -2.083  24.627  0.00  0.00    -0.023 A 
ATOM     26  C   UNL     1      -4.320  -1.758  24.096  0.00  0.00    -0.003 A 
ATOM     27  C   UNL     1      -4.579  -0.981  24.196  0.00  0.00    +0.016 A 
BRANCH  25  28
ATOM     28  C   UNL     1      -3.521  -2.860  24.527  0.00  0.00    +0.019 C 
ATOM     29  C   UNL     1      -3.262  -3.638  24.427  0.00  0.00    +0.004 C 
ATOM     30  C   UNL     1      -3.172  -2.840  25.275  0.00  0.00    +0.004 C 
ATOM     31  C   UNL     1      -3.869  -2.880  23.780  0.00  0.00    +0.004 C 
ENDBRANCH  25  28
ENDBRANCH  21  22
ENDBRANCH  18  19
ENDBRANCH  14  18
TORSDOF 7
ENDMDL
MODEL 7
REMARK VINA RESULT:      -7.4      1.269      6.941
REMARK  Name = 
REMARK  7 active torsions:
REMARK  status: ('A' for Active; 'I' for Inactive)
REMARK    1  A    between atoms: N_2  and  C_4
REMARK    2  A    between atoms: C_4  and  C_5
REMARK    3  A    between atoms: N_7  and  C_10
REMARK    4  A    between atoms: C_14  and  O_18
REMARK    5  A    between atoms: O_18  and  C_19
REMARK    6  A    between atoms: N_21  and  C_22
REMARK    7  A    between atoms: C_25  and  C_28
REMARK                            x       y       z     vdW  Elec       q    Type
REMARK                         _______ _______ _______ _____ _____    ______ ____
ROOT
ATOM     10  C   UNL     1      -2.162   2.064  23.915  0.00  0.00    +0.166 C 
ATOM     11  C   UNL     1      -2.279   1.929  23.110  0.00  0.00    +0.169 C 
ATOM     12  O   UNL     1      -1.659   1.457  22.839  0.00  0.00    -0.348 OA
ATOM     13  C   UNL     1      -1.160   1.300  23.476  0.00  0.00    +0.187 C 
ATOM     14  C   UNL     1      -0.468   0.912  23.704  0.00  0.00    +0.229 C 
ATOM     15  C   UNL     1      -0.352   1.047  24.509  0.00  0.00    +0.188 C 
ATOM     16  O   UNL     1      -0.972   1.519  24.780  0.00  0.00    -0.348 OA
ATOM     17  C   UNL     1      -1.471   1.676  24.141  0.00  0.00    +0.171 C 
ENDROOT
BRANCH  10   7
ATOM      5  C   UNL     1      -3.633   2.859  25.243  0.00  0.00    +0.117 A 
ATOM      6  C   UNL     1      -3.308   2.228  24.823  0.00  0.00    +0.115 A 
ATOM      7  N   UNL     1      -2.652   2.509  24.408  0.00  0.00    -0.227 N 
ATOM      8  N   UNL     1      -2.572   3.314  24.571  0.00  0.00    -0.064 NA
ATOM      9  N   UNL     1      -3.179   3.531  25.088  0.00  0.00    -0.132 NA
BRANCH   5   4
ATOM      4  C   UNL     1      -4.297   2.825  25.733  0.00  0.00    +0.122 C 
BRANCH   4   2
ATOM      1  C   UNL     1      -5.330   3.757  25.408  0.00  0.00    +0.090 C 
ATOM      2  N   UNL     1      -5.045   2.982  25.424  0.00  0.00    -0.265 NA
ATOM      3  C   UNL     1      -5.509   2.366  25.130  0.00  0.00    +0.090 C 
ENDBRANCH   4   2
ENDBRANCH   5   4
ENDBRANCH  10   7
BRANCH  14  18
ATOM     18  O   UNL     1       0.022   0.466  23.211  0.00  0.00    -0.432 OA
BRANCH  18  19
ATOM     19  C   UNL     1       0.840   0.487  23.315  0.00  0.00    +0.425 C 
ATOM     20  O   UNL     1       1.165   0.901  23.950  0.00  0.00    -0.224 OA
ATOM     21  N   UNL     1       1.333   0.095  22.783  0.00  0.00    -0.142 NA
BRANCH  21  22
ATOM     22  C   UNL     1       2.152   0.115  22.886  0.00  0.00    +0.077 A 
ATOM     23  C   UNL     1       2.550  -0.552  23.161  0.00  0.00    +0.016 A 
ATOM     24  C   UNL     1       3.367  -0.532  23.265  0.00  0.00    -0.003 A 
ATOM     25  C   UNL     1       3.788   0.158  23.093  0.00  0.00    -0.023 A 
ATOM     26  C   UNL     1       3.390   0.826  22.818  0.00  0.00    -0.003 A 
ATOM     27  C   UNL     1       2.572   0.804  22.715  0.00  0.00    +0.016 A 
BRANCH  25  28
ATOM     28  C   UNL     1       4.605   0.179  23.196  0.00  0.00    +0.019 C 
ATOM     29  C   UNL     1       5.425   0.201  23.299  0.00  0.00    +0.004 C 
ATOM     30  C   UNL     1       4.573  -0.536  23.606  0.00  0.00    +0.004 C 
ATOM     31  C   UNL     1       4.639   0.894  22.786  0.00  0.00    +0.004 C 
ENDBRANCH  25  28
ENDBRANCH  21  22
ENDBRANCH  18  19
ENDBRANCH  14  18
TORSDOF 7
ENDMDL
MODEL 8
REMARK VINA RESULT:      -6.2     15.011     16.804
REMARK  Name = 
REMARK  7 active torsions:
REMARK  status: ('A' for Active; 'I' for Inactive)
REMARK    1  A    between atoms: N_2  and  C_4
REMARK    2  A    between atoms: C_4  and  C_5
REMARK    3  A    between atoms: N_7  and  C_10
REMARK    4  A    between atoms: C_14  and  O_18
REMARK    5  A    between atoms: O_18  and  C_19
REMARK    6  A    between atoms: N_21  and  C_22
REMARK    7  A    between atoms: C_25  and  C_28
REMARK                            x       y       z     vdW  Elec       q    Type
REMARK                         _______ _______ _______ _____ _____    ______ ____
ROOT
ATOM     10  C   UNL     1      -7.537 -10.062  15.939  0.00  0.00    +0.166 C 
ATOM     11  C   UNL     1      -8.263 -10.127  15.552  0.00  0.00    +0.169 C 
ATOM     12  O   UNL     1      -8.117 -10.151  14.741  0.00  0.00    -0.348 OA
ATOM     13  C   UNL     1      -7.303 -10.101  14.625  0.00  0.00    +0.187 C 
ATOM     14  C   UNL     1      -6.709 -10.085  14.053  0.00  0.00    +0.229 C 
ATOM     15  C   UNL     1      -5.983 -10.020  14.439  0.00  0.00    +0.188 C 
ATOM     16  O   UNL     1      -6.128  -9.996  15.251  0.00  0.00    -0.348 OA
ATOM     17  C   UNL     1      -6.944 -10.046  15.366  0.00  0.00    +0.171 C 
ENDROOT
BRANCH  10   7
ATOM      5  C   UNL     1      -7.126 -10.350  18.014  0.00  0.00    +0.117 A 
ATOM      6  C   UNL     1      -7.156 -10.633  17.240  0.00  0.00    +0.115 A 
ATOM      7  N   UNL     1      -7.424 -10.021  16.755  0.00  0.00    -0.227 N 
ATOM      8  N   UNL     1      -7.559  -9.360  17.230  0.00  0.00    -0.064 NA
ATOM      9  N   UNL     1      -7.375  -9.564  18.009  0.00  0.00    -0.132 NA
BRANCH   5   4
ATOM      4  C   UNL     1      -6.888 -10.780  18.678  0.00  0.00    +0.122 C 
BRANCH   4   2
ATOM      1  C   UNL     1      -5.463 -10.775  18.786  0.00  0.00    +0.090 C 
ATOM      2  N   UNL     1      -6.204 -10.563  19.084  0.00  0.00    -0.265 NA
ATOM      3  C   UNL     1      -6.258 -10.136  19.788  0.00  0.00    +0.090 C 
ENDBRANCH   4   2
ENDBRANCH   5   4
ENDBRANCH  10   7
BRANCH  14  18
ATOM     18  O   UNL     1      -6.822 -10.127  13.237  0.00  0.00    -0.432 OA
BRANCH  18  19
ATOM     19  C   UNL     1      -6.228  -9.869  12.724  0.00  0.00    +0.425 C 
ATOM     20  O   UNL     1      -5.684  -9.303  12.976  0.00  0.00    -0.224 OA
ATOM     21  N   UNL     1      -6.180 -10.177  11.961  0.00  0.00    -0.142 NA
BRANCH  21  22
ATOM     22  C   UNL     1      -5.586  -9.920  11.449  0.00  0.00    +0.077 A 
ATOM     23  C   UNL     1      -5.653  -9.189  11.073  0.00  0.00    +0.016 A 
ATOM     24  C   UNL     1      -5.061  -8.932  10.562  0.00  0.00    -0.003 A 
ATOM     25  C   UNL     1      -4.399  -9.406  10.424  0.00  0.00    -0.023 A 
ATOM     26  C   UNL     1      -4.332 -10.138  10.800  0.00  0.00    -0.003 A 
ATOM     27  C   UNL     1      -4.926 -10.395  11.312  0.00  0.00    +0.016 A 
BRANCH  25  28
ATOM     28  C   UNL     1      -3.806  -9.150   9.913  0.00  0.00    +0.019 C 
ATOM     29  C   UNL     1      -3.212  -8.893   9.400  0.00  0.00    +0.004 C 
ATOM     30  C   UNL     1      -4.379  -8.905   9.371  0.00  0.00    +0.004 C 
ATOM     31  C   UNL     1      -3.234  -9.394  10.453  0.00  0.00    +0.004 C 
ENDBRANCH  25  28
ENDBRANCH  21  22
ENDBRANCH  18  19
ENDBRANCH  14  18
TORSDOF 7
ENDMDL
MODEL 9
REMARK VINA RESULT:      -6.0     15.808     17.981
REMARK  Name = 
REMARK  7 active torsions:
REMARK  status: ('A' for Active; 'I' for Inactive)
REMARK    1  A    between atoms: N_2  and  C_4
REMARK    2  A    between atoms: C_4  and  C_5
REMARK    3  A    between atoms: N_7  and  C_10
REMARK    4  A    between atoms: C_14  and  O_18
REMARK    5  A    between atoms: O_18  and  C_19
REMARK    6  A    between atoms: N_21  and  C_22
REMARK    7  A    between atoms: C_25  and  C_28
REMARK                            x       y       z     vdW  Elec       q    Type
REMARK                         _______ _______ _______ _____ _____    ______ ____
ROOT
ATOM     10  C   UNL     1      -8.305 -10.107  12.774  0.00  0.00    +0.166 C 
ATOM     11  C   UNL     1      -8.358 -10.774  12.292  0.00  0.00    +0.169 C 
ATOM     12  O   UNL     1      -7.729 -10.753  11.759  0.00  0.00    -0.348 OA
ATOM     13  C   UNL     1      -7.288 -10.074  11.911  0.00  0.00    +0.187 C 
ATOM     14  C   UNL     1      -6.626  -9.640  11.677  0.00  0.00    +0.229 C 
ATOM     15  C   UNL     1      -6.573  -8.973  12.159  0.00  0.00    +0.188 C 
ATOM     16  O   UNL     1      -7.202  -8.994  12.692  0.00  0.00    -0.348 OA
ATOM     17  C   UNL     1      -7.644  -9.675  12.539  0.00  0.00    +0.171 C 
ENDROOT
BRANCH  10   7
ATOM      5  C   UNL     1      -9.376  -9.796  14.595  0.00  0.00    +0.117 A 
ATOM      6  C   UNL     1      -8.733 -10.106  14.182  0.00  0.00    +0.115 A 
ATOM      7  N   UNL     1      -8.823  -9.908  13.385  0.00  0.00    -0.227 N 
ATOM      8  N   UNL     1      -9.522  -9.477  13.307  0.00  0.00    -0.064 NA
ATOM      9  N   UNL     1      -9.864  -9.408  14.055  0.00  0.00    -0.132 NA
BRANCH   5   4
ATOM      4  C   UNL     1      -9.508  -9.864  15.407  0.00  0.00    +0.122 C 
BRANCH   4   2
ATOM      1  C   UNL     1      -9.921  -8.652  16.042  0.00  0.00    +0.090 C 
ATOM      2  N   UNL     1      -9.345  -9.227  15.905  0.00  0.00    -0.265 NA
ATOM      3  C   UNL     1      -8.605  -9.164  16.267  0.00  0.00    +0.090 C 
ENDBRANCH   4   2
ENDBRANCH   5   4
ENDBRANCH  10   7
BRANCH  14  18
ATOM     18  O   UNL     1      -6.108  -9.839  11.066  0.00  0.00    -0.432 OA
BRANCH  18  19
ATOM     19  C   UNL     1      -5.308  -9.649  11.125  0.00  0.00    +0.425 C 
ATOM     20  O   UNL     1      -5.080  -8.889  11.350  0.00  0.00    -0.224 OA
ATOM     21  N   UNL     1      -4.735 -10.219  10.960  0.00  0.00    -0.142 NA
BRANCH  21  22
ATOM     22  C   UNL     1      -3.934 -10.029  11.019  0.00  0.00    +0.077 A 
ATOM     23  C   UNL     1      -3.498 -10.277  11.673  0.00  0.00    +0.016 A 
ATOM     24  C   UNL     1      -2.698 -10.088  11.733  0.00  0.00    -0.003 A 
ATOM     25  C   UNL     1      -2.333  -9.648  11.137  0.00  0.00    -0.023 A 
ATOM     26  C   UNL     1      -2.769  -9.399  10.482  0.00  0.00    -0.003 A 
ATOM     27  C   UNL     1      -3.569  -9.589  10.423  0.00  0.00    +0.016 A 
BRANCH  25  28
ATOM     28  C   UNL     1      -1.533  -9.458  11.196  0.00  0.00    +0.019 C 
ATOM     29  C   UNL     1      -0.732  -9.267  11.254  0.00  0.00    +0.004 C 
ATOM     30  C   UNL     1      -1.435 -10.046  11.766  0.00  0.00    +0.004 C 
ATOM     31  C   UNL     1      -1.631  -8.870  10.625  0.00  0.00    +0.004 C 
ENDBRANCH  25  28
ENDBRANCH  21  22
ENDBRANCH  18  19
ENDBRANCH  14  18
TORSDOF 7
ENDMDL
MODEL 10
REMARK VINA RESULT:      -5.7     16.021     18.098
REMARK  Name = 
REMARK  7 active torsions:
REMARK  status: ('A' for Active; 'I' for Inactive)
REMARK    1  A    between atoms: N_2  and  C_4
REMARK    2  A    between atoms: C_4  and  C_5
REMARK    3  A    between atoms: N_7  and  C_10
REMARK    4  A    between atoms: C_14  and  O_18
REMARK    5  A    between atoms: O_18  and  C_19
REMARK    6  A    between atoms: N_21  and  C_22
REMARK    7  A    between atoms: C_25  and  C_28
REMARK                            x       y       z     vdW  Elec       q    Type
REMARK                         _______ _______ _______ _____ _____    ______ ____
ROOT
ATOM     10  C   UNL     1      -9.829  -9.700  13.950  0.00  0.00    +0.166 C 
ATOM     11  C   UNL     1     -10.330  -9.763  13.298  0.00  0.00    +0.169 C 
ATOM     12  O   UNL     1      -9.863  -9.792  12.619  0.00  0.00    -0.348 OA
ATOM     13  C   UNL     1      -9.073  -9.748  12.851  0.00  0.00    +0.187 C 
ATOM     14  C   UNL     1      -8.295  -9.739  12.576  0.00  0.00    +0.229 C 
ATOM     15  C   UNL     1      -7.794  -9.676  13.228  0.00  0.00    +0.188 C 
ATOM     16  O   UNL     1      -8.261  -9.647  13.906  0.00  0.00    -0.348 OA
ATOM     17  C   UNL     1      -9.052  -9.691  13.674  0.00  0.00    +0.171 C 
ENDROOT
BRANCH  10   7
ATOM      5  C   UNL     1     -10.469  -9.176  15.918  0.00  0.00    +0.117 A 
ATOM      6  C   UNL     1     -10.274  -8.967  15.145  0.00  0.00    +0.115 A 
ATOM      7  N   UNL     1     -10.064  -9.655  14.740  0.00  0.00    -0.227 N 
ATOM      8  N   UNL     1     -10.129 -10.289  15.263  0.00  0.00    -0.064 NA
ATOM      9  N   UNL     1     -10.380  -9.993  15.992  0.00  0.00    -0.132 NA
BRANCH   5   4
ATOM      4  C   UNL     1     -10.712  -8.659  16.514  0.00  0.00    +0.122 C 
BRANCH   4   2
ATOM      1  C   UNL     1     -10.391  -9.006  17.862  0.00  0.00    +0.090 C 
ATOM      2  N   UNL     1     -10.244  -8.556  17.185  0.00  0.00    -0.265 NA
ATOM      3  C   UNL     1      -9.630  -8.005  17.181  0.00  0.00    +0.090 C 
ENDBRANCH   4   2
ENDBRANCH   5   4
ENDBRANCH  10   7
BRANCH  14  18
ATOM     18  O   UNL     1      -8.060  -9.784  11.786  0.00  0.00    -0.432 OA
BRANCH  18  19
ATOM     19  C   UNL     1      -7.258  -9.780  11.593  0.00  0.00    +0.425 C 
ATOM     20  O   UNL     1      -6.734 -10.272  11.998  0.00  0.00    -0.224 OA
ATOM     21  N   UNL     1      -6.980  -9.285  10.995  0.00  0.00    -0.142 NA
BRANCH  21  22
ATOM     22  C   UNL     1      -6.178  -9.281  10.802  0.00  0.00    +0.077 A 
ATOM     23  C   UNL     1      -5.864  -9.879  10.329  0.00  0.00    +0.016 A 
ATOM     24  C   UNL     1      -5.063  -9.875  10.136  0.00  0.00    -0.003 A 
ATOM     25  C   UNL     1      -4.573  -9.272  10.416  0.00  0.00    -0.023 A 
ATOM     26  C   UNL     1      -4.887  -8.674  10.890  0.00  0.00    -0.003 A 
ATOM     27  C   UNL     1      -5.689  -8.679  11.083  0.00  0.00    +0.016 A 
BRANCH  25  28
ATOM     28  C   UNL     1      -3.772  -9.268  10.224  0.00  0.00    +0.019 C 
ATOM     29  C   UNL     1      -2.969  -9.263  10.031  0.00  0.00    +0.004 C 
ATOM     30  C   UNL     1      -3.947  -8.910   9.501  0.00  0.00    +0.004 C 
ATOM     31  C   UNL     1      -3.596  -9.625  10.946  0.00  0.00    +0.004 C 
ENDBRANCH  25  28
ENDBRANCH  21  22
ENDBRANCH  18  19
ENDBRANCH  14  18
TORSDOF 7
ENDMDL
