REMARK  Name = 
REMARK  3 active torsions:
REMARK  status: ('A' for Active; 'I' for Inactive)
REMARK    1  A    between atoms: C_4  and  C_8
REMARK    2  A    between atoms: C_11  and  C_13
REMARK    3  A    between atoms: N_18  and  C_19
REMARK                            x       y       z     vdW  Elec       q    Type
REMARK                         _______ _______ _______ _____ _____    ______ ____
ROOT
ATOM      8  C   UNL     1       2.834  -0.549   0.000  0.00  0.00    +0.203 A 
ATOM      9  N   UNL     1       3.501  -1.034   0.000  0.00  0.00    -0.056 NA
ATOM     10  O   UNL     1       3.247  -1.818   0.000  0.00  0.00    -0.336 OA
ATOM     11  C   UNL     1       2.421  -1.818   0.000  0.00  0.00    +0.251 A 
ATOM     12  N   UNL     1       2.167  -1.034   0.000  0.00  0.00    -0.190 NA
ENDROOT
BRANCH   8   4
ATOM      1  C   UNL     1       4.263   1.926   0.000  0.00  0.00    +0.031 C 
ATOM      2  C   UNL     1       3.548   1.514   0.000  0.00  0.00    -0.022 A 
ATOM      3  C   UNL     1       3.548   0.689   0.000  0.00  0.00    -0.001 A 
ATOM      4  C   UNL     1       2.834   0.276   0.000  0.00  0.00    +0.039 A 
ATOM      5  C   UNL     1       2.119   0.689   0.000  0.00  0.00    +0.003 A 
ATOM      6  C   UNL     1       2.119   1.514   0.000  0.00  0.00    -0.000 A 
ATOM      7  C   UNL     1       2.834   1.926   0.000  0.00  0.00    -0.004 A 
ENDBRANCH   8   4
BRANCH  11  13
ATOM     13  C   UNL     1       1.937  -2.486   0.000  0.00  0.00    +0.140 C 
ATOM     14  C   UNL     1       2.192  -3.270   0.000  0.00  0.00    +0.060 C 
ATOM     15  C   UNL     1       1.524  -3.755   0.000  0.00  0.00    +0.170 C 
ATOM     16  O   UNL     1       1.524  -4.580   0.000  0.00  0.00    -0.222 OA
ATOM     17  C   UNL     1       0.857  -3.270   0.000  0.00  0.00    +0.106 C 
ATOM     18  N   UNL     1       1.111  -2.486   0.000  0.00  0.00    -0.265 NA
BRANCH  18  19
ATOM     19  C   UNL     1       0.627  -1.818   0.000  0.00  0.00    +0.063 C 
ATOM     20  C   UNL     1      -0.194  -1.905   0.000  0.00  0.00    +0.048 C 
ATOM     21  C   UNL     1      -0.679  -1.237   0.000  0.00  0.00    +0.144 C 
ATOM     22  O   UNL     1      -0.343  -0.483   0.000  0.00  0.00    -0.354 OA
ATOM     23  C   UNL     1       0.477  -0.397   0.000  0.00  0.00    +0.144 C 
ATOM     24  C   UNL     1       0.962  -1.065   0.000  0.00  0.00    +0.048 C 
ENDBRANCH  18  19
ENDBRANCH  11  13
TORSDOF 3
