MODEL 1
REMARK VINA RESULT:     -10.4      0.000      0.000
REMARK  Name = 
REMARK  5 active torsions:
REMARK  status: ('A' for Active; 'I' for Inactive)
REMARK    1  A    between atoms: C_2  and  N_3
REMARK    2  A    between atoms: C_4  and  O_6
REMARK    3  A    between atoms: O_6  and  C_7
REMARK    4  A    between atoms: C_11  and  N_15
REMARK    5  A    between atoms: N_18  and  C_19
REMARK                            x       y       z     vdW  Elec       q    Type
REMARK                         _______ _______ _______ _____ _____    ______ ____
ROOT
ATOM      7  C   UNL     1      -3.668   3.366  24.830  0.00  0.00    +0.229 C 
ATOM      8  C   UNL     1      -4.130   3.241  25.502  0.00  0.00    +0.188 C 
ATOM      9  O   UNL     1      -4.404   2.463  25.481  0.00  0.00    -0.348 OA
ATOM     10  C   UNL     1      -4.112   2.107  24.797  0.00  0.00    +0.168 C 
ATOM     11  C   UNL     1      -4.100   1.408  24.361  0.00  0.00    +0.156 C 
ATOM     12  C   UNL     1      -3.639   1.533  23.690  0.00  0.00    +0.166 C 
ATOM     13  O   UNL     1      -3.364   2.310  23.710  0.00  0.00    -0.348 OA
ATOM     14  C   UNL     1      -3.657   2.666  24.395  0.00  0.00    +0.186 C 
ENDROOT
BRANCH  11  15
ATOM     15  N   UNL     1      -4.484   0.705  24.563  0.00  0.00    -0.184 NA
ATOM     16  C   UNL     1      -4.089  -0.016  24.489  0.00  0.00    +0.344 C 
ATOM     17  O   UNL     1      -3.311  -0.034  24.216  0.00  0.00    -0.249 OA
ATOM     18  N   UNL     1      -4.472  -0.718  24.691  0.00  0.00    -0.161 NA
BRANCH  18  19
ATOM     19  C   UNL     1      -4.077  -1.439  24.618  0.00  0.00    +0.075 A 
ATOM     20  C   UNL     1      -4.194  -1.907  23.948  0.00  0.00    +0.017 A 
ATOM     21  C   UNL     1      -3.799  -2.627  23.875  0.00  0.00    +0.001 A 
ATOM     22  C   UNL     1      -3.287  -2.880  24.470  0.00  0.00    +0.000 A 
ATOM     23  C   UNL     1      -3.171  -2.412  25.139  0.00  0.00    +0.001 A 
ATOM     24  C   UNL     1      -3.566  -1.691  25.213  0.00  0.00    +0.017 A 
ENDBRANCH  18  19
ENDBRANCH  11  15
BRANCH   7   6
ATOM      6  O   UNL     1      -3.285   4.068  24.629  0.00  0.00    -0.432 OA
BRANCH   6   4
ATOM      3  N   UNL     1      -1.954   4.569  24.766  0.00  0.00    -0.169 NA
ATOM      4  C   UNL     1      -2.675   4.356  25.104  0.00  0.00    +0.421 C 
ATOM      5  O   UNL     1      -2.787   4.432  25.918  0.00  0.00    -0.225 OA
BRANCH   3   2
ATOM      1  C   UNL     1      -0.629   5.086  24.900  0.00  0.00    +0.025 C 
ATOM      2  C   UNL     1      -1.344   4.857  25.241  0.00  0.00    +0.119 C 
ENDBRANCH   3   2
ENDBRANCH   6   4
ENDBRANCH   7   6
TORSDOF 5
ENDMDL
MODEL 2
REMARK VINA RESULT:     -10.0      2.244      5.859
REMARK  Name = 
REMARK  5 active torsions:
REMARK  status: ('A' for Active; 'I' for Inactive)
REMARK    1  A    between atoms: C_2  and  N_3
REMARK    2  A    between atoms: C_4  and  O_6
REMARK    3  A    between atoms: O_6  and  C_7
REMARK    4  A    between atoms: C_11  and  N_15
REMARK    5  A    between atoms: N_18  and  C_19
REMARK                            x       y       z     vdW  Elec       q    Type
REMARK                         _______ _______ _______ _____ _____    ______ ____
ROOT
ATOM      7  C   UNL     1      -1.325  -1.026  24.903  0.00  0.00    +0.229 C 
ATOM      8  C   UNL     1      -1.444  -0.955  25.717  0.00  0.00    +0.188 C 
ATOM      9  O   UNL     1      -1.210  -0.196  25.942  0.00  0.00    -0.348 OA
ATOM     10  C   UNL     1      -0.947   0.201  25.268  0.00  0.00    +0.168 C 
ATOM     11  C   UNL     1      -0.640   0.914  24.991  0.00  0.00    +0.156 C 
ATOM     12  C   UNL     1      -0.522   0.843  24.178  0.00  0.00    +0.166 C 
ATOM     13  O   UNL     1      -0.755   0.084  23.952  0.00  0.00    -0.348 OA
ATOM     14  C   UNL     1      -1.018  -0.312  24.626  0.00  0.00    +0.186 C 
ENDROOT
BRANCH  11  15
ATOM     15  N   UNL     1      -0.480   1.583  25.447  0.00  0.00    -0.184 NA
ATOM     16  C   UNL     1      -0.822   2.308  25.250  0.00  0.00    +0.344 C 
ATOM     17  O   UNL     1      -1.323   2.364  24.597  0.00  0.00    -0.249 OA
ATOM     18  N   UNL     1      -0.662   2.977  25.707  0.00  0.00    -0.161 NA
BRANCH  18  19
ATOM     19  C   UNL     1      -1.003   3.702  25.509  0.00  0.00    +0.075 A 
ATOM     20  C   UNL     1      -0.579   4.248  25.058  0.00  0.00    +0.017 A 
ATOM     21  C   UNL     1      -0.920   4.972  24.861  0.00  0.00    +0.001 A 
ATOM     22  C   UNL     1      -1.685   5.151  25.114  0.00  0.00    +0.000 A 
ATOM     23  C   UNL     1      -2.108   4.606  25.564  0.00  0.00    +0.001 A 
ATOM     24  C   UNL     1      -1.768   3.880  25.762  0.00  0.00    +0.017 A 
ENDBRANCH  18  19
ENDBRANCH  11  15
BRANCH   7   6
ATOM      6  O   UNL     1      -1.485  -1.694  24.447  0.00  0.00    -0.432 OA
BRANCH   6   4
ATOM      3  N   UNL     1      -2.824  -2.126  24.199  0.00  0.00    -0.169 NA
ATOM      4  C   UNL     1      -2.127  -2.178  24.634  0.00  0.00    +0.421 C 
ATOM      5  O   UNL     1      -2.069  -2.716  25.258  0.00  0.00    -0.225 OA
BRANCH   3   2
ATOM      1  C   UNL     1      -4.167  -2.551  23.955  0.00  0.00    +0.025 C 
ATOM      2  C   UNL     1      -3.466  -2.610  24.386  0.00  0.00    +0.119 C 
ENDBRANCH   3   2
ENDBRANCH   6   4
ENDBRANCH   7   6
TORSDOF 5
ENDMDL
MODEL 3
REMARK VINA RESULT:      -9.2      2.388      2.797
REMARK  Name = 
REMARK  5 active torsions:
REMARK  status: ('A' for Active; 'I' for Inactive)
REMARK    1  A    between atoms: C_2  and  N_3
REMARK    2  A    between atoms: C_4  and  O_6
REMARK    3  A    between atoms: O_6  and  C_7
REMARK    4  A    between atoms: C_11  and  N_15
REMARK    5  A    between atoms: N_18  and  C_19
REMARK                            x       y       z     vdW  Elec       q    Type
REMARK                         _______ _______ _______ _____ _____    ______ ____
ROOT
ATOM      7  C   UNL     1      -0.242   2.174  24.894  0.00  0.00    +0.229 C 
ATOM      8  C   UNL     1      -0.063   1.990  24.110  0.00  0.00    +0.188 C 
ATOM      9  O   UNL     1      -0.281   1.206  23.976  0.00  0.00    -0.348 OA
ATOM     10  C   UNL     1      -0.594   0.905  24.677  0.00  0.00    +0.168 C 
ATOM     11  C   UNL     1      -0.923   0.234  25.028  0.00  0.00    +0.156 C 
ATOM     12  C   UNL     1      -1.101   0.418  25.812  0.00  0.00    +0.166 C 
ATOM     13  O   UNL     1      -0.884   1.202  25.946  0.00  0.00    -0.348 OA
ATOM     14  C   UNL     1      -0.570   1.503  25.244  0.00  0.00    +0.186 C 
ENDROOT
BRANCH  11  15
ATOM     15  N   UNL     1      -1.050  -0.493  24.659  0.00  0.00    -0.184 NA
ATOM     16  C   UNL     1      -1.799  -0.837  24.673  0.00  0.00    +0.344 C 
ATOM     17  O   UNL     1      -2.422  -0.454  25.057  0.00  0.00    -0.249 OA
ATOM     18  N   UNL     1      -1.927  -1.564  24.304  0.00  0.00    -0.161 NA
BRANCH  18  19
ATOM     19  C   UNL     1      -2.676  -1.908  24.319  0.00  0.00    +0.075 A 
ATOM     20  C   UNL     1      -2.807  -2.592  24.762  0.00  0.00    +0.017 A 
ATOM     21  C   UNL     1      -3.557  -2.936  24.777  0.00  0.00    +0.001 A 
ATOM     22  C   UNL     1      -4.176  -2.596  24.349  0.00  0.00    +0.000 A 
ATOM     23  C   UNL     1      -4.044  -1.913  23.907  0.00  0.00    +0.001 A 
ATOM     24  C   UNL     1      -3.295  -1.568  23.891  0.00  0.00    +0.017 A 
ENDBRANCH  18  19
ENDBRANCH  11  15
BRANCH   7   6
ATOM      6  O   UNL     1      -0.115   2.900  25.263  0.00  0.00    -0.432 OA
BRANCH   6   4
ATOM      3  N   UNL     1      -0.873   4.112  25.261  0.00  0.00    -0.169 NA
ATOM      4  C   UNL     1      -0.345   3.599  24.889  0.00  0.00    +0.421 C 
ATOM      5  O   UNL     1      -0.047   3.785  24.143  0.00  0.00    -0.225 OA
BRANCH   3   2
ATOM      1  C   UNL     1      -1.686   5.286  25.226  0.00  0.00    +0.025 C 
ATOM      2  C   UNL     1      -1.104   4.810  24.888  0.00  0.00    +0.119 C 
ENDBRANCH   3   2
ENDBRANCH   6   4
ENDBRANCH   7   6
TORSDOF 5
ENDMDL
MODEL 4
REMARK VINA RESULT:      -8.9      1.242      5.279
REMARK  Name = 
REMARK  5 active torsions:
REMARK  status: ('A' for Active; 'I' for Inactive)
REMARK    1  A    between atoms: C_2  and  N_3
REMARK    2  A    between atoms: C_4  and  O_6
REMARK    3  A    between atoms: O_6  and  C_7
REMARK    4  A    between atoms: C_11  and  N_15
REMARK    5  A    between atoms: N_18  and  C_19
REMARK                            x       y       z     vdW  Elec       q    Type
REMARK                         _______ _______ _______ _____ _____    ______ ____
ROOT
ATOM      7  C   UNL     1      -3.934  -0.392  24.461  0.00  0.00    +0.229 C 
ATOM      8  C   UNL     1      -4.090  -0.311  25.268  0.00  0.00    +0.188 C 
ATOM      9  O   UNL     1      -3.987   0.483  25.468  0.00  0.00    -0.348 OA
ATOM     10  C   UNL     1      -3.767   0.892  24.786  0.00  0.00    +0.168 C 
ATOM     11  C   UNL     1      -3.567   1.634  24.488  0.00  0.00    +0.156 C 
ATOM     12  C   UNL     1      -3.410   1.553  23.683  0.00  0.00    +0.166 C 
ATOM     13  O   UNL     1      -3.513   0.759  23.482  0.00  0.00    -0.348 OA
ATOM     14  C   UNL     1      -3.734   0.351  24.164  0.00  0.00    +0.186 C 
ENDROOT
BRANCH  11  15
ATOM     15  N   UNL     1      -3.530   2.336  24.921  0.00  0.00    -0.184 NA
ATOM     16  C   UNL     1      -2.870   2.827  24.854  0.00  0.00    +0.344 C 
ATOM     17  O   UNL     1      -2.248   2.616  24.355  0.00  0.00    -0.249 OA
ATOM     18  N   UNL     1      -2.833   3.529  25.287  0.00  0.00    -0.161 NA
BRANCH  18  19
ATOM     19  C   UNL     1      -2.173   4.020  25.220  0.00  0.00    +0.075 A 
ATOM     20  C   UNL     1      -2.263   4.797  24.957  0.00  0.00    +0.017 A 
ATOM     21  C   UNL     1      -1.603   5.288  24.890  0.00  0.00    +0.001 A 
ATOM     22  C   UNL     1      -0.854   5.002  25.086  0.00  0.00    +0.000 A 
ATOM     23  C   UNL     1      -0.765   4.226  25.349  0.00  0.00    +0.001 A 
ATOM     24  C   UNL     1      -1.425   3.734  25.417  0.00  0.00    +0.017 A 
ENDBRANCH  18  19
ENDBRANCH  11  15
BRANCH   7   6
ATOM      6  O   UNL     1      -3.971  -1.094  24.029  0.00  0.00    -0.432 OA
BRANCH   6   4
ATOM      3  N   UNL     1      -2.854  -1.982  24.104  0.00  0.00    -0.169 NA
ATOM      4  C   UNL     1      -3.622  -1.780  24.325  0.00  0.00    +0.421 C 
ATOM      5  O   UNL     1      -4.043  -2.266  24.843  0.00  0.00    -0.225 OA
BRANCH   3   2
ATOM      1  C   UNL     1      -1.697  -2.796  24.302  0.00  0.00    +0.025 C 
ATOM      2  C   UNL     1      -2.505  -2.669  24.400  0.00  0.00    +0.119 C 
ENDBRANCH   3   2
ENDBRANCH   6   4
ENDBRANCH   7   6
TORSDOF 5
ENDMDL
MODEL 5
REMARK VINA RESULT:      -8.3      3.129      4.584
REMARK  Name = 
REMARK  5 active torsions:
REMARK  status: ('A' for Active; 'I' for Inactive)
REMARK    1  A    between atoms: C_2  and  N_3
REMARK    2  A    between atoms: C_4  and  O_6
REMARK    3  A    between atoms: O_6  and  C_7
REMARK    4  A    between atoms: C_11  and  N_15
REMARK    5  A    between atoms: N_18  and  C_19
REMARK                            x       y       z     vdW  Elec       q    Type
REMARK                         _______ _______ _______ _____ _____    ______ ____
ROOT
ATOM      7  C   UNL     1      -0.356   1.044  23.784  0.00  0.00    +0.229 C 
ATOM      8  C   UNL     1      -0.798   0.787  23.135  0.00  0.00    +0.188 C 
ATOM      9  O   UNL     1      -1.506   1.211  23.126  0.00  0.00    -0.348 OA
ATOM     10  C   UNL     1      -1.502   1.729  23.768  0.00  0.00    +0.168 C 
ATOM     11  C   UNL     1      -1.937   2.310  24.159  0.00  0.00    +0.156 C 
ATOM     12  C   UNL     1      -1.496   2.567  24.807  0.00  0.00    +0.166 C 
ATOM     13  O   UNL     1      -0.787   2.144  24.816  0.00  0.00    -0.348 OA
ATOM     14  C   UNL     1      -0.792   1.626  24.174  0.00  0.00    +0.186 C 
ENDROOT
BRANCH  11  15
ATOM     15  N   UNL     1      -2.683   2.587  23.940  0.00  0.00    -0.184 NA
ATOM     16  C   UNL     1      -3.323   2.497  24.453  0.00  0.00    +0.344 C 
ATOM     17  O   UNL     1      -3.217   2.131  25.185  0.00  0.00    -0.249 OA
ATOM     18  N   UNL     1      -4.069   2.774  24.234  0.00  0.00    -0.161 NA
BRANCH  18  19
ATOM     19  C   UNL     1      -4.709   2.684  24.748  0.00  0.00    +0.075 A 
ATOM     20  C   UNL     1      -4.894   3.283  25.284  0.00  0.00    +0.017 A 
ATOM     21  C   UNL     1      -5.533   3.193  25.798  0.00  0.00    +0.001 A 
ATOM     22  C   UNL     1      -5.987   2.505  25.775  0.00  0.00    +0.000 A 
ATOM     23  C   UNL     1      -5.802   1.906  25.239  0.00  0.00    +0.001 A 
ATOM     24  C   UNL     1      -5.163   1.995  24.725  0.00  0.00    +0.017 A 
ENDBRANCH  18  19
ENDBRANCH  11  15
BRANCH   7   6
ATOM      6  O   UNL     1       0.389   0.768  24.002  0.00  0.00    -0.432 OA
BRANCH   6   4
ATOM      3  N   UNL     1       1.522   0.494  23.175  0.00  0.00    -0.169 NA
ATOM      4  C   UNL     1       0.803   0.257  23.503  0.00  0.00    +0.421 C 
ATOM      5  O   UNL     1       0.498  -0.490  23.332  0.00  0.00    -0.225 OA
BRANCH   3   2
ATOM      1  C   UNL     1       2.700   0.173  22.433  0.00  0.00    +0.025 C 
ATOM      2  C   UNL     1       1.936  -0.017  22.676  0.00  0.00    +0.119 C 
ENDBRANCH   3   2
ENDBRANCH   6   4
ENDBRANCH   7   6
TORSDOF 5
ENDMDL
MODEL 6
REMARK VINA RESULT:      -8.0      4.271      4.939
REMARK  Name = 
REMARK  5 active torsions:
REMARK  status: ('A' for Active; 'I' for Inactive)
REMARK    1  A    between atoms: C_2  and  N_3
REMARK    2  A    between atoms: C_4  and  O_6
REMARK    3  A    between atoms: O_6  and  C_7
REMARK    4  A    between atoms: C_11  and  N_15
REMARK    5  A    between atoms: N_18  and  C_19
REMARK                            x       y       z     vdW  Elec       q    Type
REMARK                         _______ _______ _______ _____ _____    ______ ____
ROOT
ATOM      7  C   UNL     1       1.394   0.377  23.127  0.00  0.00    +0.229 C 
ATOM      8  C   UNL     1       1.328  -0.404  22.868  0.00  0.00    +0.188 C 
ATOM      9  O   UNL     1       0.653  -0.730  23.212  0.00  0.00    -0.348 OA
ATOM     10  C   UNL     1       0.302  -0.152  23.684  0.00  0.00    +0.168 C 
ATOM     11  C   UNL     1      -0.332   0.005  24.188  0.00  0.00    +0.156 C 
ATOM     12  C   UNL     1      -0.265   0.785  24.447  0.00  0.00    +0.166 C 
ATOM     13  O   UNL     1       0.410   1.112  24.103  0.00  0.00    -0.348 OA
ATOM     14  C   UNL     1       0.760   0.532  23.631  0.00  0.00    +0.186 C 
ENDROOT
BRANCH  11  15
ATOM     15  N   UNL     1      -0.928  -0.527  24.397  0.00  0.00    -0.184 NA
ATOM     16  C   UNL     1      -1.712  -0.273  24.432  0.00  0.00    +0.344 C 
ATOM     17  O   UNL     1      -1.901   0.511  24.259  0.00  0.00    -0.249 OA
ATOM     18  N   UNL     1      -2.308  -0.805  24.641  0.00  0.00    -0.161 NA
BRANCH  18  19
ATOM     19  C   UNL     1      -3.092  -0.551  24.676  0.00  0.00    +0.075 A 
ATOM     20  C   UNL     1      -3.566  -0.583  24.001  0.00  0.00    +0.017 A 
ATOM     21  C   UNL     1      -4.350  -0.329  24.036  0.00  0.00    +0.001 A 
ATOM     22  C   UNL     1      -4.661  -0.044  24.745  0.00  0.00    +0.000 A 
ATOM     23  C   UNL     1      -4.187  -0.012  25.419  0.00  0.00    +0.001 A 
ATOM     24  C   UNL     1      -3.403  -0.265  25.385  0.00  0.00    +0.017 A 
ENDBRANCH  18  19
ENDBRANCH  11  15
BRANCH   7   6
ATOM      6  O   UNL     1       1.990   0.907  22.918  0.00  0.00    -0.432 OA
BRANCH   6   4
ATOM      3  N   UNL     1       3.411   0.839  23.050  0.00  0.00    -0.169 NA
ATOM      4  C   UNL     1       2.719   0.627  22.655  0.00  0.00    +0.421 C 
ATOM      5  O   UNL     1       2.757   0.133  21.995  0.00  0.00    -0.225 OA
BRANCH   3   2
ATOM      1  C   UNL     1       4.806   0.623  23.269  0.00  0.00    +0.025 C 
ATOM      2  C   UNL     1       4.141   0.559  22.787  0.00  0.00    +0.119 C 
ENDBRANCH   3   2
ENDBRANCH   6   4
ENDBRANCH   7   6
TORSDOF 5
ENDMDL
MODEL 7
REMARK VINA RESULT:      -6.5     14.005     16.646
REMARK  Name = 
REMARK  5 active torsions:
REMARK  status: ('A' for Active; 'I' for Inactive)
REMARK    1  A    between atoms: C_2  and  N_3
REMARK    2  A    between atoms: C_4  and  O_6
REMARK    3  A    between atoms: O_6  and  C_7
REMARK    4  A    between atoms: C_11  and  N_15
REMARK    5  A    between atoms: N_18  and  C_19
REMARK                            x       y       z     vdW  Elec       q    Type
REMARK                         _______ _______ _______ _____ _____    ______ ____
ROOT
ATOM      7  C   UNL     1      -4.698 -10.563  15.395  0.00  0.00    +0.229 C 
ATOM      8  C   UNL     1      -3.894 -10.737  15.465  0.00  0.00    +0.188 C 
ATOM      9  O   UNL     1      -3.576 -10.781  14.705  0.00  0.00    -0.348 OA
ATOM     10  C   UNL     1      -4.182 -10.635  14.165  0.00  0.00    +0.168 C 
ATOM     11  C   UNL     1      -4.361 -10.572  13.363  0.00  0.00    +0.156 C 
ATOM     12  C   UNL     1      -5.164 -10.398  13.293  0.00  0.00    +0.166 C 
ATOM     13  O   UNL     1      -5.482 -10.354  14.052  0.00  0.00    -0.348 OA
ATOM     14  C   UNL     1      -4.875 -10.500  14.591  0.00  0.00    +0.186 C 
ENDROOT
BRANCH  11  15
ATOM     15  N   UNL     1      -3.828 -10.666  12.739  0.00  0.00    -0.184 NA
ATOM     16  C   UNL     1      -3.974 -10.301  12.014  0.00  0.00    +0.344 C 
ATOM     17  O   UNL     1      -4.651  -9.841  11.912  0.00  0.00    -0.249 OA
ATOM     18  N   UNL     1      -3.441 -10.395  11.390  0.00  0.00    -0.161 NA
BRANCH  18  19
ATOM     19  C   UNL     1      -3.587 -10.029  10.665  0.00  0.00    +0.075 A 
ATOM     20  C   UNL     1      -4.022 -10.424  10.085  0.00  0.00    +0.017 A 
ATOM     21  C   UNL     1      -4.168 -10.059   9.360  0.00  0.00    +0.001 A 
ATOM     22  C   UNL     1      -3.880  -9.299   9.215  0.00  0.00    +0.000 A 
ATOM     23  C   UNL     1      -3.447  -8.905   9.795  0.00  0.00    +0.001 A 
ATOM     24  C   UNL     1      -3.300  -9.270  10.521  0.00  0.00    +0.017 A 
ENDBRANCH  18  19
ENDBRANCH  11  15
BRANCH   7   6
ATOM      6  O   UNL     1      -5.229 -10.469  16.018  0.00  0.00    -0.432 OA
BRANCH   6   4
ATOM      3  N   UNL     1      -5.303 -10.720  17.423  0.00  0.00    -0.169 NA
ATOM      4  C   UNL     1      -4.950 -10.338  16.783  0.00  0.00    +0.421 C 
ATOM      5  O   UNL     1      -4.316  -9.825  16.909  0.00  0.00    -0.225 OA
BRANCH   3   2
ATOM      1  C   UNL     1      -5.495 -10.779  18.838  0.00  0.00    +0.025 C 
ATOM      2  C   UNL     1      -5.024 -10.590  18.188  0.00  0.00    +0.119 C 
ENDBRANCH   3   2
ENDBRANCH   6   4
ENDBRANCH   7   6
TORSDOF 5
ENDMDL
