MODEL 1
REMARK VINA RESULT:     -12.4      0.000      0.000
REMARK  Name = 
REMARK  3 active torsions:
REMARK  status: ('A' for Active; 'I' for Inactive)
REMARK    1  A    between atoms: C_1  and  N_2
REMARK    2  A    between atoms: C_1  and  C_16
REMARK    3  A    between atoms: C_5  and  C_7
REMARK                            x       y       z     vdW  Elec       q    Type
REMARK                         _______ _______ _______ _____ _____    ______ ____
ROOT
ATOM      2  N   UNL     1      -4.227   2.188  24.608  0.00  0.00    -0.269 NA
ATOM      3  C   UNL     1      -4.939   2.024  24.991  0.00  0.00    +0.073 C 
ATOM      4  C   UNL     1      -5.003   1.206  25.074  0.00  0.00    +0.025 C 
ATOM      5  C   UNL     1      -4.329   0.863  24.741  0.00  0.00    +0.064 C 
ATOM      6  C   UNL     1      -3.851   1.470  24.453  0.00  0.00    +0.079 C 
ENDROOT
BRANCH   5   7
ATOM      7  C   UNL     1      -4.164   0.056  24.703  0.00  0.00    +0.089 A 
ATOM      8  N   UNL     1      -4.380  -0.455  24.093  0.00  0.00    -0.243 NA
ATOM      9  C   UNL     1      -4.104  -1.209  24.282  0.00  0.00    +0.087 A 
ATOM     10  C   UNL     1      -3.717  -1.164  25.009  0.00  0.00    +0.048 A 
ATOM     11  S   UNL     1      -3.754  -0.383  25.270  0.00  0.00    -0.071 S 
ATOM     12  C   UNL     1      -3.381  -1.841  25.339  0.00  0.00    +0.008 A 
ATOM     13  C   UNL     1      -3.432  -2.563  24.943  0.00  0.00    +0.001 A 
ATOM     14  C   UNL     1      -3.818  -2.607  24.216  0.00  0.00    +0.002 A 
ATOM     15  C   UNL     1      -4.155  -1.931  23.885  0.00  0.00    +0.020 A 
ENDBRANCH   5   7
BRANCH   2   1
ATOM      1  C   UNL     1      -3.942   2.937  24.413  0.00  0.00    +0.099 C 
BRANCH   1  16
ATOM     16  C   UNL     1      -3.405   3.316  24.911  0.00  0.00    -0.006 A 
ATOM     17  C   UNL     1      -3.673   3.714  25.581  0.00  0.00    -0.003 A 
ATOM     18  C   UNL     1      -3.135   4.094  26.078  0.00  0.00    -0.000 A 
ATOM     19  C   UNL     1      -2.329   4.074  25.905  0.00  0.00    -0.000 A 
ATOM     20  C   UNL     1      -2.060   3.676  25.235  0.00  0.00    -0.000 A 
ATOM     21  C   UNL     1      -2.598   3.296  24.737  0.00  0.00    -0.003 A 
ENDBRANCH   1  16
ENDBRANCH   2   1
TORSDOF 3
ENDMDL
MODEL 2
REMARK VINA RESULT:     -12.1      1.213      4.816
REMARK  Name = 
REMARK  3 active torsions:
REMARK  status: ('A' for Active; 'I' for Inactive)
REMARK    1  A    between atoms: C_1  and  N_2
REMARK    2  A    between atoms: C_1  and  C_16
REMARK    3  A    between atoms: C_5  and  C_7
REMARK                            x       y       z     vdW  Elec       q    Type
REMARK                         _______ _______ _______ _____ _____    ______ ____
ROOT
ATOM      2  N   UNL     1      -3.828   0.615  24.359  0.00  0.00    -0.269 NA
ATOM      3  C   UNL     1      -3.555   0.691  23.584  0.00  0.00    +0.073 C 
ATOM      4  C   UNL     1      -3.075   1.361  23.547  0.00  0.00    +0.025 C 
ATOM      5  C   UNL     1      -3.051   1.700  24.299  0.00  0.00    +0.064 C 
ATOM      6  C   UNL     1      -3.516   1.239  24.801  0.00  0.00    +0.079 C 
ENDROOT
BRANCH   5   7
ATOM      7  C   UNL     1      -2.635   2.380  24.511  0.00  0.00    +0.089 A 
ATOM      8  N   UNL     1      -2.961   3.072  24.819  0.00  0.00    -0.243 NA
ATOM      9  C   UNL     1      -2.347   3.606  24.951  0.00  0.00    +0.087 A 
ATOM     10  C   UNL     1      -1.641   3.244  24.725  0.00  0.00    +0.048 A 
ATOM     11  S   UNL     1      -1.818   2.487  24.453  0.00  0.00    -0.071 S 
ATOM     12  C   UNL     1      -0.928   3.653  24.796  0.00  0.00    +0.008 A 
ATOM     13  C   UNL     1      -0.920   4.422  25.093  0.00  0.00    +0.001 A 
ATOM     14  C   UNL     1      -1.626   4.784  25.319  0.00  0.00    +0.002 A 
ATOM     15  C   UNL     1      -2.340   4.376  25.249  0.00  0.00    +0.020 A 
ENDBRANCH   5   7
BRANCH   2   1
ATOM      1  C   UNL     1      -4.324   0.021  24.643  0.00  0.00    +0.099 C 
BRANCH   1  16
ATOM     16  C   UNL     1      -4.043  -0.751  24.718  0.00  0.00    -0.006 A 
ATOM     17  C   UNL     1      -3.645  -0.980  25.403  0.00  0.00    -0.003 A 
ATOM     18  C   UNL     1      -3.364  -1.752  25.478  0.00  0.00    -0.000 A 
ATOM     19  C   UNL     1      -3.482  -2.295  24.868  0.00  0.00    -0.000 A 
ATOM     20  C   UNL     1      -3.880  -2.065  24.183  0.00  0.00    -0.000 A 
ATOM     21  C   UNL     1      -4.161  -1.293  24.108  0.00  0.00    -0.003 A 
ENDBRANCH   1  16
ENDBRANCH   2   1
TORSDOF 3
ENDMDL
MODEL 3
REMARK VINA RESULT:     -11.5      1.632      2.179
REMARK  Name = 
REMARK  3 active torsions:
REMARK  status: ('A' for Active; 'I' for Inactive)
REMARK    1  A    between atoms: C_1  and  N_2
REMARK    2  A    between atoms: C_1  and  C_16
REMARK    3  A    between atoms: C_5  and  C_7
REMARK                            x       y       z     vdW  Elec       q    Type
REMARK                         _______ _______ _______ _____ _____    ______ ____
ROOT
ATOM      2  N   UNL     1      -1.100   1.925  25.247  0.00  0.00    -0.269 NA
ATOM      3  C   UNL     1      -0.716   1.717  24.547  0.00  0.00    +0.073 C 
ATOM      4  C   UNL     1      -1.096   1.054  24.235  0.00  0.00    +0.025 C 
ATOM      5  C   UNL     1      -1.715   0.853  24.743  0.00  0.00    +0.064 C 
ATOM      6  C   UNL     1      -1.717   1.391  25.368  0.00  0.00    +0.079 C 
ENDROOT
BRANCH   5   7
ATOM      7  C   UNL     1      -2.239   0.224  24.642  0.00  0.00    +0.089 A 
ATOM      8  N   UNL     1      -2.968   0.256  24.257  0.00  0.00    -0.243 NA
ATOM      9  C   UNL     1      -3.305  -0.496  24.286  0.00  0.00    +0.087 A 
ATOM     10  C   UNL     1      -2.785  -0.993  24.689  0.00  0.00    +0.048 A 
ATOM     11  S   UNL     1      -2.126  -0.549  24.909  0.00  0.00    -0.071 S 
ATOM     12  C   UNL     1      -2.979  -1.787  24.804  0.00  0.00    +0.008 A 
ATOM     13  C   UNL     1      -3.693  -2.083  24.515  0.00  0.00    +0.001 A 
ATOM     14  C   UNL     1      -4.213  -1.585  24.112  0.00  0.00    +0.002 A 
ATOM     15  C   UNL     1      -4.020  -0.792  23.998  0.00  0.00    +0.020 A 
ENDBRANCH   5   7
BRANCH   2   1
ATOM      1  C   UNL     1      -0.902   2.556  25.739  0.00  0.00    +0.099 C 
BRANCH   1  16
ATOM     16  C   UNL     1      -1.175   3.316  25.568  0.00  0.00    -0.006 A 
ATOM     17  C   UNL     1      -1.918   3.557  25.833  0.00  0.00    -0.003 A 
ATOM     18  C   UNL     1      -2.190   4.317  25.660  0.00  0.00    -0.000 A 
ATOM     19  C   UNL     1      -1.720   4.834  25.223  0.00  0.00    -0.000 A 
ATOM     20  C   UNL     1      -0.977   4.593  24.958  0.00  0.00    -0.000 A 
ATOM     21  C   UNL     1      -0.704   3.834  25.130  0.00  0.00    -0.003 A 
ENDBRANCH   1  16
ENDBRANCH   2   1
TORSDOF 3
ENDMDL
