MODEL 1
REMARK VINA RESULT:     -10.7      0.000      0.000
REMARK  Name = 
REMARK  6 active torsions:
REMARK  status: ('A' for Active; 'I' for Inactive)
REMARK    1  A    between atoms: C_3  and  N_16
REMARK    2  A    between atoms: C_6  and  C_7
REMARK    3  A    between atoms: C_7  and  N_8
REMARK    4  A    between atoms: C_9  and  C_11
REMARK    5  A    between atoms: N_16  and  C_17
REMARK    6  A    between atoms: C_17  and  C_18
REMARK                            x       y       z     vdW  Elec       q    Type
REMARK                         _______ _______ _______ _____ _____    ______ ____
ROOT
ATOM      1  O   UNL     1      -1.132   0.311  25.271  0.00  0.00    -0.219 OA
ATOM      2  C   UNL     1      -1.834   0.711  25.100  0.00  0.00    +0.199 C 
ATOM      3  C   UNL     1      -2.556   0.363  24.908  0.00  0.00    +0.135 C 
ATOM      4  C   UNL     1      -3.104   0.965  24.781  0.00  0.00    +0.162 C 
ATOM      5  O   UNL     1      -2.720   1.687  24.894  0.00  0.00    -0.350 OA
ATOM      6  C   UNL     1      -1.935   1.530  25.092  0.00  0.00    +0.169 C 
ENDROOT
BRANCH   6   7
ATOM      7  C   UNL     1      -1.354   2.092  25.253  0.00  0.00    +0.147 C 
BRANCH   7   8
ATOM      8  N   UNL     1      -1.496   2.889  25.092  0.00  0.00    -0.203 NA
ATOM      9  C   UNL     1      -0.960   3.463  25.347  0.00  0.00    +0.241 C 
ATOM     10  O   UNL     1      -0.283   3.239  25.762  0.00  0.00    -0.273 OA
BRANCH   9  11
ATOM     11  C   UNL     1      -1.102   4.260  25.187  0.00  0.00    +0.078 C 
ATOM     12  C   UNL     1      -1.758   4.695  25.434  0.00  0.00    +0.009 C 
ATOM     13  C   UNL     1      -1.674   5.465  25.152  0.00  0.00    +0.001 C 
ATOM     14  C   UNL     1      -0.966   5.506  24.730  0.00  0.00    +0.001 C 
ATOM     15  C   UNL     1      -0.612   4.761  24.752  0.00  0.00    +0.009 C 
ENDBRANCH   9  11
ENDBRANCH   7   8
ENDBRANCH   6   7
BRANCH   3  16
ATOM     16  N   UNL     1      -2.704  -0.447  24.853  0.00  0.00    -0.209 NA
BRANCH  16  17
ATOM     17  C   UNL     1      -3.441  -0.716  24.595  0.00  0.00    +0.117 C 
BRANCH  17  18
ATOM     18  C   UNL     1      -3.578  -1.524  24.507  0.00  0.00    +0.023 A 
ATOM     19  C   UNL     1      -3.215  -2.063  25.016  0.00  0.00    -0.001 A 
ATOM     20  C   UNL     1      -3.352  -2.871  24.928  0.00  0.00    -0.000 A 
ATOM     21  C   UNL     1      -3.853  -3.141  24.330  0.00  0.00    +0.002 A 
ATOM     22  C   UNL     1      -4.216  -2.603  23.821  0.00  0.00    +0.029 A 
ATOM     23  C   UNL     1      -4.078  -1.794  23.910  0.00  0.00    +0.137 A 
ATOM     24  F   UNL     1      -4.441  -1.257  23.400  0.00  0.00    -0.204 F 
ENDBRANCH  17  18
ENDBRANCH  16  17
ENDBRANCH   3  16
TORSDOF 6
ENDMDL
MODEL 2
REMARK VINA RESULT:     -10.3      1.634      5.999
REMARK  Name = 
REMARK  6 active torsions:
REMARK  status: ('A' for Active; 'I' for Inactive)
REMARK    1  A    between atoms: C_3  and  N_16
REMARK    2  A    between atoms: C_6  and  C_7
REMARK    3  A    between atoms: C_7  and  N_8
REMARK    4  A    between atoms: C_9  and  C_11
REMARK    5  A    between atoms: N_16  and  C_17
REMARK    6  A    between atoms: C_17  and  C_18
REMARK                            x       y       z     vdW  Elec       q    Type
REMARK                         _______ _______ _______ _____ _____    ______ ____
ROOT
ATOM      1  O   UNL     1      -3.884   2.085  24.319  0.00  0.00    -0.219 OA
ATOM      2  C   UNL     1      -3.217   1.698  24.612  0.00  0.00    +0.199 C 
ATOM      3  C   UNL     1      -2.529   2.058  24.888  0.00  0.00    +0.135 C 
ATOM      4  C   UNL     1      -2.009   1.465  25.127  0.00  0.00    +0.162 C 
ATOM      5  O   UNL     1      -2.375   0.737  24.999  0.00  0.00    -0.350 OA
ATOM      6  C   UNL     1      -3.122   0.881  24.681  0.00  0.00    +0.169 C 
ENDROOT
BRANCH   6   7
ATOM      7  C   UNL     1      -3.677   0.309  24.469  0.00  0.00    +0.147 C 
BRANCH   7   8
ATOM      8  N   UNL     1      -3.480  -0.491  24.508  0.00  0.00    -0.203 NA
ATOM      9  C   UNL     1      -4.055  -1.066  24.365  0.00  0.00    +0.241 C 
ATOM     10  O   UNL     1      -4.827  -0.839  24.182  0.00  0.00    -0.273 OA
BRANCH   9  11
ATOM     11  C   UNL     1      -3.858  -1.866  24.404  0.00  0.00    +0.078 C 
ATOM     12  C   UNL     1      -4.005  -2.431  23.821  0.00  0.00    +0.009 C 
ATOM     13  C   UNL     1      -3.717  -3.155  24.090  0.00  0.00    +0.001 C 
ATOM     14  C   UNL     1      -3.392  -3.038  24.839  0.00  0.00    +0.001 C 
ATOM     15  C   UNL     1      -3.478  -2.242  25.032  0.00  0.00    +0.009 C 
ENDBRANCH   9  11
ENDBRANCH   7   8
ENDBRANCH   6   7
BRANCH   3  16
ATOM     16  N   UNL     1      -2.386   2.871  24.920  0.00  0.00    -0.209 NA
BRANCH  16  17
ATOM     17  C   UNL     1      -1.623   3.151  25.064  0.00  0.00    +0.117 C 
BRANCH  17  18
ATOM     18  C   UNL     1      -1.470   3.960  25.045  0.00  0.00    +0.023 A 
ATOM     19  C   UNL     1      -2.026   4.493  25.341  0.00  0.00    -0.001 A 
ATOM     20  C   UNL     1      -1.873   5.303  25.321  0.00  0.00    -0.000 A 
ATOM     21  C   UNL     1      -1.163   5.581  25.005  0.00  0.00    +0.002 A 
ATOM     22  C   UNL     1      -0.607   5.049  24.708  0.00  0.00    +0.029 A 
ATOM     23  C   UNL     1      -0.761   4.238  24.728  0.00  0.00    +0.137 A 
ATOM     24  F   UNL     1      -0.204   3.706  24.432  0.00  0.00    -0.204 F 
ENDBRANCH  17  18
ENDBRANCH  16  17
ENDBRANCH   3  16
TORSDOF 6
ENDMDL
