MODEL 1
REMARK VINA RESULT:     -11.1      0.000      0.000
REMARK  Name = 
REMARK  6 active torsions:
REMARK  status: ('A' for Active; 'I' for Inactive)
REMARK    1  A    between atoms: C_4  and  C_5
REMARK    2  A    between atoms: C_5  and  C_6
REMARK    3  A    between atoms: C_9  and  C_10
REMARK    4  A    between atoms: C_14  and  N_15
REMARK    5  A    between atoms: N_15  and  S_16
REMARK    6  A    between atoms: S_16  and  C_19
REMARK                            x       y       z     vdW  Elec       q    Type
REMARK                         _______ _______ _______ _____ _____    ______ ____
ROOT
ATOM      1  C   UNL     1      -4.262   3.000  24.674  0.00  0.00    +0.001 C 
ATOM      2  C   UNL     1      -4.172   2.180  24.684  0.00  0.00    +0.017 C 
ATOM      3  C   UNL     1      -4.991   2.089  24.659  0.00  0.00    +0.001 C 
ATOM      4  C   UNL     1      -3.351   2.271  24.709  0.00  0.00    +0.009 C 
ATOM     13  C   UNL     1      -3.262   1.451  24.719  0.00  0.00    +0.020 C 
ATOM     14  C   UNL     1      -4.081   1.360  24.694  0.00  0.00    +0.098 C 
ENDROOT
BRANCH   4   5
ATOM      5  C   UNL     1      -2.836   2.914  24.719  0.00  0.00    +0.049 C 
BRANCH   5   6
ATOM      6  C   UNL     1      -2.029   2.795  24.839  0.00  0.00    +0.100 A 
ATOM      7  N   UNL     1      -1.486   2.549  24.269  0.00  0.00    -0.082 NA
ATOM      8  O   UNL     1      -0.744   2.503  24.628  0.00  0.00    -0.355 OA
ATOM      9  C   UNL     1      -0.829   2.720  25.420  0.00  0.00    +0.187 A 
ATOM     12  C   UNL     1      -1.623   2.900  25.549  0.00  0.00    +0.056 A 
BRANCH   9  10
ATOM     10  C   UNL     1      -0.227   2.752  25.981  0.00  0.00    +0.249 C 
ATOM     11  O   UNL     1       0.489   2.365  25.841  0.00  0.00    -0.212 OA
ENDBRANCH   9  10
ENDBRANCH   5   6
ENDBRANCH   4   5
BRANCH  14  15
ATOM     15  N   UNL     1      -4.596   0.716  24.684  0.00  0.00    -0.079 NA
BRANCH  15  16
ATOM     16  S   UNL     1      -4.298  -0.053  24.722  0.00  0.00    +0.077 S 
ATOM     17  O   UNL     1      -4.207  -0.058  23.902  0.00  0.00    -0.152 OA
ATOM     18  O   UNL     1      -4.389  -0.047  25.542  0.00  0.00    -0.152 OA
BRANCH  16  19
ATOM     19  C   UNL     1      -3.999  -0.820  24.760  0.00  0.00    +0.124 A 
ATOM     20  C   UNL     1      -4.084  -1.328  24.115  0.00  0.00    +0.020 A 
ATOM     21  C   UNL     1      -3.786  -2.097  24.153  0.00  0.00    +0.001 A 
ATOM     22  C   UNL     1      -3.403  -2.357  24.836  0.00  0.00    +0.000 A 
ATOM     23  C   UNL     1      -3.318  -1.849  25.481  0.00  0.00    +0.001 A 
ATOM     24  C   UNL     1      -3.616  -1.082  25.443  0.00  0.00    +0.020 A 
ENDBRANCH  16  19
ENDBRANCH  15  16
ENDBRANCH  14  15
TORSDOF 6
ENDMDL
MODEL 2
REMARK VINA RESULT:     -11.0      1.722      4.346
REMARK  Name = 
REMARK  6 active torsions:
REMARK  status: ('A' for Active; 'I' for Inactive)
REMARK    1  A    between atoms: C_4  and  C_5
REMARK    2  A    between atoms: C_5  and  C_6
REMARK    3  A    between atoms: C_9  and  C_10
REMARK    4  A    between atoms: C_14  and  N_15
REMARK    5  A    between atoms: N_15  and  S_16
REMARK    6  A    between atoms: S_16  and  C_19
REMARK                            x       y       z     vdW  Elec       q    Type
REMARK                         _______ _______ _______ _____ _____    ______ ____
ROOT
ATOM      1  C   UNL     1      -5.756   2.048  25.231  0.00  0.00    +0.001 C 
ATOM      2  C   UNL     1      -5.028   2.436  25.232  0.00  0.00    +0.017 C 
ATOM      3  C   UNL     1      -5.401   3.138  25.451  0.00  0.00    +0.001 C 
ATOM      4  C   UNL     1      -4.653   1.733  25.013  0.00  0.00    +0.009 C 
ATOM     13  C   UNL     1      -3.925   2.122  25.013  0.00  0.00    +0.020 C 
ATOM     14  C   UNL     1      -4.299   2.823  25.232  0.00  0.00    +0.098 C 
ENDROOT
BRANCH   4   5
ATOM      5  C   UNL     1      -4.904   0.964  24.858  0.00  0.00    +0.049 C 
BRANCH   5   6
ATOM      6  C   UNL     1      -4.349   0.364  24.747  0.00  0.00    +0.100 A 
ATOM      7  N   UNL     1      -3.875   0.258  24.080  0.00  0.00    -0.082 NA
ATOM      8  O   UNL     1      -3.404  -0.408  24.205  0.00  0.00    -0.355 OA
ATOM      9  C   UNL     1      -3.587  -0.714  24.949  0.00  0.00    +0.187 A 
ATOM     12  C   UNL     1      -4.171  -0.238  25.283  0.00  0.00    +0.056 A 
BRANCH   9  10
ATOM     10  C   UNL     1      -3.247  -1.380  25.296  0.00  0.00    +0.249 C 
ATOM     11  O   UNL     1      -3.587  -2.123  25.185  0.00  0.00    -0.212 OA
ENDBRANCH   9  10
ENDBRANCH   5   6
ENDBRANCH   4   5
BRANCH  14  15
ATOM     15  N   UNL     1      -4.048   3.594  25.387  0.00  0.00    -0.079 NA
BRANCH  15  16
ATOM     16  S   UNL     1      -3.245   3.783  25.348  0.00  0.00    +0.077 S 
ATOM     17  O   UNL     1      -3.183   3.684  26.165  0.00  0.00    -0.152 OA
ATOM     18  O   UNL     1      -3.308   3.881  24.532  0.00  0.00    -0.152 OA
BRANCH  16  19
ATOM     19  C   UNL     1      -2.444   3.971  25.310  0.00  0.00    +0.124 A 
ATOM     20  C   UNL     1      -2.209   4.740  25.125  0.00  0.00    +0.020 A 
ATOM     21  C   UNL     1      -1.406   4.929  25.086  0.00  0.00    +0.001 A 
ATOM     22  C   UNL     1      -0.839   4.349  25.233  0.00  0.00    +0.000 A 
ATOM     23  C   UNL     1      -1.074   3.580  25.417  0.00  0.00    +0.001 A 
ATOM     24  C   UNL     1      -1.875   3.391  25.456  0.00  0.00    +0.020 A 
ENDBRANCH  16  19
ENDBRANCH  15  16
ENDBRANCH  14  15
TORSDOF 6
ENDMDL
MODEL 3
REMARK VINA RESULT:     -10.7      2.656      3.476
REMARK  Name = 
REMARK  6 active torsions:
REMARK  status: ('A' for Active; 'I' for Inactive)
REMARK    1  A    between atoms: C_4  and  C_5
REMARK    2  A    between atoms: C_5  and  C_6
REMARK    3  A    between atoms: C_9  and  C_10
REMARK    4  A    between atoms: C_14  and  N_15
REMARK    5  A    between atoms: N_15  and  S_16
REMARK    6  A    between atoms: S_16  and  C_19
REMARK                            x       y       z     vdW  Elec       q    Type
REMARK                         _______ _______ _______ _____ _____    ______ ____
ROOT
ATOM      1  C   UNL     1      -0.821   4.287  25.208  0.00  0.00    +0.001 C 
ATOM      2  C   UNL     1      -1.594   3.999  25.174  0.00  0.00    +0.017 C 
ATOM      3  C   UNL     1      -1.883   4.770  25.216  0.00  0.00    +0.001 C 
ATOM      4  C   UNL     1      -1.304   3.227  25.132  0.00  0.00    +0.009 C 
ATOM     13  C   UNL     1      -2.076   2.939  25.098  0.00  0.00    +0.020 C 
ATOM     14  C   UNL     1      -2.366   3.710  25.140  0.00  0.00    +0.098 C 
ENDROOT
BRANCH   4   5
ATOM      5  C   UNL     1      -0.554   2.886  25.127  0.00  0.00    +0.049 C 
BRANCH   5   6
ATOM      6  C   UNL     1      -0.469   2.075  24.998  0.00  0.00    +0.100 A 
ATOM      7  N   UNL     1      -0.600   1.479  25.552  0.00  0.00    -0.082 NA
ATOM      8  O   UNL     1      -0.451   0.754  25.187  0.00  0.00    -0.355 OA
ATOM      9  C   UNL     1      -0.228   0.903  24.406  0.00  0.00    +0.187 A 
ATOM     12  C   UNL     1      -0.240   1.719  24.290  0.00  0.00    +0.056 A 
BRANCH   9  10
ATOM     10  C   UNL     1      -0.029   0.335  23.843  0.00  0.00    +0.249 C 
ATOM     11  O   UNL     1      -0.114  -0.467  24.018  0.00  0.00    -0.212 OA
ENDBRANCH   9  10
ENDBRANCH   5   6
ENDBRANCH   4   5
BRANCH  14  15
ATOM     15  N   UNL     1      -3.117   4.052  25.145  0.00  0.00    -0.079 NA
BRANCH  15  16
ATOM     16  S   UNL     1      -3.788   3.572  25.165  0.00  0.00    +0.077 S 
ATOM     17  O   UNL     1      -3.824   3.589  24.341  0.00  0.00    -0.152 OA
ATOM     18  O   UNL     1      -3.751   3.556  25.989  0.00  0.00    -0.152 OA
BRANCH  16  19
ATOM     19  C   UNL     1      -4.459   3.093  25.185  0.00  0.00    +0.124 A 
ATOM     20  C   UNL     1      -4.986   3.147  25.818  0.00  0.00    +0.020 A 
ATOM     21  C   UNL     1      -5.658   2.667  25.838  0.00  0.00    +0.001 A 
ATOM     22  C   UNL     1      -5.802   2.135  25.225  0.00  0.00    +0.000 A 
ATOM     23  C   UNL     1      -5.275   2.081  24.592  0.00  0.00    +0.001 A 
ATOM     24  C   UNL     1      -4.605   2.560  24.572  0.00  0.00    +0.020 A 
ENDBRANCH  16  19
ENDBRANCH  15  16
ENDBRANCH  14  15
TORSDOF 6
ENDMDL
