REMARK  Name = 
REMARK  5 active torsions:
REMARK  status: ('A' for Active; 'I' for Inactive)
REMARK    1  A    between atoms: CG_2  and  CB_4
REMARK    2  A    between atoms: CB_4  and  CA_5
REMARK    3  A    between atoms: C_11  and  N_17
REMARK    4  A    between atoms: C_20  and  C_21
REMARK    5  A    between atoms: C_24  and  C_25
REMARK                            x       y       z     vdW  Elec       q    Type
REMARK                         _______ _______ _______ _____ _____    ______ ____
ROOT
ATOM      5  CA  LEU A   1       0.715  -1.238   0.000  0.00  0.00    +0.171 C 
ATOM      6  N   LEU A   1       0.715  -0.412   0.000  0.00  0.00    -0.196 NA
ATOM      7  C   UNK A   2       1.429   0.000   0.000  0.00  0.00    +0.260 C 
ATOM      8  O   UNK A   2       1.429   0.825   0.000  0.00  0.00    -0.272 OA
ATOM      9  C   UNK A   2       2.143  -0.412   0.000  0.00  0.00    +0.155 C 
ATOM     10  C   UNK A   2       2.858   0.000   0.000  0.00  0.00    +0.054 C 
ATOM     11  C   UNK A   2       3.572  -0.412   0.000  0.00  0.00    +0.111 C 
ATOM     12  C   UNK A   2       3.572  -1.238   0.000  0.00  0.00    +0.046 C 
ATOM     13  C   UNK A   2       2.858  -1.650   0.000  0.00  0.00    +0.096 C 
ATOM     14  N   UNK A   2       2.143  -1.238   0.000  0.00  0.00    -0.271 N 
ATOM     15  C   LEU A   1       1.429  -1.650   0.000  0.00  0.00    +0.246 C 
ATOM     16  O   LEU A   1       1.429  -2.475   0.000  0.00  0.00    -0.273 OA
ENDROOT
BRANCH  11  17
ATOM     17  N   UNK A   2       4.287   0.000   0.000  0.00  0.00    -0.229 N 
ATOM     18  N   UNK A   2       4.373   0.821   0.000  0.00  0.00    -0.064 NA
ATOM     19  N   UNK A   2       5.180   0.992   0.000  0.00  0.00    -0.124 NA
ATOM     20  C   UNK A   2       5.593   0.278   0.000  0.00  0.00    +0.183 A 
ATOM     24  C   UNK A   2       5.040  -0.336   0.000  0.00  0.00    +0.160 A 
BRANCH  20  21
ATOM     21  C   UNK A   2       6.413   0.191   0.000  0.00  0.00    +0.305 C 
ATOM     22  N   UNK A   2       6.898   0.859   0.000  0.00  0.00    -0.082 NA
ATOM     23  O   UNK A   2       6.749  -0.562   0.000  0.00  0.00    -0.265 OA
ENDBRANCH  20  21
BRANCH  24  25
ATOM     25  C   UNK A   2       5.212  -1.143   0.000  0.00  0.00    +0.303 C 
ATOM     26  N   UNK A   2       4.599  -1.695   0.000  0.00  0.00    -0.082 NA
ATOM     27  O   UNK A   2       5.997  -1.397   0.000  0.00  0.00    -0.265 OA
ENDBRANCH  24  25
ENDBRANCH  11  17
BRANCH   5   4
ATOM      4  CB  LEU A   1       0.000  -1.650   0.000  0.00  0.00    +0.031 C 
BRANCH   4   2
ATOM      1  CD1 LEU A   1      -0.715  -2.888   0.000  0.00  0.00    +0.000 C 
ATOM      2  CG  LEU A   1       0.000  -2.475   0.000  0.00  0.00    +0.002 C 
ATOM      3  CD2 LEU A   1       0.715  -2.888   0.000  0.00  0.00    +0.000 C 
ENDBRANCH   4   2
ENDBRANCH   5   4
TORSDOF 5
