MODEL 1
REMARK VINA RESULT:     -13.0      0.000      0.000
REMARK  Name = 
REMARK  9 active torsions:
REMARK  status: ('A' for Active; 'I' for Inactive)
REMARK    1  A    between atoms: C_2  and  C_3
REMARK    2  A    between atoms: C_3  and  C_4
REMARK    3  A    between atoms: C_4  and  C_5
REMARK    4  A    between atoms: C_5  and  C_6
REMARK    5  A    between atoms: C_15  and  C_17
REMARK    6  A    between atoms: C_25  and  C_26
REMARK    7  A    between atoms: C_26  and  C_27
REMARK    8  A    between atoms: N_29  and  C_30
REMARK    9  A    between atoms: C_30  and  C_32
REMARK                            x       y       z     vdW  Elec       q    Type
REMARK                         _______ _______ _______ _____ _____    ______ ____
ROOT
ATOM      6  C   UNL     1       0.797   0.880  23.551  0.00  0.00    +0.247 C 
ATOM      7  O   UNL     1       1.016   1.617  23.851  0.00  0.00    -0.273 OA
ATOM      8  N   UNL     1       0.008   0.642  23.575  0.00  0.00    -0.154 NA
ATOM      9  C   UNL     1      -0.564   1.143  23.899  0.00  0.00    +0.185 A 
ATOM     10  N   UNL     1      -1.371   0.981  23.960  0.00  0.00    -0.227 NA
ATOM     11  C   UNL     1      -1.734   1.630  24.317  0.00  0.00    +0.063 A 
ATOM     12  C   UNL     1      -1.152   2.193  24.476  0.00  0.00    +0.023 A 
ATOM     13  C   UNL     1      -1.356   2.906  24.836  0.00  0.00    +0.034 C 
ATOM     14  C   UNL     1      -2.141   3.058  25.036  0.00  0.00    +0.010 C 
ATOM     15  C   UNL     1      -2.344   3.772  25.396  0.00  0.00    +0.059 C 
ATOM     16  C   UNL     1      -1.532   3.882  25.310  0.00  0.00    +0.005 C 
ATOM     19  C   UNL     1      -3.130   3.924  25.597  0.00  0.00    +0.154 C 
ATOM     20  O   UNL     1      -3.334   4.638  25.956  0.00  0.00    -0.223 OA
ATOM     21  C   UNL     1      -3.713   3.361  25.438  0.00  0.00    +0.033 C 
ATOM     22  C   UNL     1      -3.509   2.647  25.078  0.00  0.00    +0.003 C 
ATOM     23  C   UNL     1      -2.723   2.496  24.877  0.00  0.00    +0.006 C 
ATOM     24  C   UNL     1      -3.305   1.933  24.718  0.00  0.00    +0.000 C 
ATOM     25  C   UNL     1      -2.520   1.781  24.518  0.00  0.00    +0.050 C 
ATOM     38  S   UNL     1      -0.429   1.891  24.217  0.00  0.00    -0.054 S 
ENDROOT
BRANCH  15  17
ATOM     17  C   UNL     1      -2.265   4.524  25.726  0.00  0.00    +0.184 C 
ATOM     18  O   UNL     1      -1.659   5.023  25.474  0.00  0.00    -0.220 OA
ENDBRANCH  15  17
BRANCH   6   5
ATOM      5  C   UNL     1       1.369   0.380  23.227  0.00  0.00    +0.087 C 
BRANCH   5   4
ATOM      4  C   UNL     1       2.131   0.661  23.088  0.00  0.00    +0.010 C 
BRANCH   4   3
ATOM      3  C   UNL     1       2.697   0.168  22.745  0.00  0.00    +0.001 C 
BRANCH   3   2
ATOM      1  C   UNL     1       4.098   0.433  22.808  0.00  0.00    +0.000 C 
ATOM      2  C   UNL     1       3.378   0.492  22.411  0.00  0.00    +0.000 C 
ENDBRANCH   3   2
ENDBRANCH   4   3
ENDBRANCH   5   4
ENDBRANCH   6   5
BRANCH  25  26
ATOM     26  C   UNL     1      -3.102   1.219  24.358  0.00  0.00    +0.093 C 
BRANCH  26  27
ATOM     27  C   UNL     1      -3.154   0.538  24.821  0.00  0.00    +0.242 C 
ATOM     28  O   UNL     1      -2.797   0.515  25.564  0.00  0.00    -0.273 OA
ATOM     29  N   UNL     1      -3.565  -0.120  24.541  0.00  0.00    -0.203 NA
BRANCH  29  30
ATOM     30  C   UNL     1      -3.617  -0.801  25.003  0.00  0.00    +0.118 C 
ATOM     31  C   UNL     1      -3.578  -0.746  25.825  0.00  0.00    +0.028 C 
BRANCH  30  32
ATOM     32  C   UNL     1      -3.709  -1.538  24.643  0.00  0.00    -0.003 A 
ATOM     33  C   UNL     1      -4.245  -1.631  24.023  0.00  0.00    -0.003 A 
ATOM     34  C   UNL     1      -4.337  -2.367  23.663  0.00  0.00    -0.000 A 
ATOM     35  C   UNL     1      -3.892  -3.012  23.924  0.00  0.00    -0.000 A 
ATOM     36  C   UNL     1      -3.356  -2.919  24.544  0.00  0.00    -0.000 A 
ATOM     37  C   UNL     1      -3.264  -2.182  24.904  0.00  0.00    -0.003 A 
ENDBRANCH  30  32
ENDBRANCH  29  30
ENDBRANCH  26  27
ENDBRANCH  25  26
TORSDOF 9
ENDMDL
MODEL 2
REMARK VINA RESULT:     -12.9      2.186      4.757
REMARK  Name = 
REMARK  9 active torsions:
REMARK  status: ('A' for Active; 'I' for Inactive)
REMARK    1  A    between atoms: C_2  and  C_3
REMARK    2  A    between atoms: C_3  and  C_4
REMARK    3  A    between atoms: C_4  and  C_5
REMARK    4  A    between atoms: C_5  and  C_6
REMARK    5  A    between atoms: C_15  and  C_17
REMARK    6  A    between atoms: C_25  and  C_26
REMARK    7  A    between atoms: C_26  and  C_27
REMARK    8  A    between atoms: N_29  and  C_30
REMARK    9  A    between atoms: C_30  and  C_32
REMARK                            x       y       z     vdW  Elec       q    Type
REMARK                         _______ _______ _______ _____ _____    ______ ____
ROOT
ATOM      6  C   UNL     1      -0.714   2.007  24.686  0.00  0.00    +0.247 C 
ATOM      7  O   UNL     1      -0.274   1.321  24.814  0.00  0.00    -0.273 OA
ATOM      8  N   UNL     1      -1.522   1.956  24.529  0.00  0.00    -0.154 NA
ATOM      9  C   UNL     1      -1.890   1.217  24.499  0.00  0.00    +0.185 A 
ATOM     10  N   UNL     1      -2.690   1.080  24.348  0.00  0.00    -0.227 NA
ATOM     11  C   UNL     1      -2.817   0.265  24.370  0.00  0.00    +0.063 A 
ATOM     12  C   UNL     1      -2.096  -0.101  24.534  0.00  0.00    +0.023 A 
ATOM     13  C   UNL     1      -2.055  -0.923  24.590  0.00  0.00    +0.034 C 
ATOM     14  C   UNL     1      -2.734  -1.379  24.482  0.00  0.00    +0.010 C 
ATOM     15  C   UNL     1      -2.691  -2.201  24.538  0.00  0.00    +0.059 C 
ATOM     16  C   UNL     1      -1.903  -2.007  24.683  0.00  0.00    +0.005 C 
ATOM     19  C   UNL     1      -3.370  -2.657  24.429  0.00  0.00    +0.154 C 
ATOM     20  O   UNL     1      -3.329  -3.479  24.485  0.00  0.00    -0.223 OA
ATOM     21  C   UNL     1      -4.092  -2.291  24.265  0.00  0.00    +0.033 C 
ATOM     22  C   UNL     1      -4.133  -1.469  24.209  0.00  0.00    +0.003 C 
ATOM     23  C   UNL     1      -3.454  -1.013  24.317  0.00  0.00    +0.006 C 
ATOM     24  C   UNL     1      -4.174  -0.646  24.153  0.00  0.00    +0.000 C 
ATOM     25  C   UNL     1      -3.496  -0.191  24.261  0.00  0.00    +0.050 C 
ATOM     38  S   UNL     1      -1.523   0.488  24.614  0.00  0.00    -0.054 S 
ENDROOT
BRANCH  15  17
ATOM     17  C   UNL     1      -2.376  -2.955  24.644  0.00  0.00    +0.184 C 
ATOM     18  O   UNL     1      -1.560  -3.055  24.715  0.00  0.00    -0.220 OA
ENDBRANCH  15  17
BRANCH   6   5
ATOM      5  C   UNL     1      -0.346   2.745  24.717  0.00  0.00    +0.087 C 
BRANCH   5   4
ATOM      4  C   UNL     1      -0.712   3.372  25.109  0.00  0.00    +0.010 C 
BRANCH   4   3
ATOM      3  C   UNL     1      -0.583   4.148  24.857  0.00  0.00    +0.001 C 
BRANCH   3   2
ATOM      1  C   UNL     1      -1.167   5.451  24.836  0.00  0.00    +0.000 C 
ATOM      2  C   UNL     1      -0.944   4.775  25.253  0.00  0.00    +0.000 C 
ENDBRANCH   3   2
ENDBRANCH   4   3
ENDBRANCH   5   4
ENDBRANCH   6   5
BRANCH  25  26
ATOM     26  C   UNL     1      -4.216   0.175  24.097  0.00  0.00    +0.093 C 
BRANCH  26  27
ATOM     27  C   UNL     1      -4.588   0.632  24.675  0.00  0.00    +0.242 C 
ATOM     28  O   UNL     1      -4.655   0.347  25.446  0.00  0.00    -0.273 OA
ATOM     29  N   UNL     1      -4.894   1.373  24.482  0.00  0.00    -0.203 NA
BRANCH  29  30
ATOM     30  C   UNL     1      -5.266   1.829  25.059  0.00  0.00    +0.118 C 
ATOM     31  C   UNL     1      -5.855   1.497  25.531  0.00  0.00    +0.028 C 
BRANCH  30  32
ATOM     32  C   UNL     1      -5.048   2.618  25.166  0.00  0.00    -0.003 A 
ATOM     33  C   UNL     1      -4.945   3.110  24.512  0.00  0.00    -0.003 A 
ATOM     34  C   UNL     1      -4.727   3.898  24.618  0.00  0.00    -0.000 A 
ATOM     35  C   UNL     1      -4.612   4.195  25.380  0.00  0.00    -0.000 A 
ATOM     36  C   UNL     1      -4.716   3.703  26.034  0.00  0.00    -0.000 A 
ATOM     37  C   UNL     1      -4.933   2.914  25.927  0.00  0.00    -0.003 A 
ENDBRANCH  30  32
ENDBRANCH  29  30
ENDBRANCH  26  27
ENDBRANCH  25  26
TORSDOF 9
ENDMDL
MODEL 3
REMARK VINA RESULT:     -12.6      1.523      4.452
REMARK  Name = 
REMARK  9 active torsions:
REMARK  status: ('A' for Active; 'I' for Inactive)
REMARK    1  A    between atoms: C_2  and  C_3
REMARK    2  A    between atoms: C_3  and  C_4
REMARK    3  A    between atoms: C_4  and  C_5
REMARK    4  A    between atoms: C_5  and  C_6
REMARK    5  A    between atoms: C_15  and  C_17
REMARK    6  A    between atoms: C_25  and  C_26
REMARK    7  A    between atoms: C_26  and  C_27
REMARK    8  A    between atoms: N_29  and  C_30
REMARK    9  A    between atoms: C_30  and  C_32
REMARK                            x       y       z     vdW  Elec       q    Type
REMARK                         _______ _______ _______ _____ _____    ______ ____
ROOT
ATOM      6  C   UNL     1       1.496   0.168  22.998  0.00  0.00    +0.247 C 
ATOM      7  O   UNL     1       1.405  -0.646  23.093  0.00  0.00    -0.273 OA
ATOM      8  N   UNL     1       0.897   0.682  23.238  0.00  0.00    -0.154 NA
ATOM      9  C   UNL     1       0.205   0.380  23.573  0.00  0.00    +0.185 A 
ATOM     10  N   UNL     1      -0.439   0.823  23.838  0.00  0.00    -0.227 NA
ATOM     11  C   UNL     1      -1.005   0.299  24.131  0.00  0.00    +0.063 A 
ATOM     12  C   UNL     1      -0.711  -0.468  24.047  0.00  0.00    +0.023 A 
ATOM     13  C   UNL     1      -1.163  -1.112  24.295  0.00  0.00    +0.034 C 
ATOM     14  C   UNL     1      -1.908  -0.990  24.627  0.00  0.00    +0.010 C 
ATOM     15  C   UNL     1      -2.359  -1.635  24.875  0.00  0.00    +0.059 C 
ATOM     16  C   UNL     1      -1.690  -2.028  24.595  0.00  0.00    +0.005 C 
ATOM     19  C   UNL     1      -3.105  -1.513  25.207  0.00  0.00    +0.154 C 
ATOM     20  O   UNL     1      -3.557  -2.157  25.455  0.00  0.00    -0.223 OA
ATOM     21  C   UNL     1      -3.399  -0.746  25.291  0.00  0.00    +0.033 C 
ATOM     22  C   UNL     1      -2.947  -0.102  25.042  0.00  0.00    +0.003 C 
ATOM     23  C   UNL     1      -2.202  -0.224  24.710  0.00  0.00    +0.006 C 
ATOM     24  C   UNL     1      -2.495   0.543  24.794  0.00  0.00    +0.000 C 
ATOM     25  C   UNL     1      -1.751   0.421  24.463  0.00  0.00    +0.050 C 
ATOM     38  S   UNL     1       0.037  -0.417  23.702  0.00  0.00    -0.054 S 
ENDROOT
BRANCH  15  17
ATOM     17  C   UNL     1      -2.578  -2.415  25.025  0.00  0.00    +0.184 C 
ATOM     18  O   UNL     1      -2.198  -3.033  24.633  0.00  0.00    -0.220 OA
ENDBRANCH  15  17
BRANCH   6   5
ATOM      5  C   UNL     1       2.188   0.471  22.663  0.00  0.00    +0.087 C 
BRANCH   5   4
ATOM      4  C   UNL     1       2.921   0.162  22.883  0.00  0.00    +0.010 C 
BRANCH   4   3
ATOM      3  C   UNL     1       3.607   0.606  22.765  0.00  0.00    +0.001 C 
BRANCH   3   2
ATOM      1  C   UNL     1       4.931   0.612  23.300  0.00  0.00    +0.000 C 
ATOM      2  C   UNL     1       4.346   0.250  22.845  0.00  0.00    +0.000 C 
ENDBRANCH   3   2
ENDBRANCH   4   3
ENDBRANCH   5   4
ENDBRANCH   6   5
BRANCH  25  26
ATOM     26  C   UNL     1      -2.044   1.187  24.546  0.00  0.00    +0.093 C 
BRANCH  26  27
ATOM     27  C   UNL     1      -1.689   1.709  25.077  0.00  0.00    +0.242 C 
ATOM     28  O   UNL     1      -1.286   1.418  25.735  0.00  0.00    -0.273 OA
ATOM     29  N   UNL     1      -1.736   2.522  24.951  0.00  0.00    -0.203 NA
BRANCH  29  30
ATOM     30  C   UNL     1      -1.381   3.044  25.481  0.00  0.00    +0.118 C 
ATOM     31  C   UNL     1      -1.021   2.756  26.165  0.00  0.00    +0.028 C 
BRANCH  30  32
ATOM     32  C   UNL     1      -1.386   3.855  25.328  0.00  0.00    -0.003 A 
ATOM     33  C   UNL     1      -2.038   4.312  25.544  0.00  0.00    -0.003 A 
ATOM     34  C   UNL     1      -2.042   5.123  25.391  0.00  0.00    -0.000 A 
ATOM     35  C   UNL     1      -1.394   5.477  25.022  0.00  0.00    -0.000 A 
ATOM     36  C   UNL     1      -0.742   5.019  24.806  0.00  0.00    -0.000 A 
ATOM     37  C   UNL     1      -0.738   4.208  24.959  0.00  0.00    -0.003 A 
ENDBRANCH  30  32
ENDBRANCH  29  30
ENDBRANCH  26  27
ENDBRANCH  25  26
TORSDOF 9
ENDMDL
MODEL 4
REMARK VINA RESULT:     -11.8      2.357      6.066
REMARK  Name = 
REMARK  9 active torsions:
REMARK  status: ('A' for Active; 'I' for Inactive)
REMARK    1  A    between atoms: C_2  and  C_3
REMARK    2  A    between atoms: C_3  and  C_4
REMARK    3  A    between atoms: C_4  and  C_5
REMARK    4  A    between atoms: C_5  and  C_6
REMARK    5  A    between atoms: C_15  and  C_17
REMARK    6  A    between atoms: C_25  and  C_26
REMARK    7  A    between atoms: C_26  and  C_27
REMARK    8  A    between atoms: N_29  and  C_30
REMARK    9  A    between atoms: C_30  and  C_32
REMARK                            x       y       z     vdW  Elec       q    Type
REMARK                         _______ _______ _______ _____ _____    ______ ____
ROOT
ATOM      6  C   UNL     1      -5.336   1.739  24.998  0.00  0.00    +0.247 C 
ATOM      7  O   UNL     1      -5.621   0.971  25.097  0.00  0.00    -0.273 OA
ATOM      8  N   UNL     1      -4.535   1.866  24.849  0.00  0.00    -0.154 NA
ATOM      9  C   UNL     1      -4.018   1.224  24.801  0.00  0.00    +0.185 A 
ATOM     10  N   UNL     1      -3.206   1.265  24.656  0.00  0.00    -0.227 NA
ATOM     11  C   UNL     1      -2.909   0.496  24.653  0.00  0.00    +0.063 A 
ATOM     12  C   UNL     1      -3.537  -0.021  24.797  0.00  0.00    +0.023 A 
ATOM     13  C   UNL     1      -3.402  -0.834  24.826  0.00  0.00    +0.034 C 
ATOM     14  C   UNL     1      -2.641  -1.132  24.712  0.00  0.00    +0.010 C 
ATOM     15  C   UNL     1      -2.508  -1.946  24.741  0.00  0.00    +0.059 C 
ATOM     16  C   UNL     1      -3.320  -1.929  24.882  0.00  0.00    +0.005 C 
ATOM     19  C   UNL     1      -1.747  -2.243  24.627  0.00  0.00    +0.154 C 
ATOM     20  O   UNL     1      -1.613  -3.056  24.656  0.00  0.00    -0.223 OA
ATOM     21  C   UNL     1      -1.119  -1.726  24.484  0.00  0.00    +0.033 C 
ATOM     22  C   UNL     1      -1.253  -0.913  24.455  0.00  0.00    +0.003 C 
ATOM     23  C   UNL     1      -2.014  -0.616  24.569  0.00  0.00    +0.006 C 
ATOM     24  C   UNL     1      -1.387  -0.099  24.426  0.00  0.00    +0.000 C 
ATOM     25  C   UNL     1      -2.148   0.198  24.539  0.00  0.00    +0.050 C 
ATOM     38  S   UNL     1      -4.222   0.430  24.888  0.00  0.00    -0.054 S 
ENDROOT
BRANCH  15  17
ATOM     17  C   UNL     1      -2.657  -2.753  24.819  0.00  0.00    +0.184 C 
ATOM     18  O   UNL     1      -3.429  -3.021  24.928  0.00  0.00    -0.220 OA
ENDBRANCH  15  17
BRANCH   6   5
ATOM      5  C   UNL     1      -5.853   2.381  25.047  0.00  0.00    +0.087 C 
BRANCH   5   4
ATOM      4  C   UNL     1      -5.648   3.041  25.497  0.00  0.00    +0.010 C 
BRANCH   4   3
ATOM      3  C   UNL     1      -6.092   3.735  25.437  0.00  0.00    +0.001 C 
BRANCH   3   2
ATOM      1  C   UNL     1      -6.028   5.160  25.480  0.00  0.00    +0.000 C 
ATOM      2  C   UNL     1      -5.826   4.427  25.798  0.00  0.00    +0.000 C 
ENDBRANCH   3   2
ENDBRANCH   4   3
ENDBRANCH   5   4
ENDBRANCH   6   5
BRANCH  25  26
ATOM     26  C   UNL     1      -1.521   0.714  24.396  0.00  0.00    +0.093 C 
BRANCH  26  27
ATOM     27  C   UNL     1      -1.280   1.243  24.982  0.00  0.00    +0.242 C 
ATOM     28  O   UNL     1      -1.220   0.992  25.766  0.00  0.00    -0.273 OA
ATOM     29  N   UNL     1      -1.098   2.023  24.786  0.00  0.00    -0.203 NA
BRANCH  29  30
ATOM     30  C   UNL     1      -0.857   2.551  25.371  0.00  0.00    +0.118 C 
ATOM     31  C   UNL     1      -0.437   2.277  26.026  0.00  0.00    +0.028 C 
BRANCH  30  32
ATOM     32  C   UNL     1      -1.037   3.354  25.302  0.00  0.00    -0.003 A 
ATOM     33  C   UNL     1      -1.664   3.674  25.732  0.00  0.00    -0.003 A 
ATOM     34  C   UNL     1      -1.844   4.476  25.664  0.00  0.00    -0.000 A 
ATOM     35  C   UNL     1      -1.396   4.958  25.165  0.00  0.00    -0.000 A 
ATOM     36  C   UNL     1      -0.769   4.637  24.735  0.00  0.00    -0.000 A 
ATOM     37  C   UNL     1      -0.590   3.835  24.803  0.00  0.00    -0.003 A 
ENDBRANCH  30  32
ENDBRANCH  29  30
ENDBRANCH  26  27
ENDBRANCH  25  26
TORSDOF 9
ENDMDL
MODEL 5
REMARK VINA RESULT:     -10.6      1.678      4.154
REMARK  Name = 
REMARK  9 active torsions:
REMARK  status: ('A' for Active; 'I' for Inactive)
REMARK    1  A    between atoms: C_2  and  C_3
REMARK    2  A    between atoms: C_3  and  C_4
REMARK    3  A    between atoms: C_4  and  C_5
REMARK    4  A    between atoms: C_5  and  C_6
REMARK    5  A    between atoms: C_15  and  C_17
REMARK    6  A    between atoms: C_25  and  C_26
REMARK    7  A    between atoms: C_26  and  C_27
REMARK    8  A    between atoms: N_29  and  C_30
REMARK    9  A    between atoms: C_30  and  C_32
REMARK                            x       y       z     vdW  Elec       q    Type
REMARK                         _______ _______ _______ _____ _____    ______ ____
ROOT
ATOM      6  C   UNL     1      -4.291  -1.120  24.082  0.00  0.00    +0.247 C 
ATOM      7  O   UNL     1      -4.988  -0.890  24.459  0.00  0.00    -0.273 OA
ATOM      8  N   UNL     1      -3.710  -0.561  23.911  0.00  0.00    -0.154 NA
ATOM      9  C   UNL     1      -3.825   0.230  24.119  0.00  0.00    +0.185 A 
ATOM     10  N   UNL     1      -3.295   0.849  23.985  0.00  0.00    -0.227 NA
ATOM     11  C   UNL     1      -3.633   1.542  24.279  0.00  0.00    +0.063 A 
ATOM     12  C   UNL     1      -4.371   1.351  24.596  0.00  0.00    +0.023 A 
ATOM     13  C   UNL     1      -4.839   1.940  24.933  0.00  0.00    +0.034 C 
ATOM     14  C   UNL     1      -4.570   2.720  24.954  0.00  0.00    +0.010 C 
ATOM     15  C   UNL     1      -5.040   3.309  25.292  0.00  0.00    +0.059 C 
ATOM     16  C   UNL     1      -5.531   2.655  25.401  0.00  0.00    +0.005 C 
ATOM     19  C   UNL     1      -4.770   4.088  25.313  0.00  0.00    +0.154 C 
ATOM     20  O   UNL     1      -5.239   4.678  25.651  0.00  0.00    -0.223 OA
ATOM     21  C   UNL     1      -4.032   4.279  24.997  0.00  0.00    +0.033 C 
ATOM     22  C   UNL     1      -3.564   3.689  24.660  0.00  0.00    +0.003 C 
ATOM     23  C   UNL     1      -3.833   2.910  24.638  0.00  0.00    +0.006 C 
ATOM     24  C   UNL     1      -3.095   3.100  24.322  0.00  0.00    +0.000 C 
ATOM     25  C   UNL     1      -3.364   2.321  24.301  0.00  0.00    +0.050 C 
ATOM     38  S   UNL     1      -4.489   0.540  24.496  0.00  0.00    -0.054 S 
ENDROOT
BRANCH  15  17
ATOM     17  C   UNL     1      -5.679   3.670  25.667  0.00  0.00    +0.184 C 
ATOM     18  O   UNL     1      -6.227   3.213  26.080  0.00  0.00    -0.220 OA
ENDBRANCH  15  17
BRANCH   6   5
ATOM      5  C   UNL     1      -4.176  -1.911  23.874  0.00  0.00    +0.087 C 
BRANCH   5   4
ATOM      4  C   UNL     1      -3.788  -2.421  24.394  0.00  0.00    +0.010 C 
BRANCH   4   3
ATOM      3  C   UNL     1      -3.243  -2.969  24.104  0.00  0.00    +0.001 C 
BRANCH   3   2
ATOM      1  C   UNL     1      -1.877  -3.226  24.429  0.00  0.00    +0.000 C 
ATOM      2  C   UNL     1      -2.678  -3.295  24.610  0.00  0.00    +0.000 C 
ENDBRANCH   3   2
ENDBRANCH   4   3
ENDBRANCH   5   4
ENDBRANCH   6   5
BRANCH  25  26
ATOM     26  C   UNL     1      -2.626   2.511  23.985  0.00  0.00    +0.093 C 
BRANCH  26  27
ATOM     27  C   UNL     1      -1.938   2.261  24.365  0.00  0.00    +0.242 C 
ATOM     28  O   UNL     1      -1.862   2.351  25.181  0.00  0.00    -0.273 OA
ATOM     29  N   UNL     1      -1.325   1.922  23.929  0.00  0.00    -0.203 NA
BRANCH  29  30
ATOM     30  C   UNL     1      -0.638   1.673  24.309  0.00  0.00    +0.118 C 
ATOM     31  C   UNL     1      -0.304   2.135  24.905  0.00  0.00    +0.028 C 
BRANCH  30  32
ATOM     32  C   UNL     1      -0.283   0.959  24.093  0.00  0.00    -0.003 A 
ATOM     33  C   UNL     1       0.102   0.893  23.366  0.00  0.00    -0.003 A 
ATOM     34  C   UNL     1       0.457   0.180  23.150  0.00  0.00    -0.000 A 
ATOM     35  C   UNL     1       0.427  -0.467  23.662  0.00  0.00    -0.000 A 
ATOM     36  C   UNL     1       0.043  -0.400  24.389  0.00  0.00    -0.000 A 
ATOM     37  C   UNL     1      -0.312   0.313  24.605  0.00  0.00    -0.003 A 
ENDBRANCH  30  32
ENDBRANCH  29  30
ENDBRANCH  26  27
ENDBRANCH  25  26
TORSDOF 9
ENDMDL
