MODEL 1
REMARK VINA RESULT:     -13.1      0.000      0.000
REMARK  Name = 
REMARK  4 active torsions:
REMARK  status: ('A' for Active; 'I' for Inactive)
REMARK    1  A    between atoms: C_5  and  S_8
REMARK    2  A    between atoms: S_8  and  N_11
REMARK    3  A    between atoms: C_16  and  C_17
REMARK    4  A    between atoms: N_19  and  C_20
REMARK                            x       y       z     vdW  Elec       q    Type
REMARK                         _______ _______ _______ _____ _____    ______ ____
ROOT
ATOM     11  N   UNL     1      -3.715   0.798  24.811  0.00  0.00    -0.145 NA
ATOM     12  C   UNL     1      -4.401   1.255  24.849  0.00  0.00    +0.118 C 
ATOM     13  C   UNL     1      -4.348   2.069  24.970  0.00  0.00    +0.114 C 
ATOM     14  N   UNL     1      -3.608   2.426  25.053  0.00  0.00    -0.261 N 
ATOM     15  C   UNL     1      -2.923   1.969  25.015  0.00  0.00    +0.122 C 
ATOM     16  C   UNL     1      -2.977   1.154  24.894  0.00  0.00    +0.177 C 
ATOM     27  C   UNL     1      -3.555   3.240  25.173  0.00  0.00    +0.307 C 
ATOM     28  O   UNL     1      -4.241   3.698  25.211  0.00  0.00    -0.252 OA
ATOM     29  N   UNL     1      -2.816   3.597  25.256  0.00  0.00    -0.259 N 
ATOM     30  C   UNL     1      -2.762   4.412  25.377  0.00  0.00    +0.127 C 
ATOM     31  C   UNL     1      -2.023   4.768  25.460  0.00  0.00    +0.164 C 
ATOM     32  O   UNL     1      -1.338   4.311  25.423  0.00  0.00    -0.350 OA
ATOM     33  C   UNL     1      -1.391   3.497  25.302  0.00  0.00    +0.164 C 
ATOM     34  C   UNL     1      -2.130   3.139  25.219  0.00  0.00    +0.127 C 
ENDROOT
BRANCH  11   8
ATOM      8  S   UNL     1      -3.769  -0.018  24.690  0.00  0.00    +0.064 S 
ATOM      9  O   UNL     1      -3.750  -0.140  25.506  0.00  0.00    -0.153 OA
ATOM     10  O   UNL     1      -3.788   0.105  23.875  0.00  0.00    -0.153 OA
BRANCH   8   5
ATOM      1  F   UNL     1      -3.983  -3.275  24.207  0.00  0.00    -0.204 F 
ATOM      2  C   UNL     1      -3.929  -2.460  24.328  0.00  0.00    +0.140 A 
ATOM      3  C   UNL     1      -4.046  -1.941  23.697  0.00  0.00    +0.031 A 
ATOM      4  C   UNL     1      -3.993  -1.127  23.818  0.00  0.00    +0.022 A 
ATOM      5  C   UNL     1      -3.822  -0.832  24.570  0.00  0.00    +0.122 A 
ATOM      6  C   UNL     1      -3.706  -1.350  25.200  0.00  0.00    +0.022 A 
ATOM      7  C   UNL     1      -3.759  -2.165  25.079  0.00  0.00    +0.031 A 
ENDBRANCH   8   5
ENDBRANCH  11   8
BRANCH  16  17
ATOM     17  C   UNL     1      -2.290   0.697  24.857  0.00  0.00    +0.260 C 
ATOM     18  O   UNL     1      -2.126   0.150  25.453  0.00  0.00    -0.272 OA
ATOM     19  N   UNL     1      -1.769   0.786  24.224  0.00  0.00    -0.197 NA
BRANCH  19  20
ATOM     20  C   UNL     1      -1.083   0.329  24.187  0.00  0.00    +0.173 C 
ATOM     21  C   UNL     1      -0.863  -0.138  24.829  0.00  0.00    +0.033 C 
ATOM     22  C   UNL     1      -0.177  -0.595  24.791  0.00  0.00    +0.026 C 
ATOM     23  C   UNL     1       0.289  -0.583  24.109  0.00  0.00    +0.115 C 
ATOM     24  N   UNL     1       0.069  -0.116  23.467  0.00  0.00    -0.204 NA
ATOM     25  C   UNL     1      -0.617   0.341  23.505  0.00  0.00    +0.261 C 
ATOM     26  O   UNL     1      -0.838   0.809  22.863  0.00  0.00    -0.271 OA
ENDBRANCH  19  20
ENDBRANCH  16  17
TORSDOF 4
ENDMDL
MODEL 2
REMARK VINA RESULT:     -12.6      1.467      3.294
REMARK  Name = 
REMARK  4 active torsions:
REMARK  status: ('A' for Active; 'I' for Inactive)
REMARK    1  A    between atoms: C_5  and  S_8
REMARK    2  A    between atoms: S_8  and  N_11
REMARK    3  A    between atoms: C_16  and  C_17
REMARK    4  A    between atoms: N_19  and  C_20
REMARK                            x       y       z     vdW  Elec       q    Type
REMARK                         _______ _______ _______ _____ _____    ______ ____
ROOT
ATOM     11  N   UNL     1      -2.126   1.666  24.727  0.00  0.00    -0.145 NA
ATOM     12  C   UNL     1      -1.937   2.432  24.969  0.00  0.00    +0.118 C 
ATOM     13  C   UNL     1      -2.536   2.948  25.205  0.00  0.00    +0.114 C 
ATOM     14  N   UNL     1      -3.323   2.698  25.199  0.00  0.00    -0.261 N 
ATOM     15  C   UNL     1      -3.510   1.932  24.958  0.00  0.00    +0.122 C 
ATOM     16  C   UNL     1      -2.911   1.416  24.722  0.00  0.00    +0.177 C 
ATOM     27  C   UNL     1      -3.920   3.214  25.435  0.00  0.00    +0.307 C 
ATOM     28  O   UNL     1      -3.733   3.981  25.677  0.00  0.00    -0.252 OA
ATOM     29  N   UNL     1      -4.707   2.965  25.430  0.00  0.00    -0.259 N 
ATOM     30  C   UNL     1      -5.305   3.481  25.666  0.00  0.00    +0.127 C 
ATOM     31  C   UNL     1      -6.091   3.231  25.660  0.00  0.00    +0.164 C 
ATOM     32  O   UNL     1      -6.279   2.465  25.419  0.00  0.00    -0.350 OA
ATOM     33  C   UNL     1      -5.681   1.949  25.183  0.00  0.00    +0.164 C 
ATOM     34  C   UNL     1      -4.894   2.198  25.188  0.00  0.00    +0.127 C 
ENDROOT
BRANCH  11   8
ATOM      8  S   UNL     1      -1.526   1.148  24.491  0.00  0.00    +0.064 S 
ATOM      9  O   UNL     1      -1.376   0.962  25.280  0.00  0.00    -0.153 OA
ATOM     10  O   UNL     1      -1.676   1.335  23.702  0.00  0.00    -0.153 OA
BRANCH   8   5
ATOM      1  F   UNL     1       0.868  -0.917  23.547  0.00  0.00    -0.204 F 
ATOM      2  C   UNL     1       0.269  -0.400  23.783  0.00  0.00    +0.140 A 
ATOM      3  C   UNL     1      -0.046   0.140  23.244  0.00  0.00    +0.031 A 
ATOM      4  C   UNL     1      -0.644   0.657  23.480  0.00  0.00    +0.022 A 
ATOM      5  C   UNL     1      -0.928   0.632  24.255  0.00  0.00    +0.122 A 
ATOM      6  C   UNL     1      -0.614   0.092  24.793  0.00  0.00    +0.022 A 
ATOM      7  C   UNL     1      -0.015  -0.424  24.557  0.00  0.00    +0.031 A 
ENDBRANCH   8   5
ENDBRANCH  11   8
BRANCH  16  17
ATOM     17  C   UNL     1      -3.100   0.650  24.480  0.00  0.00    +0.260 C 
ATOM     18  O   UNL     1      -2.988   0.426  23.693  0.00  0.00    -0.272 OA
ATOM     19  N   UNL     1      -3.399   0.107  25.024  0.00  0.00    -0.197 NA
BRANCH  19  20
ATOM     20  C   UNL     1      -3.588  -0.659  24.783  0.00  0.00    +0.173 C 
ATOM     21  C   UNL     1      -3.801  -0.805  24.000  0.00  0.00    +0.033 C 
ATOM     22  C   UNL     1      -3.989  -1.570  23.759  0.00  0.00    +0.026 C 
ATOM     23  C   UNL     1      -3.964  -2.192  24.302  0.00  0.00    +0.115 C 
ATOM     24  N   UNL     1      -3.750  -2.046  25.085  0.00  0.00    -0.204 NA
ATOM     25  C   UNL     1      -3.562  -1.281  25.326  0.00  0.00    +0.261 C 
ATOM     26  O   UNL     1      -3.348  -1.135  26.109  0.00  0.00    -0.271 OA
ENDBRANCH  19  20
ENDBRANCH  16  17
TORSDOF 4
ENDMDL
MODEL 3
REMARK VINA RESULT:     -12.3      2.148      5.071
REMARK  Name = 
REMARK  4 active torsions:
REMARK  status: ('A' for Active; 'I' for Inactive)
REMARK    1  A    between atoms: C_5  and  S_8
REMARK    2  A    between atoms: S_8  and  N_11
REMARK    3  A    between atoms: C_16  and  C_17
REMARK    4  A    between atoms: N_19  and  C_20
REMARK                            x       y       z     vdW  Elec       q    Type
REMARK                         _______ _______ _______ _____ _____    ______ ____
ROOT
ATOM     11  N   UNL     1      -1.147   1.072  24.753  0.00  0.00    -0.145 NA
ATOM     12  C   UNL     1      -0.507   0.564  24.635  0.00  0.00    +0.118 C 
ATOM     13  C   UNL     1      -0.634  -0.249  24.571  0.00  0.00    +0.114 C 
ATOM     14  N   UNL     1      -1.400  -0.553  24.625  0.00  0.00    -0.261 N 
ATOM     15  C   UNL     1      -2.038  -0.044  24.743  0.00  0.00    +0.122 C 
ATOM     16  C   UNL     1      -1.911   0.769  24.807  0.00  0.00    +0.177 C 
ATOM     27  C   UNL     1      -1.526  -1.365  24.561  0.00  0.00    +0.307 C 
ATOM     28  O   UNL     1      -0.887  -1.874  24.442  0.00  0.00    -0.252 OA
ATOM     29  N   UNL     1      -2.291  -1.669  24.615  0.00  0.00    -0.259 N 
ATOM     30  C   UNL     1      -2.417  -2.482  24.550  0.00  0.00    +0.127 C 
ATOM     31  C   UNL     1      -3.183  -2.785  24.604  0.00  0.00    +0.164 C 
ATOM     32  O   UNL     1      -3.821  -2.277  24.722  0.00  0.00    -0.350 OA
ATOM     33  C   UNL     1      -3.695  -1.464  24.787  0.00  0.00    +0.164 C 
ATOM     34  C   UNL     1      -2.930  -1.160  24.733  0.00  0.00    +0.127 C 
ENDROOT
BRANCH  11   8
ATOM      8  S   UNL     1      -1.020   1.886  24.818  0.00  0.00    +0.064 S 
ATOM      9  O   UNL     1      -1.014   1.950  23.995  0.00  0.00    -0.153 OA
ATOM     10  O   UNL     1      -1.026   1.822  25.640  0.00  0.00    -0.153 OA
BRANCH   8   5
ATOM      1  F   UNL     1      -0.514   5.137  25.075  0.00  0.00    -0.204 F 
ATOM      2  C   UNL     1      -0.640   4.323  25.010  0.00  0.00    +0.140 A 
ATOM      3  C   UNL     1      -0.618   3.960  24.270  0.00  0.00    +0.031 A 
ATOM      4  C   UNL     1      -0.744   3.147  24.206  0.00  0.00    +0.022 A 
ATOM      5  C   UNL     1      -0.893   2.699  24.882  0.00  0.00    +0.122 A 
ATOM      6  C   UNL     1      -0.916   3.062  25.622  0.00  0.00    +0.022 A 
ATOM      7  C   UNL     1      -0.790   3.875  25.686  0.00  0.00    +0.031 A 
ENDBRANCH   8   5
ENDBRANCH  11   8
BRANCH  16  17
ATOM     17  C   UNL     1      -2.550   1.277  24.925  0.00  0.00    +0.260 C 
ATOM     18  O   UNL     1      -2.635   1.673  25.646  0.00  0.00    -0.272 OA
ATOM     19  N   UNL     1      -3.104   1.391  24.326  0.00  0.00    -0.197 NA
BRANCH  19  20
ATOM     20  C   UNL     1      -3.743   1.899  24.444  0.00  0.00    +0.173 C 
ATOM     21  C   UNL     1      -4.080   1.973  25.193  0.00  0.00    +0.033 C 
ATOM     22  C   UNL     1      -4.718   2.481  25.310  0.00  0.00    +0.026 C 
ATOM     23  C   UNL     1      -5.021   2.916  24.677  0.00  0.00    +0.115 C 
ATOM     24  N   UNL     1      -4.685   2.843  23.928  0.00  0.00    -0.204 NA
ATOM     25  C   UNL     1      -4.046   2.335  23.811  0.00  0.00    +0.261 C 
ATOM     26  O   UNL     1      -3.709   2.261  23.061  0.00  0.00    -0.271 OA
ENDBRANCH  19  20
ENDBRANCH  16  17
TORSDOF 4
ENDMDL
MODEL 4
REMARK VINA RESULT:     -12.1      1.149      2.963
REMARK  Name = 
REMARK  4 active torsions:
REMARK  status: ('A' for Active; 'I' for Inactive)
REMARK    1  A    between atoms: C_5  and  S_8
REMARK    2  A    between atoms: S_8  and  N_11
REMARK    3  A    between atoms: C_16  and  C_17
REMARK    4  A    between atoms: N_19  and  C_20
REMARK                            x       y       z     vdW  Elec       q    Type
REMARK                         _______ _______ _______ _____ _____    ______ ____
ROOT
ATOM     11  N   UNL     1      -2.096   0.772  24.483  0.00  0.00    -0.145 NA
ATOM     12  C   UNL     1      -1.314   0.752  24.222  0.00  0.00    +0.118 C 
ATOM     13  C   UNL     1      -0.857   1.439  24.235  0.00  0.00    +0.114 C 
ATOM     14  N   UNL     1      -1.183   2.147  24.509  0.00  0.00    -0.261 N 
ATOM     15  C   UNL     1      -1.966   2.165  24.770  0.00  0.00    +0.122 C 
ATOM     16  C   UNL     1      -2.422   1.478  24.757  0.00  0.00    +0.177 C 
ATOM     27  C   UNL     1      -0.728   2.833  24.522  0.00  0.00    +0.307 C 
ATOM     28  O   UNL     1       0.056   2.813  24.261  0.00  0.00    -0.252 OA
ATOM     29  N   UNL     1      -1.053   3.540  24.796  0.00  0.00    -0.259 N 
ATOM     30  C   UNL     1      -0.597   4.227  24.809  0.00  0.00    +0.127 C 
ATOM     31  C   UNL     1      -0.923   4.933  25.083  0.00  0.00    +0.164 C 
ATOM     32  O   UNL     1      -1.705   4.953  25.343  0.00  0.00    -0.350 OA
ATOM     33  C   UNL     1      -2.161   4.266  25.330  0.00  0.00    +0.164 C 
ATOM     34  C   UNL     1      -1.836   3.559  25.057  0.00  0.00    +0.127 C 
ENDROOT
BRANCH  11   8
ATOM      8  S   UNL     1      -2.553   0.084  24.470  0.00  0.00    +0.064 S 
ATOM      9  O   UNL     1      -2.339  -0.073  25.251  0.00  0.00    -0.153 OA
ATOM     10  O   UNL     1      -2.767   0.241  23.689  0.00  0.00    -0.153 OA
BRANCH   8   5
ATOM      1  F   UNL     1      -4.379  -2.664  24.418  0.00  0.00    -0.204 F 
ATOM      2  C   UNL     1      -3.922  -1.976  24.431  0.00  0.00    +0.140 A 
ATOM      3  C   UNL     1      -3.950  -1.451  23.795  0.00  0.00    +0.031 A 
ATOM      4  C   UNL     1      -3.493  -0.764  23.808  0.00  0.00    +0.022 A 
ATOM      5  C   UNL     1      -3.010  -0.603  24.457  0.00  0.00    +0.122 A 
ATOM      6  C   UNL     1      -2.982  -1.128  25.092  0.00  0.00    +0.022 A 
ATOM      7  C   UNL     1      -3.439  -1.815  25.079  0.00  0.00    +0.031 A 
ENDBRANCH   8   5
ENDBRANCH  11   8
BRANCH  16  17
ATOM     17  C   UNL     1      -3.205   1.498  25.018  0.00  0.00    +0.260 C 
ATOM     18  O   UNL     1      -3.431   1.055  25.677  0.00  0.00    -0.272 OA
ATOM     19  N   UNL     1      -3.761   1.960  24.621  0.00  0.00    -0.197 NA
BRANCH  19  20
ATOM     20  C   UNL     1      -4.543   1.981  24.882  0.00  0.00    +0.173 C 
ATOM     21  C   UNL     1      -4.730   1.736  25.647  0.00  0.00    +0.033 C 
ATOM     22  C   UNL     1      -5.512   1.756  25.907  0.00  0.00    +0.026 C 
ATOM     23  C   UNL     1      -6.108   2.022  25.402  0.00  0.00    +0.115 C 
ATOM     24  N   UNL     1      -5.922   2.267  24.637  0.00  0.00    -0.204 NA
ATOM     25  C   UNL     1      -5.140   2.246  24.377  0.00  0.00    +0.261 C 
ATOM     26  O   UNL     1      -4.952   2.491  23.611  0.00  0.00    -0.271 OA
ENDBRANCH  19  20
ENDBRANCH  16  17
TORSDOF 4
ENDMDL
MODEL 5
REMARK VINA RESULT:     -11.9      1.713      3.632
REMARK  Name = 
REMARK  4 active torsions:
REMARK  status: ('A' for Active; 'I' for Inactive)
REMARK    1  A    between atoms: C_5  and  S_8
REMARK    2  A    between atoms: S_8  and  N_11
REMARK    3  A    between atoms: C_16  and  C_17
REMARK    4  A    between atoms: N_19  and  C_20
REMARK                            x       y       z     vdW  Elec       q    Type
REMARK                         _______ _______ _______ _____ _____    ______ ____
ROOT
ATOM     11  N   UNL     1      -2.894   2.058  24.638  0.00  0.00    -0.145 NA
ATOM     12  C   UNL     1      -2.474   2.759  24.751  0.00  0.00    +0.118 C 
ATOM     13  C   UNL     1      -1.661   2.779  24.614  0.00  0.00    +0.114 C 
ATOM     14  N   UNL     1      -1.267   2.098  24.364  0.00  0.00    -0.261 N 
ATOM     15  C   UNL     1      -1.688   1.397  24.252  0.00  0.00    +0.122 C 
ATOM     16  C   UNL     1      -2.501   1.377  24.389  0.00  0.00    +0.177 C 
ATOM     27  C   UNL     1      -0.455   2.118  24.228  0.00  0.00    +0.307 C 
ATOM     28  O   UNL     1      -0.034   2.819  24.340  0.00  0.00    -0.252 OA
ATOM     29  N   UNL     1      -0.061   1.437  23.978  0.00  0.00    -0.259 N 
ATOM     30  C   UNL     1       0.752   1.457  23.841  0.00  0.00    +0.127 C 
ATOM     31  C   UNL     1       1.145   0.775  23.592  0.00  0.00    +0.164 C 
ATOM     32  O   UNL     1       0.725   0.075  23.480  0.00  0.00    -0.350 OA
ATOM     33  C   UNL     1      -0.088   0.055  23.617  0.00  0.00    +0.164 C 
ATOM     34  C   UNL     1      -0.482   0.735  23.866  0.00  0.00    +0.127 C 
ENDROOT
BRANCH  11   8
ATOM      8  S   UNL     1      -3.708   2.038  24.775  0.00  0.00    +0.064 S 
ATOM      9  O   UNL     1      -3.846   2.159  23.971  0.00  0.00    -0.153 OA
ATOM     10  O   UNL     1      -3.570   1.917  25.579  0.00  0.00    -0.153 OA
BRANCH   8   5
ATOM      1  F   UNL     1      -6.961   1.958  25.323  0.00  0.00    -0.204 F 
ATOM      2  C   UNL     1      -6.147   1.978  25.186  0.00  0.00    +0.140 A 
ATOM      3  C   UNL     1      -5.621   1.877  25.813  0.00  0.00    +0.031 A 
ATOM      4  C   UNL     1      -4.808   1.897  25.676  0.00  0.00    +0.022 A 
ATOM      5  C   UNL     1      -4.521   2.018  24.912  0.00  0.00    +0.122 A 
ATOM      6  C   UNL     1      -5.047   2.119  24.285  0.00  0.00    +0.022 A 
ATOM      7  C   UNL     1      -5.861   2.099  24.422  0.00  0.00    +0.031 A 
ENDBRANCH   8   5
ENDBRANCH  11   8
BRANCH  16  17
ATOM     17  C   UNL     1      -2.921   0.676  24.276  0.00  0.00    +0.260 C 
ATOM     18  O   UNL     1      -3.462   0.614  23.655  0.00  0.00    -0.272 OA
ATOM     19  N   UNL     1      -2.800   0.037  24.783  0.00  0.00    -0.197 NA
BRANCH  19  20
ATOM     20  C   UNL     1      -3.220  -0.665  24.670  0.00  0.00    +0.173 C 
ATOM     21  C   UNL     1      -3.576  -0.821  23.943  0.00  0.00    +0.033 C 
ATOM     22  C   UNL     1      -3.995  -1.522  23.831  0.00  0.00    +0.026 C 
ATOM     23  C   UNL     1      -4.059  -2.068  24.448  0.00  0.00    +0.115 C 
ATOM     24  N   UNL     1      -3.703  -1.912  25.175  0.00  0.00    -0.204 NA
ATOM     25  C   UNL     1      -3.284  -1.211  25.287  0.00  0.00    +0.261 C 
ATOM     26  O   UNL     1      -2.928  -1.054  26.014  0.00  0.00    -0.271 OA
ENDBRANCH  19  20
ENDBRANCH  16  17
TORSDOF 4
ENDMDL
MODEL 6
REMARK VINA RESULT:     -11.5      2.061      4.145
REMARK  Name = 
REMARK  4 active torsions:
REMARK  status: ('A' for Active; 'I' for Inactive)
REMARK    1  A    between atoms: C_5  and  S_8
REMARK    2  A    between atoms: S_8  and  N_11
REMARK    3  A    between atoms: C_16  and  C_17
REMARK    4  A    between atoms: N_19  and  C_20
REMARK                            x       y       z     vdW  Elec       q    Type
REMARK                         _______ _______ _______ _____ _____    ______ ____
ROOT
ATOM     11  N   UNL     1      -3.926   0.753  24.692  0.00  0.00    -0.145 NA
ATOM     12  C   UNL     1      -4.438   0.150  24.457  0.00  0.00    +0.118 C 
ATOM     13  C   UNL     1      -4.152  -0.617  24.354  0.00  0.00    +0.114 C 
ATOM     14  N   UNL     1      -3.353  -0.781  24.487  0.00  0.00    -0.261 N 
ATOM     15  C   UNL     1      -2.843  -0.177  24.722  0.00  0.00    +0.122 C 
ATOM     16  C   UNL     1      -3.129   0.590  24.825  0.00  0.00    +0.177 C 
ATOM     27  C   UNL     1      -3.067  -1.546  24.384  0.00  0.00    +0.307 C 
ATOM     28  O   UNL     1      -3.579  -2.150  24.149  0.00  0.00    -0.252 OA
ATOM     29  N   UNL     1      -2.270  -1.711  24.517  0.00  0.00    -0.259 N 
ATOM     30  C   UNL     1      -1.984  -2.478  24.414  0.00  0.00    +0.127 C 
ATOM     31  C   UNL     1      -1.186  -2.641  24.547  0.00  0.00    +0.164 C 
ATOM     32  O   UNL     1      -0.675  -2.038  24.783  0.00  0.00    -0.350 OA
ATOM     33  C   UNL     1      -0.961  -1.271  24.885  0.00  0.00    +0.164 C 
ATOM     34  C   UNL     1      -1.758  -1.107  24.753  0.00  0.00    +0.127 C 
ENDROOT
BRANCH  11   8
ATOM      8  S   UNL     1      -4.213   1.521  24.795  0.00  0.00    +0.064 S 
ATOM      9  O   UNL     1      -4.338   1.367  25.596  0.00  0.00    -0.153 OA
ATOM     10  O   UNL     1      -4.088   1.675  23.994  0.00  0.00    -0.153 OA
BRANCH   8   5
ATOM      1  F   UNL     1      -5.359   4.588  25.205  0.00  0.00    -0.204 F 
ATOM      2  C   UNL     1      -5.072   3.821  25.102  0.00  0.00    +0.140 A 
ATOM      3  C   UNL     1      -4.727   3.602  24.385  0.00  0.00    +0.031 A 
ATOM      4  C   UNL     1      -4.440   2.835  24.283  0.00  0.00    +0.022 A 
ATOM      5  C   UNL     1      -4.499   2.288  24.897  0.00  0.00    +0.122 A 
ATOM      6  C   UNL     1      -4.844   2.506  25.613  0.00  0.00    +0.022 A 
ATOM      7  C   UNL     1      -5.131   3.273  25.716  0.00  0.00    +0.031 A 
ENDBRANCH   8   5
ENDBRANCH  11   8
BRANCH  16  17
ATOM     17  C   UNL     1      -2.617   1.193  25.060  0.00  0.00    +0.260 C 
ATOM     18  O   UNL     1      -2.715   1.553  25.797  0.00  0.00    -0.272 OA
ATOM     19  N   UNL     1      -2.008   1.436  24.561  0.00  0.00    -0.197 NA
BRANCH  19  20
ATOM     20  C   UNL     1      -1.497   2.039  24.796  0.00  0.00    +0.173 C 
ATOM     21  C   UNL     1      -1.374   2.187  25.598  0.00  0.00    +0.033 C 
ATOM     22  C   UNL     1      -0.863   2.789  25.833  0.00  0.00    +0.026 C 
ATOM     23  C   UNL     1      -0.473   3.245  25.264  0.00  0.00    +0.115 C 
ATOM     24  N   UNL     1      -0.595   3.097  24.463  0.00  0.00    -0.204 NA
ATOM     25  C   UNL     1      -1.107   2.494  24.228  0.00  0.00    +0.261 C 
ATOM     26  O   UNL     1      -1.230   2.346  23.426  0.00  0.00    -0.271 OA
ENDBRANCH  19  20
ENDBRANCH  16  17
TORSDOF 4
ENDMDL
