MODEL 1
REMARK VINA RESULT:     -13.2      0.000      0.000
REMARK  Name = 
REMARK  6 active torsions:
REMARK  status: ('A' for Active; 'I' for Inactive)
REMARK    1  A    between atoms: O_2  and  C_3
REMARK    2  A    between atoms: C_6  and  C_9
REMARK    3  A    between atoms: C_15  and  N_16
REMARK    4  A    between atoms: N_16  and  S_17
REMARK    5  A    between atoms: S_17  and  C_20
REMARK    6  A    between atoms: C_23  and  C_26
REMARK                            x       y       z     vdW  Elec       q    Type
REMARK                         _______ _______ _______ _____ _____    ______ ____
ROOT
ATOM      9  C   UNL     1      -4.321   2.877  25.205  0.00  0.00    +0.045 C 
ATOM     10  C   UNL     1      -5.060   3.093  25.501  0.00  0.00    +0.041 C 
ATOM     11  C   UNL     1      -5.589   2.481  25.340  0.00  0.00    +0.184 C 
ATOM     12  O   UNL     1      -6.389   2.466  25.540  0.00  0.00    -0.220 OA
ATOM     13  C   UNL     1      -5.177   1.886  24.943  0.00  0.00    +0.200 C 
ATOM     14  O   UNL     1      -5.493   1.172  24.677  0.00  0.00    -0.219 OA
ATOM     15  C   UNL     1      -4.394   2.131  24.860  0.00  0.00    +0.135 C 
ENDROOT
BRANCH   9   6
ATOM      3  C   UNL     1      -2.252   4.229  25.327  0.00  0.00    +0.139 A 
ATOM      4  C   UNL     1      -2.544   3.858  26.004  0.00  0.00    +0.037 A 
ATOM      5  C   UNL     1      -3.233   3.408  25.963  0.00  0.00    -0.001 A 
ATOM      6  C   UNL     1      -3.632   3.328  25.246  0.00  0.00    -0.021 A 
ATOM      7  C   UNL     1      -3.341   3.698  24.568  0.00  0.00    -0.001 A 
ATOM      8  C   UNL     1      -2.651   4.149  24.609  0.00  0.00    +0.037 A 
BRANCH   3   2
ATOM      1  C   UNL     1      -0.870   4.407  25.011  0.00  0.00    +0.252 C 
ATOM      2  O   UNL     1      -1.562   4.680  25.368  0.00  0.00    -0.471 OA
ENDBRANCH   3   2
ENDBRANCH   9   6
BRANCH  15  16
ATOM     16  N   UNL     1      -3.789   1.705  24.495  0.00  0.00    -0.076 NA
BRANCH  16  17
ATOM     17  S   UNL     1      -3.745   0.886  24.589  0.00  0.00    +0.077 S 
ATOM     18  O   UNL     1      -3.951   0.786  23.797  0.00  0.00    -0.152 OA
ATOM     19  O   UNL     1      -3.540   0.988  25.382  0.00  0.00    -0.152 OA
BRANCH  17  20
ATOM     20  C   UNL     1      -3.702   0.068  24.682  0.00  0.00    +0.124 A 
ATOM     21  C   UNL     1      -3.926  -0.430  24.062  0.00  0.00    +0.020 A 
ATOM     22  C   UNL     1      -3.883  -1.248  24.155  0.00  0.00    +0.005 A 
ATOM     23  C   UNL     1      -3.617  -1.570  24.866  0.00  0.00    +0.072 A 
ATOM     24  C   UNL     1      -3.393  -1.072  25.486  0.00  0.00    +0.005 A 
ATOM     25  C   UNL     1      -3.436  -0.253  25.394  0.00  0.00    +0.020 A 
BRANCH  23  26
ATOM     26  C   UNL     1      -3.573  -2.388  24.959  0.00  0.00    +0.419 C 
ATOM     27  F   UNL     1      -3.530  -3.207  25.051  0.00  0.00    -0.166 F 
ATOM     28  F   UNL     1      -3.621  -2.298  25.778  0.00  0.00    -0.166 F 
ATOM     29  F   UNL     1      -3.526  -2.478  24.140  0.00  0.00    -0.166 F 
ENDBRANCH  23  26
ENDBRANCH  17  20
ENDBRANCH  16  17
ENDBRANCH  15  16
TORSDOF 6
ENDMDL
MODEL 2
REMARK VINA RESULT:     -13.1      2.722      4.751
REMARK  Name = 
REMARK  6 active torsions:
REMARK  status: ('A' for Active; 'I' for Inactive)
REMARK    1  A    between atoms: O_2  and  C_3
REMARK    2  A    between atoms: C_6  and  C_9
REMARK    3  A    between atoms: C_15  and  N_16
REMARK    4  A    between atoms: N_16  and  S_17
REMARK    5  A    between atoms: S_17  and  C_20
REMARK    6  A    between atoms: C_23  and  C_26
REMARK                            x       y       z     vdW  Elec       q    Type
REMARK                         _______ _______ _______ _____ _____    ______ ____
ROOT
ATOM      9  C   UNL     1      -4.605   0.679  24.933  0.00  0.00    +0.045 C 
ATOM     10  C   UNL     1      -5.337   0.821  25.284  0.00  0.00    +0.041 C 
ATOM     11  C   UNL     1      -5.493   1.630  25.233  0.00  0.00    +0.184 C 
ATOM     12  O   UNL     1      -6.166   2.013  25.516  0.00  0.00    -0.220 OA
ATOM     13  C   UNL     1      -4.856   1.988  24.850  0.00  0.00    +0.200 C 
ATOM     14  O   UNL     1      -4.781   2.792  24.682  0.00  0.00    -0.219 OA
ATOM     15  C   UNL     1      -4.307   1.401  24.664  0.00  0.00    +0.135 C 
ENDROOT
BRANCH   9   6
ATOM      3  C   UNL     1      -3.494  -1.522  24.720  0.00  0.00    +0.139 A 
ATOM      4  C   UNL     1      -3.868  -1.184  24.068  0.00  0.00    +0.037 A 
ATOM      5  C   UNL     1      -4.238  -0.450  24.139  0.00  0.00    -0.001 A 
ATOM      6  C   UNL     1      -4.234  -0.055  24.862  0.00  0.00    -0.021 A 
ATOM      7  C   UNL     1      -3.860  -0.392  25.515  0.00  0.00    -0.001 A 
ATOM      8  C   UNL     1      -3.490  -1.126  25.445  0.00  0.00    +0.037 A 
BRANCH   3   2
ATOM      1  C   UNL     1      -2.304  -2.297  24.560  0.00  0.00    +0.252 C 
ATOM      2  O   UNL     1      -3.123  -2.256  24.649  0.00  0.00    -0.471 OA
ENDBRANCH   3   2
ENDBRANCH   9   6
BRANCH  15  16
ATOM     16  N   UNL     1      -3.587   1.514  24.278  0.00  0.00    -0.076 NA
BRANCH  16  17
ATOM     17  S   UNL     1      -3.123   2.173  24.454  0.00  0.00    +0.077 S 
ATOM     18  O   UNL     1      -3.277   2.481  23.705  0.00  0.00    -0.152 OA
ATOM     19  O   UNL     1      -2.970   1.864  25.204  0.00  0.00    -0.152 OA
BRANCH  17  20
ATOM     20  C   UNL     1      -2.659   2.832  24.630  0.00  0.00    +0.124 A 
ATOM     21  C   UNL     1      -2.109   2.797  25.244  0.00  0.00    +0.020 A 
ATOM     22  C   UNL     1      -1.644   3.456  25.420  0.00  0.00    +0.005 A 
ATOM     23  C   UNL     1      -1.730   4.150  24.983  0.00  0.00    +0.072 A 
ATOM     24  C   UNL     1      -2.281   4.185  24.369  0.00  0.00    +0.005 A 
ATOM     25  C   UNL     1      -2.745   3.526  24.193  0.00  0.00    +0.020 A 
BRANCH  23  26
ATOM     26  C   UNL     1      -1.266   4.809  25.159  0.00  0.00    +0.419 C 
ATOM     27  F   UNL     1      -0.802   5.468  25.334  0.00  0.00    -0.166 F 
ATOM     28  F   UNL     1      -1.859   5.093  25.657  0.00  0.00    -0.166 F 
ATOM     29  F   UNL     1      -0.674   4.523  24.660  0.00  0.00    -0.166 F 
ENDBRANCH  23  26
ENDBRANCH  17  20
ENDBRANCH  16  17
ENDBRANCH  15  16
TORSDOF 6
ENDMDL
MODEL 3
REMARK VINA RESULT:     -12.2      2.118      3.069
REMARK  Name = 
REMARK  6 active torsions:
REMARK  status: ('A' for Active; 'I' for Inactive)
REMARK    1  A    between atoms: O_2  and  C_3
REMARK    2  A    between atoms: C_6  and  C_9
REMARK    3  A    between atoms: C_15  and  N_16
REMARK    4  A    between atoms: N_16  and  S_17
REMARK    5  A    between atoms: S_17  and  C_20
REMARK    6  A    between atoms: C_23  and  C_26
REMARK                            x       y       z     vdW  Elec       q    Type
REMARK                         _______ _______ _______ _____ _____    ______ ____
ROOT
ATOM      9  C   UNL     1      -0.735   1.514  24.638  0.00  0.00    +0.045 C 
ATOM     10  C   UNL     1      -0.088   1.480  24.129  0.00  0.00    +0.041 C 
ATOM     11  C   UNL     1       0.065   0.686  23.963  0.00  0.00    +0.184 C 
ATOM     12  O   UNL     1       0.665   0.399  23.476  0.00  0.00    -0.220 OA
ATOM     13  C   UNL     1      -0.488   0.229  24.371  0.00  0.00    +0.200 C 
ATOM     14  O   UNL     1      -0.539  -0.594  24.363  0.00  0.00    -0.219 OA
ATOM     15  C   UNL     1      -0.983   0.741  24.788  0.00  0.00    +0.135 C 
ENDROOT
BRANCH   9   6
ATOM      3  C   UNL     1      -1.756   3.573  25.557  0.00  0.00    +0.139 A 
ATOM      4  C   UNL     1      -1.263   3.110  26.030  0.00  0.00    +0.037 A 
ATOM      5  C   UNL     1      -0.923   2.424  25.723  0.00  0.00    -0.001 A 
ATOM      6  C   UNL     1      -1.075   2.200  24.945  0.00  0.00    -0.021 A 
ATOM      7  C   UNL     1      -1.568   2.663  24.471  0.00  0.00    -0.001 A 
ATOM      8  C   UNL     1      -1.909   3.349  24.777  0.00  0.00    +0.037 A 
BRANCH   3   2
ATOM      1  C   UNL     1      -2.886   4.256  26.102  0.00  0.00    +0.252 C 
ATOM      2  O   UNL     1      -2.096   4.259  25.864  0.00  0.00    -0.471 OA
ENDBRANCH   3   2
ENDBRANCH   9   6
BRANCH  15  16
ATOM     16  N   UNL     1      -1.614   0.520  25.270  0.00  0.00    -0.076 NA
BRANCH  16  17
ATOM     17  S   UNL     1      -2.147  -0.056  25.015  0.00  0.00    +0.077 S 
ATOM     18  O   UNL     1      -1.894  -0.558  25.618  0.00  0.00    -0.152 OA
ATOM     19  O   UNL     1      -2.401   0.447  24.411  0.00  0.00    -0.152 OA
BRANCH  17  20
ATOM     20  C   UNL     1      -2.680  -0.631  24.760  0.00  0.00    +0.124 A 
ATOM     21  C   UNL     1      -3.231  -0.452  24.172  0.00  0.00    +0.020 A 
ATOM     22  C   UNL     1      -3.765  -1.027  23.916  0.00  0.00    +0.005 A 
ATOM     23  C   UNL     1      -3.747  -1.782  24.248  0.00  0.00    +0.072 A 
ATOM     24  C   UNL     1      -3.196  -1.962  24.836  0.00  0.00    +0.005 A 
ATOM     25  C   UNL     1      -2.663  -1.386  25.092  0.00  0.00    +0.020 A 
BRANCH  23  26
ATOM     26  C   UNL     1      -4.280  -2.358  23.993  0.00  0.00    +0.419 C 
ATOM     27  F   UNL     1      -4.813  -2.933  23.738  0.00  0.00    -0.166 F 
ATOM     28  F   UNL     1      -3.697  -2.935  24.080  0.00  0.00    -0.166 F 
ATOM     29  F   UNL     1      -4.862  -1.780  23.907  0.00  0.00    -0.166 F 
ENDBRANCH  23  26
ENDBRANCH  17  20
ENDBRANCH  16  17
ENDBRANCH  15  16
TORSDOF 6
ENDMDL
MODEL 4
REMARK VINA RESULT:     -12.2      1.540      2.527
REMARK  Name = 
REMARK  6 active torsions:
REMARK  status: ('A' for Active; 'I' for Inactive)
REMARK    1  A    between atoms: O_2  and  C_3
REMARK    2  A    between atoms: C_6  and  C_9
REMARK    3  A    between atoms: C_15  and  N_16
REMARK    4  A    between atoms: N_16  and  S_17
REMARK    5  A    between atoms: S_17  and  C_20
REMARK    6  A    between atoms: C_23  and  C_26
REMARK                            x       y       z     vdW  Elec       q    Type
REMARK                         _______ _______ _______ _____ _____    ______ ____
ROOT
ATOM      9  C   UNL     1      -2.364   2.081  24.356  0.00  0.00    +0.045 C 
ATOM     10  C   UNL     1      -1.727   2.260  23.863  0.00  0.00    +0.041 C 
ATOM     11  C   UNL     1      -1.251   1.588  23.806  0.00  0.00    +0.184 C 
ATOM     12  O   UNL     1      -0.556   1.522  23.368  0.00  0.00    -0.220 OA
ATOM     13  C   UNL     1      -1.594   0.993  24.265  0.00  0.00    +0.200 C 
ATOM     14  O   UNL     1      -1.301   0.229  24.366  0.00  0.00    -0.219 OA
ATOM     15  C   UNL     1      -2.282   1.298  24.604  0.00  0.00    +0.135 C 
ENDROOT
BRANCH   9   6
ATOM      3  C   UNL     1      -4.198   3.621  24.980  0.00  0.00    +0.139 A 
ATOM      4  C   UNL     1      -3.595   3.458  25.518  0.00  0.00    +0.037 A 
ATOM      5  C   UNL     1      -2.983   2.944  25.310  0.00  0.00    -0.001 A 
ATOM      6  C   UNL     1      -2.975   2.594  24.564  0.00  0.00    -0.021 A 
ATOM      7  C   UNL     1      -3.578   2.757  24.024  0.00  0.00    -0.001 A 
ATOM      8  C   UNL     1      -4.190   3.270  24.233  0.00  0.00    +0.037 A 
BRANCH   3   2
ATOM      1  C   UNL     1      -5.482   3.842  25.566  0.00  0.00    +0.252 C 
ATOM      2  O   UNL     1      -4.809   4.134  25.188  0.00  0.00    -0.471 OA
ENDBRANCH   3   2
ENDBRANCH   9   6
BRANCH  15  16
ATOM     16  N   UNL     1      -2.797   0.892  25.104  0.00  0.00    -0.076 NA
BRANCH  16  17
ATOM     17  S   UNL     1      -3.038   0.126  24.915  0.00  0.00    +0.077 S 
ATOM     18  O   UNL     1      -2.608  -0.166  25.555  0.00  0.00    -0.152 OA
ATOM     19  O   UNL     1      -3.468   0.420  24.275  0.00  0.00    -0.152 OA
BRANCH  17  20
ATOM     20  C   UNL     1      -3.279  -0.640  24.727  0.00  0.00    +0.124 A 
ATOM     21  C   UNL     1      -3.835  -0.761  24.128  0.00  0.00    +0.020 A 
ATOM     22  C   UNL     1      -4.076  -1.527  23.939  0.00  0.00    +0.005 A 
ATOM     23  C   UNL     1      -3.763  -2.171  24.348  0.00  0.00    +0.072 A 
ATOM     24  C   UNL     1      -3.207  -2.050  24.947  0.00  0.00    +0.005 A 
ATOM     25  C   UNL     1      -2.966  -1.284  25.136  0.00  0.00    +0.020 A 
BRANCH  23  26
ATOM     26  C   UNL     1      -4.004  -2.937  24.160  0.00  0.00    +0.419 C 
ATOM     27  F   UNL     1      -4.246  -3.703  23.970  0.00  0.00    -0.166 F 
ATOM     28  F   UNL     1      -3.587  -3.229  24.809  0.00  0.00    -0.166 F 
ATOM     29  F   UNL     1      -4.421  -2.645  23.510  0.00  0.00    -0.166 F 
ENDBRANCH  23  26
ENDBRANCH  17  20
ENDBRANCH  16  17
ENDBRANCH  15  16
TORSDOF 6
ENDMDL
MODEL 5
REMARK VINA RESULT:     -11.8      1.893      2.469
REMARK  Name = 
REMARK  6 active torsions:
REMARK  status: ('A' for Active; 'I' for Inactive)
REMARK    1  A    between atoms: O_2  and  C_3
REMARK    2  A    between atoms: C_6  and  C_9
REMARK    3  A    between atoms: C_15  and  N_16
REMARK    4  A    between atoms: N_16  and  S_17
REMARK    5  A    between atoms: S_17  and  C_20
REMARK    6  A    between atoms: C_23  and  C_26
REMARK                            x       y       z     vdW  Elec       q    Type
REMARK                         _______ _______ _______ _____ _____    ______ ____
ROOT
ATOM      9  C   UNL     1      -1.770   2.047  24.056  0.00  0.00    +0.045 C 
ATOM     10  C   UNL     1      -1.781   2.347  23.288  0.00  0.00    +0.041 C 
ATOM     11  C   UNL     1      -2.430   2.022  22.896  0.00  0.00    +0.184 C 
ATOM     12  O   UNL     1      -2.650   2.171  22.115  0.00  0.00    -0.220 OA
ATOM     13  C   UNL     1      -2.821   1.521  23.423  0.00  0.00    +0.200 C 
ATOM     14  O   UNL     1      -3.500   1.082  23.261  0.00  0.00    -0.219 OA
ATOM     15  C   UNL     1      -2.413   1.536  24.140  0.00  0.00    +0.135 C 
ENDROOT
BRANCH   9   6
ATOM      3  C   UNL     1      -0.103   2.585  25.805  0.00  0.00    +0.139 A 
ATOM      4  C   UNL     1       0.094   2.073  25.189  0.00  0.00    +0.037 A 
ATOM      5  C   UNL     1      -0.461   1.894  24.606  0.00  0.00    -0.001 A 
ATOM      6  C   UNL     1      -1.215   2.226  24.639  0.00  0.00    -0.021 A 
ATOM      7  C   UNL     1      -1.414   2.738  25.255  0.00  0.00    -0.001 A 
ATOM      8  C   UNL     1      -0.858   2.917  25.838  0.00  0.00    +0.037 A 
BRANCH   3   2
ATOM      1  C   UNL     1       0.412   2.392  27.124  0.00  0.00    +0.252 C 
ATOM      2  O   UNL     1       0.452   2.764  26.388  0.00  0.00    -0.471 OA
ENDBRANCH   3   2
ENDBRANCH   9   6
BRANCH  15  16
ATOM     16  N   UNL     1      -2.613   1.116  24.820  0.00  0.00    -0.076 NA
BRANCH  16  17
ATOM     17  S   UNL     1      -2.833   0.322  24.766  0.00  0.00    +0.077 S 
ATOM     18  O   UNL     1      -3.593   0.517  25.020  0.00  0.00    -0.152 OA
ATOM     19  O   UNL     1      -2.072   0.129  24.513  0.00  0.00    -0.152 OA
BRANCH  17  20
ATOM     20  C   UNL     1      -3.053  -0.471  24.712  0.00  0.00    +0.124 A 
ATOM     21  C   UNL     1      -2.474  -1.058  24.681  0.00  0.00    +0.020 A 
ATOM     22  C   UNL     1      -2.694  -1.852  24.627  0.00  0.00    +0.005 A 
ATOM     23  C   UNL     1      -3.492  -2.058  24.604  0.00  0.00    +0.072 A 
ATOM     24  C   UNL     1      -4.071  -1.470  24.636  0.00  0.00    +0.005 A 
ATOM     25  C   UNL     1      -3.852  -0.677  24.690  0.00  0.00    +0.020 A 
BRANCH  23  26
ATOM     26  C   UNL     1      -3.713  -2.851  24.551  0.00  0.00    +0.419 C 
ATOM     27  F   UNL     1      -3.933  -3.644  24.498  0.00  0.00    -0.166 F 
ATOM     28  F   UNL     1      -3.954  -2.731  23.771  0.00  0.00    -0.166 F 
ATOM     29  F   UNL     1      -3.471  -2.970  25.330  0.00  0.00    -0.166 F 
ENDBRANCH  23  26
ENDBRANCH  17  20
ENDBRANCH  16  17
ENDBRANCH  15  16
TORSDOF 6
ENDMDL
