MODEL 1
REMARK VINA RESULT:     -11.4      0.000      0.000
REMARK  Name = 
REMARK  8 active torsions:
REMARK  status: ('A' for Active; 'I' for Inactive)
REMARK    1  A    between atoms: O_2  and  C_3
REMARK    2  A    between atoms: C_6  and  C_9
REMARK    3  A    between atoms: C_11  and  C_12
REMARK    4  A    between atoms: C_12  and  C_13
REMARK    5  A    between atoms: C_13  and  N_17
REMARK    6  A    between atoms: N_17  and  C_18
REMARK    7  A    between atoms: C_18  and  C_19
REMARK    8  A    between atoms: C_24  and  O_25
REMARK                            x       y       z     vdW  Elec       q    Type
REMARK                         _______ _______ _______ _____ _____    ______ ____
ROOT
ATOM     12  C   UNL     1      -4.099   2.482  24.567  0.00  0.00    +0.070 C 
ENDROOT
BRANCH  12  11
ATOM      9  C   UNL     1      -4.371   0.375  24.780  0.00  0.00    +0.177 A 
ATOM     10  C   UNL     1      -3.910   1.024  24.563  0.00  0.00    +0.058 A 
ATOM     11  C   UNL     1      -4.349   1.708  24.705  0.00  0.00    +0.102 A 
ATOM     27  N   UNL     1      -5.081   1.483  25.011  0.00  0.00    -0.081 NA
ATOM     28  O   UNL     1      -5.095   0.659  25.057  0.00  0.00    -0.354 OA
BRANCH   9   6
ATOM      3  C   UNL     1      -3.703  -2.003  24.628  0.00  0.00    +0.139 A 
ATOM      4  C   UNL     1      -4.114  -1.649  24.005  0.00  0.00    +0.037 A 
ATOM      5  C   UNL     1      -4.337  -0.856  24.057  0.00  0.00    +0.006 A 
ATOM      6  C   UNL     1      -4.148  -0.417  24.729  0.00  0.00    +0.037 A 
ATOM      7  C   UNL     1      -3.738  -0.771  25.351  0.00  0.00    +0.006 A 
ATOM      8  C   UNL     1      -3.515  -1.564  25.300  0.00  0.00    +0.037 A 
BRANCH   3   2
ATOM      1  C   UNL     1      -2.687  -2.995  24.473  0.00  0.00    +0.252 C 
ATOM      2  O   UNL     1      -3.481  -2.796  24.577  0.00  0.00    -0.471 OA
ENDBRANCH   3   2
ENDBRANCH   9   6
ENDBRANCH  12  11
BRANCH  12  13
ATOM     13  C   UNL     1      -4.121   3.038  25.176  0.00  0.00    +0.120 C 
ATOM     14  C   UNL     1      -4.143   3.594  25.785  0.00  0.00    +0.161 C 
ATOM     15  O   UNL     1      -4.951   3.703  25.656  0.00  0.00    -0.351 OA
ATOM     16  C   UNL     1      -4.929   3.147  25.048  0.00  0.00    +0.161 C 
BRANCH  13  17
ATOM     17  N   UNL     1      -3.313   2.930  25.304  0.00  0.00    -0.211 NA
BRANCH  17  18
ATOM     18  C   UNL     1      -2.809   3.583  25.328  0.00  0.00    +0.118 C 
BRANCH  18  19
ATOM     19  C   UNL     1      -1.997   3.472  25.421  0.00  0.00    +0.029 A 
ATOM     20  C   UNL     1      -1.708   2.749  25.693  0.00  0.00    +0.000 A 
ATOM     21  C   UNL     1      -0.896   2.637  25.786  0.00  0.00    -0.000 A 
ATOM     22  C   UNL     1      -0.373   3.250  25.606  0.00  0.00    +0.003 A 
ATOM     23  C   UNL     1      -0.662   3.973  25.334  0.00  0.00    +0.037 A 
ATOM     24  C   UNL     1      -1.474   4.084  25.242  0.00  0.00    +0.136 A 
BRANCH  24  25
ATOM     25  O   UNL     1      -1.763   4.807  24.969  0.00  0.00    -0.472 OA
ATOM     26  C   UNL     1      -1.256   5.454  24.900  0.00  0.00    +0.252 C 
ENDBRANCH  24  25
ENDBRANCH  18  19
ENDBRANCH  17  18
ENDBRANCH  13  17
ENDBRANCH  12  13
TORSDOF 8
ENDMDL
MODEL 2
REMARK VINA RESULT:      -9.9      0.921      5.080
REMARK  Name = 
REMARK  8 active torsions:
REMARK  status: ('A' for Active; 'I' for Inactive)
REMARK    1  A    between atoms: O_2  and  C_3
REMARK    2  A    between atoms: C_6  and  C_9
REMARK    3  A    between atoms: C_11  and  C_12
REMARK    4  A    between atoms: C_12  and  C_13
REMARK    5  A    between atoms: C_13  and  N_17
REMARK    6  A    between atoms: N_17  and  C_18
REMARK    7  A    between atoms: C_18  and  C_19
REMARK    8  A    between atoms: C_24  and  O_25
REMARK                            x       y       z     vdW  Elec       q    Type
REMARK                         _______ _______ _______ _____ _____    ______ ____
ROOT
ATOM     12  C   UNL     1      -4.422   1.686  24.548  0.00  0.00    +0.070 C 
ENDROOT
BRANCH  12  11
ATOM      9  C   UNL     1      -3.162   3.286  25.188  0.00  0.00    +0.177 A 
ATOM     10  C   UNL     1      -3.320   2.650  24.688  0.00  0.00    +0.058 A 
ATOM     11  C   UNL     1      -4.050   2.331  24.903  0.00  0.00    +0.102 A 
ATOM     27  N   UNL     1      -4.343   2.770  25.537  0.00  0.00    -0.081 NA
ATOM     28  O   UNL     1      -3.794   3.360  25.713  0.00  0.00    -0.354 OA
BRANCH   9   6
ATOM      3  C   UNL     1      -1.145   4.720  25.126  0.00  0.00    +0.139 A 
ATOM      4  C   UNL     1      -1.068   3.897  25.130  0.00  0.00    +0.037 A 
ATOM      5  C   UNL     1      -1.740   3.420  25.151  0.00  0.00    +0.006 A 
ATOM      6  C   UNL     1      -2.490   3.764  25.167  0.00  0.00    +0.037 A 
ATOM      7  C   UNL     1      -2.567   4.585  25.163  0.00  0.00    +0.006 A 
ATOM      8  C   UNL     1      -1.895   5.062  25.142  0.00  0.00    +0.037 A 
BRANCH   3   2
ATOM      1  C   UNL     1      -0.094   5.345  24.387  0.00  0.00    +0.252 C 
ATOM      2  O   UNL     1      -0.473   5.197  25.105  0.00  0.00    -0.471 OA
ENDBRANCH   3   2
ENDBRANCH   9   6
ENDBRANCH  12  11
BRANCH  12  13
ATOM     13  C   UNL     1      -5.022   1.285  24.947  0.00  0.00    +0.120 C 
ATOM     14  C   UNL     1      -5.622   0.882  25.347  0.00  0.00    +0.161 C 
ATOM     15  O   UNL     1      -6.157   1.474  25.138  0.00  0.00    -0.351 OA
ATOM     16  C   UNL     1      -5.558   1.876  24.739  0.00  0.00    +0.161 C 
BRANCH  13  17
ATOM     17  N   UNL     1      -4.486   0.692  25.156  0.00  0.00    -0.211 NA
BRANCH  17  18
ATOM     18  C   UNL     1      -4.567  -0.066  24.840  0.00  0.00    +0.118 C 
BRANCH  18  19
ATOM     19  C   UNL     1      -4.051  -0.666  25.073  0.00  0.00    +0.029 A 
ATOM     20  C   UNL     1      -3.610  -0.584  25.765  0.00  0.00    +0.000 A 
ATOM     21  C   UNL     1      -3.093  -1.183  25.999  0.00  0.00    -0.000 A 
ATOM     22  C   UNL     1      -3.018  -1.865  25.540  0.00  0.00    +0.003 A 
ATOM     23  C   UNL     1      -3.459  -1.947  24.847  0.00  0.00    +0.037 A 
ATOM     24  C   UNL     1      -3.975  -1.346  24.614  0.00  0.00    +0.136 A 
BRANCH  24  25
ATOM     25  O   UNL     1      -4.416  -1.429  23.922  0.00  0.00    -0.472 OA
ATOM     26  C   UNL     1      -4.414  -2.145  23.514  0.00  0.00    +0.252 C 
ENDBRANCH  24  25
ENDBRANCH  18  19
ENDBRANCH  17  18
ENDBRANCH  13  17
ENDBRANCH  12  13
TORSDOF 8
ENDMDL
MODEL 3
REMARK VINA RESULT:      -9.7      1.704      3.006
REMARK  Name = 
REMARK  8 active torsions:
REMARK  status: ('A' for Active; 'I' for Inactive)
REMARK    1  A    between atoms: O_2  and  C_3
REMARK    2  A    between atoms: C_6  and  C_9
REMARK    3  A    between atoms: C_11  and  C_12
REMARK    4  A    between atoms: C_12  and  C_13
REMARK    5  A    between atoms: C_13  and  N_17
REMARK    6  A    between atoms: N_17  and  C_18
REMARK    7  A    between atoms: C_18  and  C_19
REMARK    8  A    between atoms: C_24  and  O_25
REMARK                            x       y       z     vdW  Elec       q    Type
REMARK                         _______ _______ _______ _____ _____    ______ ____
ROOT
ATOM     12  C   UNL     1      -0.962   1.481  25.450  0.00  0.00    +0.070 C 
ENDROOT
BRANCH  12  11
ATOM      9  C   UNL     1      -1.529  -0.520  24.969  0.00  0.00    +0.177 A 
ATOM     10  C   UNL     1      -1.712   0.232  25.254  0.00  0.00    +0.058 A 
ATOM     11  C   UNL     1      -1.029   0.692  25.219  0.00  0.00    +0.102 A 
ATOM     27  N   UNL     1      -0.422   0.225  24.912  0.00  0.00    -0.081 NA
ATOM     28  O   UNL     1      -0.731  -0.525  24.758  0.00  0.00    -0.354 OA
BRANCH   9   6
ATOM      3  C   UNL     1      -3.094  -2.428  24.780  0.00  0.00    +0.139 A 
ATOM      4  C   UNL     1      -3.347  -1.718  25.118  0.00  0.00    +0.037 A 
ATOM      5  C   UNL     1      -2.825  -1.082  25.181  0.00  0.00    +0.006 A 
ATOM      6  C   UNL     1      -2.050  -1.156  24.906  0.00  0.00    +0.037 A 
ATOM      7  C   UNL     1      -1.798  -1.865  24.569  0.00  0.00    +0.006 A 
ATOM      8  C   UNL     1      -2.320  -2.501  24.506  0.00  0.00    +0.037 A 
BRANCH   3   2
ATOM      1  C   UNL     1      -4.106  -3.131  24.057  0.00  0.00    +0.252 C 
ATOM      2  O   UNL     1      -3.617  -3.064  24.717  0.00  0.00    -0.471 OA
ENDBRANCH   3   2
ENDBRANCH   9   6
ENDBRANCH  12  11
BRANCH  12  13
ATOM     13  C   UNL     1      -0.736   2.054  24.902  0.00  0.00    +0.120 C 
ATOM     14  C   UNL     1      -0.510   2.628  24.353  0.00  0.00    +0.161 C 
ATOM     15  O   UNL     1       0.283   2.476  24.523  0.00  0.00    -0.351 OA
ATOM     16  C   UNL     1       0.057   1.903  25.071  0.00  0.00    +0.161 C 
BRANCH  13  17
ATOM     17  N   UNL     1      -1.529   2.205  24.733  0.00  0.00    -0.211 NA
BRANCH  17  18
ATOM     18  C   UNL     1      -1.842   2.958  24.864  0.00  0.00    +0.118 C 
BRANCH  18  19
ATOM     19  C   UNL     1      -2.632   3.113  24.682  0.00  0.00    +0.029 A 
ATOM     20  C   UNL     1      -2.964   2.803  23.993  0.00  0.00    +0.000 A 
ATOM     21  C   UNL     1      -3.754   2.958  23.811  0.00  0.00    -0.000 A 
ATOM     22  C   UNL     1      -4.210   3.422  24.317  0.00  0.00    +0.003 A 
ATOM     23  C   UNL     1      -3.878   3.732  25.006  0.00  0.00    +0.037 A 
ATOM     24  C   UNL     1      -3.088   3.577  25.188  0.00  0.00    +0.136 A 
BRANCH  24  25
ATOM     25  O   UNL     1      -2.756   3.887  25.877  0.00  0.00    -0.472 OA
ATOM     26  C   UNL     1      -3.226   4.305  26.409  0.00  0.00    +0.252 C 
ENDBRANCH  24  25
ENDBRANCH  18  19
ENDBRANCH  17  18
ENDBRANCH  13  17
ENDBRANCH  12  13
TORSDOF 8
ENDMDL
MODEL 4
REMARK VINA RESULT:      -9.4      2.087      5.816
REMARK  Name = 
REMARK  8 active torsions:
REMARK  status: ('A' for Active; 'I' for Inactive)
REMARK    1  A    between atoms: O_2  and  C_3
REMARK    2  A    between atoms: C_6  and  C_9
REMARK    3  A    between atoms: C_11  and  C_12
REMARK    4  A    between atoms: C_12  and  C_13
REMARK    5  A    between atoms: C_13  and  N_17
REMARK    6  A    between atoms: N_17  and  C_18
REMARK    7  A    between atoms: C_18  and  C_19
REMARK    8  A    between atoms: C_24  and  O_25
REMARK                            x       y       z     vdW  Elec       q    Type
REMARK                         _______ _______ _______ _____ _____    ______ ____
ROOT
ATOM     12  C   UNL     1      -0.900  -0.153  24.051  0.00  0.00    +0.070 C 
ENDROOT
BRANCH  12  11
ATOM      9  C   UNL     1      -0.404   1.884  24.458  0.00  0.00    +0.177 A 
ATOM     10  C   UNL     1      -0.958   1.275  24.398  0.00  0.00    +0.058 A 
ATOM     11  C   UNL     1      -0.559   0.589  24.175  0.00  0.00    +0.102 A 
ATOM     27  N   UNL     1       0.241   0.772  24.095  0.00  0.00    -0.081 NA
ATOM     28  O   UNL     1       0.337   1.573  24.270  0.00  0.00    -0.354 OA
BRANCH   9   6
ATOM      3  C   UNL     1      -0.881   4.230  25.086  0.00  0.00    +0.139 A 
ATOM      4  C   UNL     1      -0.659   4.046  24.312  0.00  0.00    +0.037 A 
ATOM      5  C   UNL     1      -0.500   3.264  24.103  0.00  0.00    +0.006 A 
ATOM      6  C   UNL     1      -0.563   2.665  24.667  0.00  0.00    +0.037 A 
ATOM      7  C   UNL     1      -0.785   2.849  25.440  0.00  0.00    +0.006 A 
ATOM      8  C   UNL     1      -0.944   3.631  25.649  0.00  0.00    +0.037 A 
BRANCH   3   2
ATOM      1  C   UNL     1      -1.774   5.345  25.118  0.00  0.00    +0.252 C 
ATOM      2  O   UNL     1      -1.040   5.012  25.295  0.00  0.00    -0.471 OA
ENDBRANCH   3   2
ENDBRANCH   9   6
ENDBRANCH  12  11
BRANCH  12  13
ATOM     13  C   UNL     1      -0.990  -0.676  24.682  0.00  0.00    +0.120 C 
ATOM     14  C   UNL     1      -1.080  -1.200  25.314  0.00  0.00    +0.161 C 
ATOM     15  O   UNL     1      -0.268  -1.350  25.304  0.00  0.00    -0.351 OA
ATOM     16  C   UNL     1      -0.178  -0.827  24.673  0.00  0.00    +0.161 C 
BRANCH  13  17
ATOM     17  N   UNL     1      -1.801  -0.525  24.692  0.00  0.00    -0.211 NA
BRANCH  17  18
ATOM     18  C   UNL     1      -2.336  -1.152  24.661  0.00  0.00    +0.118 C 
BRANCH  18  19
ATOM     19  C   UNL     1      -3.142  -1.001  24.565  0.00  0.00    +0.029 A 
ATOM     20  C   UNL     1      -3.448  -0.261  24.762  0.00  0.00    +0.000 A 
ATOM     21  C   UNL     1      -4.254  -0.108  24.666  0.00  0.00    -0.000 A 
ATOM     22  C   UNL     1      -4.752  -0.698  24.373  0.00  0.00    +0.003 A 
ATOM     23  C   UNL     1      -4.445  -1.438  24.176  0.00  0.00    +0.037 A 
ATOM     24  C   UNL     1      -3.640  -1.589  24.273  0.00  0.00    +0.136 A 
BRANCH  24  25
ATOM     25  O   UNL     1      -3.333  -2.329  24.076  0.00  0.00    -0.472 OA
ATOM     26  C   UNL     1      -3.841  -2.972  23.976  0.00  0.00    +0.252 C 
ENDBRANCH  24  25
ENDBRANCH  18  19
ENDBRANCH  17  18
ENDBRANCH  13  17
ENDBRANCH  12  13
TORSDOF 8
ENDMDL
MODEL 5
REMARK VINA RESULT:      -9.3      2.130      4.267
REMARK  Name = 
REMARK  8 active torsions:
REMARK  status: ('A' for Active; 'I' for Inactive)
REMARK    1  A    between atoms: O_2  and  C_3
REMARK    2  A    between atoms: C_6  and  C_9
REMARK    3  A    between atoms: C_11  and  C_12
REMARK    4  A    between atoms: C_12  and  C_13
REMARK    5  A    between atoms: C_13  and  N_17
REMARK    6  A    between atoms: N_17  and  C_18
REMARK    7  A    between atoms: C_18  and  C_19
REMARK    8  A    between atoms: C_24  and  O_25
REMARK                            x       y       z     vdW  Elec       q    Type
REMARK                         _______ _______ _______ _____ _____    ______ ____
ROOT
ATOM     12  C   UNL     1      -1.101   2.692  24.726  0.00  0.00    +0.070 C 
ENDROOT
BRANCH  12  11
ATOM      9  C   UNL     1      -3.168   3.137  25.023  0.00  0.00    +0.177 A 
ATOM     10  C   UNL     1      -2.562   2.599  24.868  0.00  0.00    +0.058 A 
ATOM     11  C   UNL     1      -1.849   3.014  24.860  0.00  0.00    +0.102 A 
ATOM     27  N   UNL     1      -2.014   3.808  25.010  0.00  0.00    -0.081 NA
ATOM     28  O   UNL     1      -2.829   3.884  25.110  0.00  0.00    -0.354 OA
BRANCH   9   6
ATOM      3  C   UNL     1      -5.579   2.603  25.195  0.00  0.00    +0.139 A 
ATOM      4  C   UNL     1      -5.244   3.171  25.693  0.00  0.00    +0.037 A 
ATOM      5  C   UNL     1      -4.441   3.348  25.636  0.00  0.00    +0.006 A 
ATOM      6  C   UNL     1      -3.971   2.959  25.080  0.00  0.00    +0.037 A 
ATOM      7  C   UNL     1      -4.305   2.392  24.583  0.00  0.00    +0.006 A 
ATOM      8  C   UNL     1      -5.109   2.215  24.640  0.00  0.00    +0.037 A 
BRANCH   3   2
ATOM      1  C   UNL     1      -6.652   1.670  25.064  0.00  0.00    +0.252 C 
ATOM      2  O   UNL     1      -6.382   2.426  25.253  0.00  0.00    -0.471 OA
ENDBRANCH   3   2
ENDBRANCH   9   6
ENDBRANCH  12  11
BRANCH  12  13
ATOM     13  C   UNL     1      -0.637   2.447  25.362  0.00  0.00    +0.120 C 
ATOM     14  C   UNL     1      -0.173   2.201  25.999  0.00  0.00    +0.161 C 
ATOM     15  O   UNL     1       0.049   2.983  26.138  0.00  0.00    -0.351 OA
ATOM     16  C   UNL     1      -0.415   3.229  25.503  0.00  0.00    +0.161 C 
BRANCH  13  17
ATOM     17  N   UNL     1      -0.859   1.664  25.223  0.00  0.00    -0.211 NA
BRANCH  17  18
ATOM     18  C   UNL     1      -0.301   1.119  24.956  0.00  0.00    +0.118 C 
BRANCH  18  19
ATOM     19  C   UNL     1      -0.508   0.325  24.872  0.00  0.00    +0.029 A 
ATOM     20  C   UNL     1      -1.027  -0.024  25.410  0.00  0.00    +0.000 A 
ATOM     21  C   UNL     1      -1.235  -0.819  25.327  0.00  0.00    -0.000 A 
ATOM     22  C   UNL     1      -0.923  -1.263  24.705  0.00  0.00    +0.003 A 
ATOM     23  C   UNL     1      -0.405  -0.914  24.167  0.00  0.00    +0.037 A 
ATOM     24  C   UNL     1      -0.197  -0.119  24.251  0.00  0.00    +0.136 A 
BRANCH  24  25
ATOM     25  O   UNL     1       0.322   0.230  23.713  0.00  0.00    -0.472 OA
ATOM     26  C   UNL     1       0.660  -0.224  23.113  0.00  0.00    +0.252 C 
ENDBRANCH  24  25
ENDBRANCH  18  19
ENDBRANCH  17  18
ENDBRANCH  13  17
ENDBRANCH  12  13
TORSDOF 8
ENDMDL
MODEL 6
REMARK VINA RESULT:      -9.2      2.195      4.209
REMARK  Name = 
REMARK  8 active torsions:
REMARK  status: ('A' for Active; 'I' for Inactive)
REMARK    1  A    between atoms: O_2  and  C_3
REMARK    2  A    between atoms: C_6  and  C_9
REMARK    3  A    between atoms: C_11  and  C_12
REMARK    4  A    between atoms: C_12  and  C_13
REMARK    5  A    between atoms: C_13  and  N_17
REMARK    6  A    between atoms: N_17  and  C_18
REMARK    7  A    between atoms: C_18  and  C_19
REMARK    8  A    between atoms: C_24  and  O_25
REMARK                            x       y       z     vdW  Elec       q    Type
REMARK                         _______ _______ _______ _____ _____    ______ ____
ROOT
ATOM     12  C   UNL     1      -2.597  -0.728  24.237  0.00  0.00    +0.070 C 
ENDROOT
BRANCH  12  11
ATOM      9  C   UNL     1      -4.170   0.496  25.001  0.00  0.00    +0.177 A 
ATOM     10  C   UNL     1      -3.506   0.391  24.523  0.00  0.00    +0.058 A 
ATOM     11  C   UNL     1      -3.246  -0.386  24.613  0.00  0.00    +0.102 A 
ATOM     27  N   UNL     1      -3.750  -0.763  25.146  0.00  0.00    -0.081 NA
ATOM     28  O   UNL     1      -4.321  -0.218  25.386  0.00  0.00    -0.354 OA
BRANCH   9   6
ATOM      3  C   UNL     1      -5.482   2.581  25.237  0.00  0.00    +0.139 A 
ATOM      4  C   UNL     1      -5.810   1.859  25.466  0.00  0.00    +0.037 A 
ATOM      5  C   UNL     1      -5.372   1.164  25.387  0.00  0.00    +0.006 A 
ATOM      6  C   UNL     1      -4.607   1.191  25.079  0.00  0.00    +0.037 A 
ATOM      7  C   UNL     1      -4.280   1.912  24.851  0.00  0.00    +0.006 A 
ATOM      8  C   UNL     1      -4.717   2.607  24.930  0.00  0.00    +0.037 A 
BRANCH   3   2
ATOM      1  C   UNL     1      -5.561   3.958  25.611  0.00  0.00    +0.252 C 
ATOM      2  O   UNL     1      -5.920   3.276  25.316  0.00  0.00    -0.471 OA
ENDBRANCH   3   2
ENDBRANCH   9   6
ENDBRANCH  12  11
BRANCH  12  13
ATOM     13  C   UNL     1      -2.004  -1.088  24.682  0.00  0.00    +0.120 C 
ATOM     14  C   UNL     1      -1.410  -1.449  25.128  0.00  0.00    +0.161 C 
ATOM     15  O   UNL     1      -1.829  -2.160  25.110  0.00  0.00    -0.351 OA
ATOM     16  C   UNL     1      -2.422  -1.800  24.664  0.00  0.00    +0.161 C 
BRANCH  13  17
ATOM     17  N   UNL     1      -1.585  -0.377  24.701  0.00  0.00    -0.211 NA
BRANCH  17  18
ATOM     18  C   UNL     1      -0.803  -0.353  24.438  0.00  0.00    +0.118 C 
BRANCH  18  19
ATOM     19  C   UNL     1      -0.394   0.363  24.429  0.00  0.00    +0.029 A 
ATOM     20  C   UNL     1      -0.571   0.945  24.986  0.00  0.00    +0.000 A 
ATOM     21  C   UNL     1      -0.162   1.662  24.979  0.00  0.00    -0.000 A 
ATOM     22  C   UNL     1       0.424   1.796  24.414  0.00  0.00    +0.003 A 
ATOM     23  C   UNL     1       0.601   1.214  23.856  0.00  0.00    +0.037 A 
ATOM     24  C   UNL     1       0.192   0.497  23.865  0.00  0.00    +0.136 A 
BRANCH  24  25
ATOM     25  O   UNL     1       0.369  -0.085  23.308  0.00  0.00    -0.472 OA
ATOM     26  C   UNL     1       1.022   0.005  22.812  0.00  0.00    +0.252 C 
ENDBRANCH  24  25
ENDBRANCH  18  19
ENDBRANCH  17  18
ENDBRANCH  13  17
ENDBRANCH  12  13
TORSDOF 8
ENDMDL
MODEL 7
REMARK VINA RESULT:      -9.2      1.845      5.080
REMARK  Name = 
REMARK  8 active torsions:
REMARK  status: ('A' for Active; 'I' for Inactive)
REMARK    1  A    between atoms: O_2  and  C_3
REMARK    2  A    between atoms: C_6  and  C_9
REMARK    3  A    between atoms: C_11  and  C_12
REMARK    4  A    between atoms: C_12  and  C_13
REMARK    5  A    between atoms: C_13  and  N_17
REMARK    6  A    between atoms: N_17  and  C_18
REMARK    7  A    between atoms: C_18  and  C_19
REMARK    8  A    between atoms: C_24  and  O_25
REMARK                            x       y       z     vdW  Elec       q    Type
REMARK                         _______ _______ _______ _____ _____    ______ ____
ROOT
ATOM     12  C   UNL     1      -1.759   0.919  24.150  0.00  0.00    +0.070 C 
ENDROOT
BRANCH  12  11
ATOM      9  C   UNL     1      -3.184   2.478  24.461  0.00  0.00    +0.177 A 
ATOM     10  C   UNL     1      -2.912   1.713  24.602  0.00  0.00    +0.058 A 
ATOM     11  C   UNL     1      -2.217   1.605  24.171  0.00  0.00    +0.102 A 
ATOM     27  N   UNL     1      -2.058   2.304  23.763  0.00  0.00    -0.081 NA
ATOM     28  O   UNL     1      -2.656   2.844  23.943  0.00  0.00    -0.354 OA
BRANCH   9   6
ATOM      3  C   UNL     1      -5.222   3.501  25.422  0.00  0.00    +0.139 A 
ATOM      4  C   UNL     1      -4.499   3.898  25.469  0.00  0.00    +0.037 A 
ATOM      5  C   UNL     1      -3.820   3.557  25.148  0.00  0.00    +0.006 A 
ATOM      6  C   UNL     1      -3.863   2.819  24.781  0.00  0.00    +0.037 A 
ATOM      7  C   UNL     1      -4.585   2.422  24.735  0.00  0.00    +0.006 A 
ATOM      8  C   UNL     1      -5.264   2.764  25.056  0.00  0.00    +0.037 A 
BRANCH   3   2
ATOM      1  C   UNL     1      -6.062   4.640  25.613  0.00  0.00    +0.252 C 
ATOM      2  O   UNL     1      -5.901   3.842  25.743  0.00  0.00    -0.471 OA
ENDBRANCH   3   2
ENDBRANCH   9   6
ENDBRANCH  12  11
BRANCH  12  13
ATOM     13  C   UNL     1      -1.349   0.676  24.823  0.00  0.00    +0.120 C 
ATOM     14  C   UNL     1      -0.938   0.433  25.497  0.00  0.00    +0.161 C 
ATOM     15  O   UNL     1      -0.361   1.004  25.350  0.00  0.00    -0.351 OA
ATOM     16  C   UNL     1      -0.771   1.247  24.678  0.00  0.00    +0.161 C 
BRANCH  13  17
ATOM     17  N   UNL     1      -1.927   0.105  24.970  0.00  0.00    -0.211 NA
BRANCH  17  18
ATOM     18  C   UNL     1      -1.723  -0.694  24.975  0.00  0.00    +0.118 C 
BRANCH  18  19
ATOM     19  C   UNL     1      -2.310  -1.268  25.060  0.00  0.00    +0.029 A 
ATOM     20  C   UNL     1      -2.980  -1.107  25.514  0.00  0.00    +0.000 A 
ATOM     21  C   UNL     1      -3.568  -1.679  25.600  0.00  0.00    -0.000 A 
ATOM     22  C   UNL     1      -3.485  -2.413  25.231  0.00  0.00    +0.003 A 
ATOM     23  C   UNL     1      -2.815  -2.574  24.778  0.00  0.00    +0.037 A 
ATOM     24  C   UNL     1      -2.228  -2.001  24.692  0.00  0.00    +0.136 A 
BRANCH  24  25
ATOM     25  O   UNL     1      -1.558  -2.162  24.238  0.00  0.00    -0.472 OA
ATOM     26  C   UNL     1      -1.446  -2.915  23.922  0.00  0.00    +0.252 C 
ENDBRANCH  24  25
ENDBRANCH  18  19
ENDBRANCH  17  18
ENDBRANCH  13  17
ENDBRANCH  12  13
TORSDOF 8
ENDMDL
MODEL 8
REMARK VINA RESULT:      -8.0     16.186     18.942
REMARK  Name = 
REMARK  8 active torsions:
REMARK  status: ('A' for Active; 'I' for Inactive)
REMARK    1  A    between atoms: O_2  and  C_3
REMARK    2  A    between atoms: C_6  and  C_9
REMARK    3  A    between atoms: C_11  and  C_12
REMARK    4  A    between atoms: C_12  and  C_13
REMARK    5  A    between atoms: C_13  and  N_17
REMARK    6  A    between atoms: N_17  and  C_18
REMARK    7  A    between atoms: C_18  and  C_19
REMARK    8  A    between atoms: C_24  and  O_25
REMARK                            x       y       z     vdW  Elec       q    Type
REMARK                         _______ _______ _______ _____ _____    ______ ____
ROOT
ATOM     12  C   UNL     1      13.661   7.000  18.896  0.00  0.00    +0.070 C 
ENDROOT
BRANCH  12  11
ATOM      9  C   UNL     1      11.942   7.473  20.071  0.00  0.00    +0.177 A 
ATOM     10  C   UNL     1      12.758   7.383  19.992  0.00  0.00    +0.058 A 
ATOM     11  C   UNL     1      12.916   7.152  19.216  0.00  0.00    +0.102 A 
ATOM     27  N   UNL     1      12.197   7.099  18.814  0.00  0.00    -0.081 NA
ATOM     28  O   UNL     1      11.595   7.298  19.343  0.00  0.00    -0.354 OA
BRANCH   9   6
ATOM      3  C   UNL     1      10.743   8.149  22.128  0.00  0.00    +0.139 A 
ATOM      4  C   UNL     1      10.705   7.367  21.866  0.00  0.00    +0.037 A 
ATOM      5  C   UNL     1      11.105   7.142  21.180  0.00  0.00    +0.006 A 
ATOM      6  C   UNL     1      11.543   7.698  20.756  0.00  0.00    +0.037 A 
ATOM      7  C   UNL     1      11.581   8.480  21.018  0.00  0.00    +0.006 A 
ATOM      8  C   UNL     1      11.181   8.705  21.703  0.00  0.00    +0.037 A 
BRANCH   3   2
ATOM      1  C   UNL     1      10.520   9.094  23.176  0.00  0.00    +0.252 C 
ATOM      2  O   UNL     1      10.344   8.374  22.813  0.00  0.00    -0.471 OA
ENDBRANCH   3   2
ENDBRANCH   9   6
ENDBRANCH  12  11
BRANCH  12  13
ATOM     13  C   UNL     1      14.081   7.603  18.523  0.00  0.00    +0.120 C 
ATOM     14  C   UNL     1      14.501   8.208  18.149  0.00  0.00    +0.161 C 
ATOM     15  O   UNL     1      13.925   8.242  17.559  0.00  0.00    -0.351 OA
ATOM     16  C   UNL     1      13.505   7.639  17.932  0.00  0.00    +0.161 C 
BRANCH  13  17
ATOM     17  N   UNL     1      14.656   7.569  19.113  0.00  0.00    -0.211 NA
BRANCH  17  18
ATOM     18  C   UNL     1      15.375   7.192  18.965  0.00  0.00    +0.118 C 
BRANCH  18  19
ATOM     19  C   UNL     1      15.947   7.147  19.558  0.00  0.00    +0.029 A 
ATOM     20  C   UNL     1      15.931   7.683  20.186  0.00  0.00    +0.000 A 
ATOM     21  C   UNL     1      16.502   7.640  20.780  0.00  0.00    -0.000 A 
ATOM     22  C   UNL     1      17.088   7.060  20.747  0.00  0.00    +0.003 A 
ATOM     23  C   UNL     1      17.103   6.524  20.119  0.00  0.00    +0.037 A 
ATOM     24  C   UNL     1      16.532   6.569  19.525  0.00  0.00    +0.136 A 
BRANCH  24  25
ATOM     25  O   UNL     1      16.548   6.033  18.898  0.00  0.00    -0.472 OA
ATOM     26  C   UNL     1      17.251   5.651  18.700  0.00  0.00    +0.252 C 
ENDBRANCH  24  25
ENDBRANCH  18  19
ENDBRANCH  17  18
ENDBRANCH  13  17
ENDBRANCH  12  13
TORSDOF 8
ENDMDL
