MODEL 1
REMARK VINA RESULT:     -13.4      0.000      0.000
REMARK  Name = 
REMARK  3 active torsions:
REMARK  status: ('A' for Active; 'I' for Inactive)
REMARK    1  A    between atoms: C_2  and  C_3
REMARK    2  A    between atoms: N_13  and  C_14
REMARK    3  A    between atoms: C_14  and  C_15
REMARK                            x       y       z     vdW  Elec       q    Type
REMARK                         _______ _______ _______ _____ _____    ______ ____
ROOT
ATOM      1  O   UNL     1      -0.517   3.314  24.488  0.00  0.00    -0.275 OA
ATOM      2  C   UNL     1      -1.191   3.744  24.689  0.00  0.00    +0.225 C 
ATOM      6  N   UNL     1      -1.924   3.366  24.730  0.00  0.00    -0.280 N 
ATOM      7  C   UNL     1      -2.598   3.796  24.932  0.00  0.00    +0.093 C 
ATOM      8  C   UNL     1      -3.331   3.420  24.973  0.00  0.00    +0.022 C 
ATOM      9  C   UNL     1      -3.389   2.612  24.813  0.00  0.00    +0.012 C 
ATOM     10  C   UNL     1      -4.167   2.346  24.885  0.00  0.00    +0.085 C 
ATOM     11  C   UNL     1      -4.461   1.583  24.773  0.00  0.00    +0.226 C 
ATOM     12  O   UNL     1      -5.273   1.493  24.888  0.00  0.00    -0.275 OA
ATOM     13  N   UNL     1      -4.051   0.899  24.562  0.00  0.00    -0.275 N 
ATOM     24  C   UNL     1      -3.246   0.809  24.411  0.00  0.00    +0.094 C 
ATOM     25  C   UNL     1      -2.650   1.379  24.433  0.00  0.00    +0.023 C 
ATOM     26  C   UNL     1      -2.714   2.182  24.612  0.00  0.00    +0.022 C 
ATOM     27  C   UNL     1      -1.982   2.560  24.571  0.00  0.00    +0.093 C 
ENDROOT
BRANCH   2   3
ATOM      3  C   UNL     1      -1.133   4.551  24.849  0.00  0.00    +0.077 C 
ATOM      4  C   UNL     1      -1.312   5.199  25.327  0.00  0.00    +0.010 C 
ATOM      5  C   UNL     1      -0.854   5.301  24.648  0.00  0.00    +0.010 C 
ENDBRANCH   2   3
BRANCH  13  14
ATOM     14  C   UNL     1      -4.507   0.215  24.494  0.00  0.00    +0.120 C 
BRANCH  14  15
ATOM     15  C   UNL     1      -4.191  -0.515  24.711  0.00  0.00    +0.001 A 
ATOM     16  C   UNL     1      -3.936  -0.639  25.486  0.00  0.00    +0.001 A 
ATOM     17  C   UNL     1      -3.619  -1.369  25.705  0.00  0.00    +0.040 A 
ATOM     18  C   UNL     1      -3.557  -1.975  25.147  0.00  0.00    +0.176 A 
ATOM     19  O   UNL     1      -3.270  -2.746  25.201  0.00  0.00    -0.435 OA
ATOM     20  C   UNL     1      -3.347  -3.099  24.460  0.00  0.00    +0.429 C 
ATOM     21  O   UNL     1      -3.681  -2.545  23.947  0.00  0.00    -0.435 OA
ATOM     22  C   UNL     1      -3.811  -1.850  24.372  0.00  0.00    +0.176 A 
ATOM     23  C   UNL     1      -4.128  -1.120  24.155  0.00  0.00    +0.038 A 
ENDBRANCH  14  15
ENDBRANCH  13  14
TORSDOF 3
ENDMDL
MODEL 2
REMARK VINA RESULT:     -13.1      1.038      5.169
REMARK  Name = 
REMARK  3 active torsions:
REMARK  status: ('A' for Active; 'I' for Inactive)
REMARK    1  A    between atoms: C_2  and  C_3
REMARK    2  A    between atoms: N_13  and  C_14
REMARK    3  A    between atoms: C_14  and  C_15
REMARK                            x       y       z     vdW  Elec       q    Type
REMARK                         _______ _______ _______ _____ _____    ______ ____
ROOT
ATOM      1  O   UNL     1      -2.071  -1.540  24.277  0.00  0.00    -0.275 OA
ATOM      2  C   UNL     1      -2.879  -1.600  24.435  0.00  0.00    +0.225 C 
ATOM      6  N   UNL     1      -3.335  -0.917  24.516  0.00  0.00    -0.280 N 
ATOM      7  C   UNL     1      -4.143  -0.978  24.674  0.00  0.00    +0.093 C 
ATOM      8  C   UNL     1      -4.600  -0.296  24.754  0.00  0.00    +0.022 C 
ATOM      9  C   UNL     1      -4.249   0.447  24.676  0.00  0.00    +0.012 C 
ATOM     10  C   UNL     1      -4.801   1.053  24.776  0.00  0.00    +0.085 C 
ATOM     11  C   UNL     1      -4.681   1.868  24.742  0.00  0.00    +0.226 C 
ATOM     12  O   UNL     1      -5.350   2.333  24.867  0.00  0.00    -0.275 OA
ATOM     13  N   UNL     1      -3.980   2.280  24.600  0.00  0.00    -0.275 N 
ATOM     24  C   UNL     1      -3.226   1.977  24.458  0.00  0.00    +0.094 C 
ATOM     25  C   UNL     1      -2.986   1.189  24.421  0.00  0.00    +0.023 C 
ATOM     26  C   UNL     1      -3.441   0.508  24.518  0.00  0.00    +0.022 C 
ATOM     27  C   UNL     1      -2.985  -0.175  24.438  0.00  0.00    +0.093 C 
ENDROOT
BRANCH   2   3
ATOM      3  C   UNL     1      -3.229  -2.342  24.513  0.00  0.00    +0.077 C 
ATOM      4  C   UNL     1      -3.669  -2.962  24.192  0.00  0.00    +0.010 C 
ATOM      5  C   UNL     1      -3.397  -3.010  24.970  0.00  0.00    +0.010 C 
ENDBRANCH   2   3
BRANCH  13  14
ATOM     14  C   UNL     1      -4.041   3.102  24.602  0.00  0.00    +0.120 C 
BRANCH  14  15
ATOM     15  C   UNL     1      -3.440   3.560  24.934  0.00  0.00    +0.001 A 
ATOM     16  C   UNL     1      -3.445   3.721  25.743  0.00  0.00    +0.001 A 
ATOM     17  C   UNL     1      -2.844   4.178  26.077  0.00  0.00    +0.040 A 
ATOM     18  C   UNL     1      -2.239   4.474  25.600  0.00  0.00    +0.176 A 
ATOM     19  O   UNL     1      -1.578   4.937  25.771  0.00  0.00    -0.435 OA
ATOM     20  C   UNL     1      -1.165   5.062  25.069  0.00  0.00    +0.429 C 
ATOM     21  O   UNL     1      -1.571   4.676  24.462  0.00  0.00    -0.435 OA
ATOM     22  C   UNL     1      -2.234   4.313  24.791  0.00  0.00    +0.176 A 
ATOM     23  C   UNL     1      -2.835   3.855  24.459  0.00  0.00    +0.038 A 
ENDBRANCH  14  15
ENDBRANCH  13  14
TORSDOF 3
ENDMDL
MODEL 3
REMARK VINA RESULT:     -11.4      1.534      5.619
REMARK  Name = 
REMARK  3 active torsions:
REMARK  status: ('A' for Active; 'I' for Inactive)
REMARK    1  A    between atoms: C_2  and  C_3
REMARK    2  A    between atoms: N_13  and  C_14
REMARK    3  A    between atoms: C_14  and  C_15
REMARK                            x       y       z     vdW  Elec       q    Type
REMARK                         _______ _______ _______ _____ _____    ______ ____
ROOT
ATOM      1  O   UNL     1      -4.658  -0.646  24.399  0.00  0.00    -0.275 OA
ATOM      2  C   UNL     1      -3.976  -1.106  24.345  0.00  0.00    +0.225 C 
ATOM      6  N   UNL     1      -3.242  -0.778  24.531  0.00  0.00    -0.280 N 
ATOM      7  C   UNL     1      -2.559  -1.238  24.477  0.00  0.00    +0.093 C 
ATOM      8  C   UNL     1      -1.825  -0.911  24.663  0.00  0.00    +0.022 C 
ATOM      9  C   UNL     1      -1.774  -0.123  24.903  0.00  0.00    +0.012 C 
ATOM     10  C   UNL     1      -0.993   0.093  25.062  0.00  0.00    +0.085 C 
ATOM     11  C   UNL     1      -0.704   0.823  25.314  0.00  0.00    +0.226 C 
ATOM     12  O   UNL     1       0.113   0.864  25.425  0.00  0.00    -0.275 OA
ATOM     13  N   UNL     1      -1.122   1.517  25.469  0.00  0.00    -0.275 N 
ATOM     24  C   UNL     1      -1.933   1.652  25.411  0.00  0.00    +0.094 C 
ATOM     25  C   UNL     1      -2.527   1.127  25.183  0.00  0.00    +0.023 C 
ATOM     26  C   UNL     1      -2.457   0.337  24.957  0.00  0.00    +0.022 C 
ATOM     27  C   UNL     1      -3.190   0.009  24.771  0.00  0.00    +0.093 C 
ENDROOT
BRANCH   2   3
ATOM      3  C   UNL     1      -4.028  -1.893  24.105  0.00  0.00    +0.077 C 
ATOM      4  C   UNL     1      -3.948  -2.697  24.270  0.00  0.00    +0.010 C 
ATOM      5  C   UNL     1      -4.197  -2.453  23.522  0.00  0.00    +0.010 C 
ENDBRANCH   2   3
BRANCH  13  14
ATOM     14  C   UNL     1      -0.668   2.161  25.715  0.00  0.00    +0.120 C 
BRANCH  14  15
ATOM     15  C   UNL     1      -0.808   2.909  25.397  0.00  0.00    +0.001 A 
ATOM     16  C   UNL     1      -0.451   3.129  24.687  0.00  0.00    +0.001 A 
ATOM     17  C   UNL     1      -0.591   3.876  24.368  0.00  0.00    +0.040 A 
ATOM     18  C   UNL     1      -1.088   4.405  24.760  0.00  0.00    +0.176 A 
ATOM     19  O   UNL     1      -1.328   5.174  24.581  0.00  0.00    -0.435 OA
ATOM     20  C   UNL     1      -1.833   5.430  25.180  0.00  0.00    +0.429 C 
ATOM     21  O   UNL     1      -1.906   4.819  25.731  0.00  0.00    -0.435 OA
ATOM     22  C   UNL     1      -1.446   4.186  25.471  0.00  0.00    +0.176 A 
ATOM     23  C   UNL     1      -1.306   3.438  25.789  0.00  0.00    +0.038 A 
ENDBRANCH  14  15
ENDBRANCH  13  14
TORSDOF 3
ENDMDL
MODEL 4
REMARK VINA RESULT:     -11.3      1.665      2.233
REMARK  Name = 
REMARK  3 active torsions:
REMARK  status: ('A' for Active; 'I' for Inactive)
REMARK    1  A    between atoms: C_2  and  C_3
REMARK    2  A    between atoms: N_13  and  C_14
REMARK    3  A    between atoms: C_14  and  C_15
REMARK                            x       y       z     vdW  Elec       q    Type
REMARK                         _______ _______ _______ _____ _____    ______ ____
ROOT
ATOM      1  O   UNL     1      -2.372   4.065  25.843  0.00  0.00    -0.275 OA
ATOM      2  C   UNL     1      -1.704   4.019  25.361  0.00  0.00    +0.225 C 
ATOM      6  N   UNL     1      -1.407   3.282  25.138  0.00  0.00    -0.280 N 
ATOM      7  C   UNL     1      -0.739   3.236  24.655  0.00  0.00    +0.093 C 
ATOM      8  C   UNL     1      -0.441   2.500  24.431  0.00  0.00    +0.022 C 
ATOM      9  C   UNL     1      -0.812   1.809  24.691  0.00  0.00    +0.012 C 
ATOM     10  C   UNL     1      -0.428   1.137  24.406  0.00  0.00    +0.085 C 
ATOM     11  C   UNL     1      -0.617   0.344  24.535  0.00  0.00    +0.226 C 
ATOM     12  O   UNL     1      -0.121  -0.205  24.170  0.00  0.00    -0.275 OA
ATOM     13  N   UNL     1      -1.236   0.028  24.978  0.00  0.00    -0.275 N 
ATOM     24  C   UNL     1      -1.819   0.427  25.404  0.00  0.00    +0.094 C 
ATOM     25  C   UNL     1      -1.928   1.240  25.491  0.00  0.00    +0.023 C 
ATOM     26  C   UNL     1      -1.479   1.855  25.174  0.00  0.00    +0.022 C 
ATOM     27  C   UNL     1      -1.776   2.592  25.397  0.00  0.00    +0.093 C 
ENDROOT
BRANCH   2   3
ATOM      3  C   UNL     1      -1.335   4.709  25.101  0.00  0.00    +0.077 C 
ATOM      4  C   UNL     1      -1.367   5.430  24.702  0.00  0.00    +0.010 C 
ATOM      5  C   UNL     1      -0.661   5.184  25.051  0.00  0.00    +0.010 C 
ENDBRANCH   2   3
BRANCH  13  14
ATOM     14  C   UNL     1      -1.278  -0.796  24.999  0.00  0.00    +0.120 C 
BRANCH  14  15
ATOM     15  C   UNL     1      -2.012  -1.171  24.981  0.00  0.00    +0.001 A 
ATOM     16  C   UNL     1      -2.371  -1.410  25.685  0.00  0.00    +0.001 A 
ATOM     17  C   UNL     1      -3.105  -1.786  25.667  0.00  0.00    +0.040 A 
ATOM     18  C   UNL     1      -3.481  -1.923  24.945  0.00  0.00    +0.176 A 
ATOM     19  O   UNL     1      -4.200  -2.279  24.757  0.00  0.00    -0.435 OA
ATOM     20  C   UNL     1      -4.287  -2.260  23.937  0.00  0.00    +0.429 C 
ATOM     21  O   UNL     1      -3.620  -1.893  23.618  0.00  0.00    -0.435 OA
ATOM     22  C   UNL     1      -3.122  -1.685  24.241  0.00  0.00    +0.176 A 
ATOM     23  C   UNL     1      -2.388  -1.309  24.260  0.00  0.00    +0.038 A 
ENDBRANCH  14  15
ENDBRANCH  13  14
TORSDOF 3
ENDMDL
MODEL 5
REMARK VINA RESULT:     -10.4      1.538      5.311
REMARK  Name = 
REMARK  3 active torsions:
REMARK  status: ('A' for Active; 'I' for Inactive)
REMARK    1  A    between atoms: C_2  and  C_3
REMARK    2  A    between atoms: N_13  and  C_14
REMARK    3  A    between atoms: C_14  and  C_15
REMARK                            x       y       z     vdW  Elec       q    Type
REMARK                         _______ _______ _______ _____ _____    ______ ____
ROOT
ATOM      1  O   UNL     1      -4.499  -2.030  23.688  0.00  0.00    -0.275 OA
ATOM      2  C   UNL     1      -3.801  -2.091  24.124  0.00  0.00    +0.225 C 
ATOM      6  N   UNL     1      -3.396  -1.409  24.351  0.00  0.00    -0.280 N 
ATOM      7  C   UNL     1      -2.698  -1.471  24.788  0.00  0.00    +0.093 C 
ATOM      8  C   UNL     1      -2.292  -0.790  25.015  0.00  0.00    +0.022 C 
ATOM      9  C   UNL     1      -2.584  -0.047  24.806  0.00  0.00    +0.012 C 
ATOM     10  C   UNL     1      -2.096   0.557  25.087  0.00  0.00    +0.085 C 
ATOM     11  C   UNL     1      -2.187   1.373  24.999  0.00  0.00    +0.226 C 
ATOM     12  O   UNL     1      -1.601   1.837  25.347  0.00  0.00    -0.275 OA
ATOM     13  N   UNL     1      -2.787   1.785  24.611  0.00  0.00    -0.275 N 
ATOM     24  C   UNL     1      -3.444   1.484  24.213  0.00  0.00    +0.094 C 
ATOM     25  C   UNL     1      -3.664   0.696  24.106  0.00  0.00    +0.023 C 
ATOM     26  C   UNL     1      -3.281   0.015  24.370  0.00  0.00    +0.022 C 
ATOM     27  C   UNL     1      -3.687  -0.667  24.143  0.00  0.00    +0.093 C 
ENDROOT
BRANCH   2   3
ATOM      3  C   UNL     1      -3.510  -2.834  24.333  0.00  0.00    +0.077 C 
ATOM      4  C   UNL     1      -3.099  -3.522  24.136  0.00  0.00    +0.010 C 
ATOM      5  C   UNL     1      -3.417  -3.433  24.893  0.00  0.00    +0.010 C 
ENDBRANCH   2   3
BRANCH  13  14
ATOM     14  C   UNL     1      -2.721   2.607  24.621  0.00  0.00    +0.120 C 
BRANCH  14  15
ATOM     15  C   UNL     1      -3.395   3.074  24.714  0.00  0.00    +0.001 A 
ATOM     16  C   UNL     1      -3.662   3.540  24.088  0.00  0.00    +0.001 A 
ATOM     17  C   UNL     1      -4.336   4.007  24.180  0.00  0.00    +0.040 A 
ATOM     18  C   UNL     1      -4.743   4.007  24.898  0.00  0.00    +0.176 A 
ATOM     19  O   UNL     1      -5.419   4.407  25.149  0.00  0.00    -0.435 OA
ATOM     20  C   UNL     1      -5.570   4.188  25.930  0.00  0.00    +0.429 C 
ATOM     21  O   UNL     1      -4.986   3.652  26.162  0.00  0.00    -0.435 OA
ATOM     22  C   UNL     1      -4.476   3.540  25.524  0.00  0.00    +0.176 A 
ATOM     23  C   UNL     1      -3.802   3.074  25.431  0.00  0.00    +0.038 A 
ENDBRANCH  14  15
ENDBRANCH  13  14
TORSDOF 3
ENDMDL
