REMARK  Name = 
REMARK  6 active torsions:
REMARK  status: ('A' for Active; 'I' for Inactive)
REMARK    1  A    between atoms: O_2  and  C_3
REMARK    2  A    between atoms: C_3  and  C_4
REMARK    3  A    between atoms: C_11  and  C_12
REMARK    4  A    between atoms: C_14  and  C_17
REMARK    5  A    between atoms: C_20  and  O_21
REMARK    6  A    between atoms: O_21  and  C_22
REMARK                            x       y       z     vdW  Elec       q    Type
REMARK                         _______ _______ _______ _____ _____    ______ ____
ROOT
ATOM     12  C   UNL     1       0.715  -1.238   0.000  0.00  0.00    +0.160 A 
ATOM     13  N   UNL     1       1.382  -1.722   0.000  0.00  0.00    -0.227 NA
ATOM     14  C   UNL     1       1.127  -2.507   0.000  0.00  0.00    +0.102 A 
ATOM     15  C   UNL     1       0.302  -2.507   0.000  0.00  0.00    +0.119 A 
ATOM     16  N   UNL     1       0.047  -1.722   0.000  0.00  0.00    -0.226 NA
ENDROOT
BRANCH  12  11
ATOM      4  C   UNL     1      -0.715  -0.412   0.000  0.00  0.00    +0.256 C 
ATOM      5  O   UNL     1      -0.715  -1.238   0.000  0.00  0.00    -0.272 OA
ATOM      6  N   UNL     1       0.000   0.000   0.000  0.00  0.00    -0.268 N 
ATOM      7  C   UNL     1       0.000   0.825   0.000  0.00  0.00    +0.126 C 
ATOM      8  C   UNL     1       0.715   1.238   0.000  0.00  0.00    +0.164 C 
ATOM      9  O   UNL     1       1.429   0.825   0.000  0.00  0.00    -0.350 OA
ATOM     10  C   UNL     1       1.429   0.000   0.000  0.00  0.00    +0.170 C 
ATOM     11  C   UNL     1       0.715  -0.412   0.000  0.00  0.00    +0.164 C 
BRANCH   4   3
ATOM      3  C   UNL     1      -1.429   0.000   0.000  0.00  0.00    +0.227 C 
BRANCH   3   2
ATOM      1  C   UNL     1      -2.858   0.000   0.000  0.00  0.00    +0.175 C 
ATOM      2  O   UNL     1      -2.143  -0.412   0.000  0.00  0.00    -0.342 OA
ENDBRANCH   3   2
ENDBRANCH   4   3
ENDBRANCH  12  11
BRANCH  14  17
ATOM     17  C   UNL     1       1.612  -3.175   0.000  0.00  0.00    +0.019 A 
ATOM     18  C   UNL     1       2.432  -3.088   0.000  0.00  0.00    +0.005 A 
ATOM     19  C   UNL     1       2.917  -3.756   0.000  0.00  0.00    +0.037 A 
ATOM     20  C   UNL     1       2.582  -4.509   0.000  0.00  0.00    +0.147 A 
ATOM     26  C   UNL     1       1.761  -4.596   0.000  0.00  0.00    +0.037 A 
ATOM     27  C   UNL     1       1.276  -3.928   0.000  0.00  0.00    +0.005 A 
BRANCH  20  21
ATOM     21  O   UNL     1       3.067  -5.177   0.000  0.00  0.00    -0.404 OA
BRANCH  21  22
ATOM     22  C   UNL     1       3.887  -5.091   0.000  0.00  0.00    +0.575 C 
ATOM     23  F   UNL     1       4.708  -5.004   0.000  0.00  0.00    -0.133 F 
ATOM     24  F   UNL     1       3.973  -5.911   0.000  0.00  0.00    -0.133 F 
ATOM     25  F   UNL     1       3.801  -4.270   0.000  0.00  0.00    -0.133 F 
ENDBRANCH  21  22
ENDBRANCH  20  21
ENDBRANCH  14  17
TORSDOF 6
