MODEL 1
REMARK VINA RESULT:     -16.6      0.000      0.000
REMARK  Name = 
REMARK  3 active torsions:
REMARK  status: ('A' for Active; 'I' for Inactive)
REMARK    1  A    between atoms: C_2  and  C_26
REMARK    2  A    between atoms: N_3  and  C_4
REMARK    3  A    between atoms: C_14  and  C_16
REMARK                            x       y       z     vdW  Elec       q    Type
REMARK                         _______ _______ _______ _____ _____    ______ ____
ROOT
ATOM      4  C   UNL     1      -2.886   2.064  24.050  0.00  0.00    +0.130 A 
ATOM      5  C   UNL     1      -3.123   2.853  24.101  0.00  0.00    +0.023 A 
ATOM      6  C   UNL     1      -3.862   3.042  24.417  0.00  0.00    +0.014 A 
ATOM      7  C   UNL     1      -4.363   2.443  24.681  0.00  0.00    +0.041 A 
ATOM      8  C   UNL     1      -5.192   2.320  25.058  0.00  0.00    +0.058 C 
ATOM      9  C   UNL     1      -5.752   2.678  25.283  0.00  0.00    +0.011 C 
ATOM     10  C   UNL     1      -5.515   1.900  25.231  0.00  0.00    +0.043 C 
ATOM     11  C   UNL     1      -5.411   0.918  25.252  0.00  0.00    +0.096 C 
ATOM     12  N   UNL     1      -4.649   0.850  24.918  0.00  0.00    -0.276 N 
ATOM     13  C   UNL     1      -5.107   1.369  25.086  0.00  0.00    +0.099 C 
ATOM     14  C   UNL     1      -3.961   0.492  24.636  0.00  0.00    +0.249 C 
ATOM     15  O   UNL     1      -3.349   0.955  24.332  0.00  0.00    -0.270 OA
ATOM     22  C   UNL     1      -4.648   2.018  24.837  0.00  0.00    +0.110 C 
ATOM     23  N   UNL     1      -4.126   1.654  24.630  0.00  0.00    -0.298 N 
ATOM     24  C   UNL     1      -3.388   1.465  24.314  0.00  0.00    +0.276 A 
ATOM     25  O   UNL     1      -2.941   0.788  24.162  0.00  0.00    -0.266 OA
ENDROOT
BRANCH  14  16
ATOM     16  C   UNL     1      -3.885  -0.329  24.659  0.00  0.00    +0.054 A 
ATOM     17  C   UNL     1      -4.127  -0.784  24.015  0.00  0.00    +0.005 A 
ATOM     18  C   UNL     1      -4.050  -1.606  24.037  0.00  0.00    +0.000 A 
ATOM     19  C   UNL     1      -3.733  -1.972  24.705  0.00  0.00    +0.000 A 
ATOM     20  C   UNL     1      -3.491  -1.518  25.349  0.00  0.00    +0.000 A 
ATOM     21  C   UNL     1      -3.567  -0.696  25.326  0.00  0.00    +0.005 A 
ENDBRANCH  14  16
BRANCH   4   3
ATOM      1  O   UNL     1      -0.730   2.056  23.706  0.00  0.00    -0.268 OA
ATOM      2  C   UNL     1      -1.469   2.245  24.022  0.00  0.00    +0.269 C 
ATOM      3  N   UNL     1      -2.148   1.876  23.734  0.00  0.00    -0.171 NA
BRANCH   2  26
ATOM     26  C   UNL     1      -1.529   2.804  24.627  0.00  0.00    +0.055 A 
ATOM     27  C   UNL     1      -1.445   2.570  25.414  0.00  0.00    +0.005 A 
ATOM     28  C   UNL     1      -1.504   3.128  26.018  0.00  0.00    +0.000 A 
ATOM     29  C   UNL     1      -1.647   3.920  25.835  0.00  0.00    +0.000 A 
ATOM     30  C   UNL     1      -1.731   4.154  25.048  0.00  0.00    +0.000 A 
ATOM     31  C   UNL     1      -1.672   3.595  24.444  0.00  0.00    +0.005 A 
ENDBRANCH   2  26
ENDBRANCH   4   3
TORSDOF 3
ENDMDL
MODEL 2
REMARK VINA RESULT:     -15.9      0.986      3.515
REMARK  Name = 
REMARK  3 active torsions:
REMARK  status: ('A' for Active; 'I' for Inactive)
REMARK    1  A    between atoms: C_2  and  C_26
REMARK    2  A    between atoms: N_3  and  C_4
REMARK    3  A    between atoms: C_14  and  C_16
REMARK                            x       y       z     vdW  Elec       q    Type
REMARK                         _______ _______ _______ _____ _____    ______ ____
ROOT
ATOM      4  C   UNL     1      -3.189   0.753  24.345  0.00  0.00    +0.130 A 
ATOM      5  C   UNL     1      -3.816   0.226  24.246  0.00  0.00    +0.023 A 
ATOM      6  C   UNL     1      -4.585   0.459  24.436  0.00  0.00    +0.014 A 
ATOM      7  C   UNL     1      -4.726   1.218  24.725  0.00  0.00    +0.041 A 
ATOM      8  C   UNL     1      -5.413   1.756  25.013  0.00  0.00    +0.058 C 
ATOM      9  C   UNL     1      -6.108   1.756  25.110  0.00  0.00    +0.011 C 
ATOM     10  C   UNL     1      -5.487   2.273  25.207  0.00  0.00    +0.043 C 
ATOM     11  C   UNL     1      -4.879   3.030  25.392  0.00  0.00    +0.096 C 
ATOM     12  N   UNL     1      -4.152   2.684  25.167  0.00  0.00    -0.276 N 
ATOM     13  C   UNL     1      -4.839   2.496  25.196  0.00  0.00    +0.099 C 
ATOM     14  C   UNL     1      -3.341   2.618  25.030  0.00  0.00    +0.249 C 
ATOM     15  O   UNL     1      -3.028   1.913  24.736  0.00  0.00    -0.270 OA
ATOM     22  C   UNL     1      -4.762   1.719  24.909  0.00  0.00    +0.110 C 
ATOM     23  N   UNL     1      -4.098   1.744  24.825  0.00  0.00    -0.298 N 
ATOM     24  C   UNL     1      -3.330   1.512  24.635  0.00  0.00    +0.276 A 
ATOM     25  O   UNL     1      -2.572   1.836  24.644  0.00  0.00    -0.266 OA
ENDROOT
BRANCH  14  16
ATOM     16  C   UNL     1      -2.843   3.256  25.188  0.00  0.00    +0.054 A 
ATOM     17  C   UNL     1      -2.486   3.329  25.928  0.00  0.00    +0.005 A 
ATOM     18  C   UNL     1      -1.988   3.968  26.085  0.00  0.00    +0.000 A 
ATOM     19  C   UNL     1      -1.847   4.533  25.502  0.00  0.00    +0.000 A 
ATOM     20  C   UNL     1      -2.203   4.461  24.762  0.00  0.00    +0.000 A 
ATOM     21  C   UNL     1      -2.702   3.823  24.604  0.00  0.00    +0.005 A 
ENDBRANCH  14  16
BRANCH   4   3
ATOM      1  O   UNL     1      -1.373  -0.450  24.207  0.00  0.00    -0.268 OA
ATOM      2  C   UNL     1      -2.142  -0.217  24.398  0.00  0.00    +0.269 C 
ATOM      3  N   UNL     1      -2.421   0.520  24.155  0.00  0.00    -0.171 NA
BRANCH   2  26
ATOM     26  C   UNL     1      -2.630  -0.722  24.831  0.00  0.00    +0.055 A 
ATOM     27  C   UNL     1      -2.622  -0.695  25.656  0.00  0.00    +0.005 A 
ATOM     28  C   UNL     1      -3.110  -1.200  26.089  0.00  0.00    +0.000 A 
ATOM     29  C   UNL     1      -3.606  -1.730  25.698  0.00  0.00    +0.000 A 
ATOM     30  C   UNL     1      -3.614  -1.756  24.873  0.00  0.00    +0.000 A 
ATOM     31  C   UNL     1      -3.126  -1.252  24.439  0.00  0.00    +0.005 A 
ENDBRANCH   2  26
ENDBRANCH   4   3
TORSDOF 3
ENDMDL
MODEL 3
REMARK VINA RESULT:     -14.9      1.277      3.461
REMARK  Name = 
REMARK  3 active torsions:
REMARK  status: ('A' for Active; 'I' for Inactive)
REMARK    1  A    between atoms: C_2  and  C_26
REMARK    2  A    between atoms: N_3  and  C_4
REMARK    3  A    between atoms: C_14  and  C_16
REMARK                            x       y       z     vdW  Elec       q    Type
REMARK                         _______ _______ _______ _____ _____    ______ ____
ROOT
ATOM      4  C   UNL     1      -3.675   1.455  24.246  0.00  0.00    +0.130 A 
ATOM      5  C   UNL     1      -4.349   0.982  24.301  0.00  0.00    +0.023 A 
ATOM      6  C   UNL     1      -4.307   0.245  24.668  0.00  0.00    +0.014 A 
ATOM      7  C   UNL     1      -3.591  -0.020  24.980  0.00  0.00    +0.041 A 
ATOM      8  C   UNL     1      -3.228  -0.740  25.421  0.00  0.00    +0.058 C 
ATOM      9  C   UNL     1      -3.398  -1.369  25.681  0.00  0.00    +0.011 C 
ATOM     10  C   UNL     1      -2.734  -0.900  25.625  0.00  0.00    +0.043 C 
ATOM     11  C   UNL     1      -1.837  -0.487  25.655  0.00  0.00    +0.096 C 
ATOM     12  N   UNL     1      -2.001   0.233  25.265  0.00  0.00    -0.276 N 
ATOM     13  C   UNL     1      -2.355  -0.354  25.458  0.00  0.00    +0.099 C 
ATOM     14  C   UNL     1      -1.868   0.979  24.938  0.00  0.00    +0.249 C 
ATOM     15  O   UNL     1      -2.488   1.390  24.581  0.00  0.00    -0.270 OA
ATOM     22  C   UNL     1      -3.105  -0.144  25.164  0.00  0.00    +0.110 C 
ATOM     23  N   UNL     1      -2.917   0.452  24.924  0.00  0.00    -0.298 N 
ATOM     24  C   UNL     1      -2.959   1.190  24.557  0.00  0.00    +0.276 A 
ATOM     25  O   UNL     1      -2.453   1.817  24.383  0.00  0.00    -0.266 OA
ENDROOT
BRANCH  14  16
ATOM     16  C   UNL     1      -1.115   1.314  24.969  0.00  0.00    +0.054 A 
ATOM     17  C   UNL     1      -0.578   1.179  24.358  0.00  0.00    +0.005 A 
ATOM     18  C   UNL     1       0.176   1.514  24.389  0.00  0.00    +0.000 A 
ATOM     19  C   UNL     1       0.391   1.985  25.032  0.00  0.00    +0.000 A 
ATOM     20  C   UNL     1      -0.145   2.121  25.642  0.00  0.00    +0.000 A 
ATOM     21  C   UNL     1      -0.899   1.785  25.611  0.00  0.00    +0.005 A 
ENDBRANCH  14  16
BRANCH   4   3
ATOM      1  O   UNL     1      -4.337   3.472  23.739  0.00  0.00    -0.268 OA
ATOM      2  C   UNL     1      -4.295   2.734  24.107  0.00  0.00    +0.269 C 
ATOM      3  N   UNL     1      -3.717   2.192  23.878  0.00  0.00    -0.171 NA
BRANCH   2  26
ATOM     26  C   UNL     1      -4.830   2.540  24.704  0.00  0.00    +0.055 A 
ATOM     27  C   UNL     1      -4.689   2.783  25.480  0.00  0.00    +0.005 A 
ATOM     28  C   UNL     1      -5.224   2.589  26.077  0.00  0.00    +0.000 A 
ATOM     29  C   UNL     1      -5.900   2.151  25.898  0.00  0.00    +0.000 A 
ATOM     30  C   UNL     1      -6.041   1.908  25.122  0.00  0.00    +0.000 A 
ATOM     31  C   UNL     1      -5.506   2.103  24.525  0.00  0.00    +0.005 A 
ENDBRANCH   2  26
ENDBRANCH   4   3
TORSDOF 3
ENDMDL
MODEL 4
REMARK VINA RESULT:     -14.7      1.251      2.768
REMARK  Name = 
REMARK  3 active torsions:
REMARK  status: ('A' for Active; 'I' for Inactive)
REMARK    1  A    between atoms: C_2  and  C_26
REMARK    2  A    between atoms: N_3  and  C_4
REMARK    3  A    between atoms: C_14  and  C_16
REMARK                            x       y       z     vdW  Elec       q    Type
REMARK                         _______ _______ _______ _____ _____    ______ ____
ROOT
ATOM      4  C   UNL     1      -3.221   1.644  23.978  0.00  0.00    +0.130 A 
ATOM      5  C   UNL     1      -2.737   2.274  23.755  0.00  0.00    +0.023 A 
ATOM      6  C   UNL     1      -1.917   2.185  23.754  0.00  0.00    +0.014 A 
ATOM      7  C   UNL     1      -1.581   1.465  23.975  0.00  0.00    +0.041 A 
ATOM      8  C   UNL     1      -0.761   1.061  24.075  0.00  0.00    +0.058 C 
ATOM      9  C   UNL     1      -0.074   1.186  24.009  0.00  0.00    +0.011 C 
ATOM     10  C   UNL     1      -0.555   0.566  24.228  0.00  0.00    +0.043 C 
ATOM     11  C   UNL     1      -0.959  -0.287  24.519  0.00  0.00    +0.096 C 
ATOM     12  N   UNL     1      -1.767  -0.078  24.482  0.00  0.00    -0.276 N 
ATOM     13  C   UNL     1      -1.137   0.230  24.358  0.00  0.00    +0.099 C 
ATOM     14  C   UNL     1      -2.587  -0.160  24.539  0.00  0.00    +0.249 C 
ATOM     15  O   UNL     1      -3.079   0.476  24.351  0.00  0.00    -0.270 OA
ATOM     22  C   UNL     1      -1.415   0.980  24.126  0.00  0.00    +0.110 C 
ATOM     23  N   UNL     1      -2.065   0.835  24.197  0.00  0.00    -0.298 N 
ATOM     24  C   UNL     1      -2.885   0.924  24.199  0.00  0.00    +0.276 A 
ATOM     25  O   UNL     1      -3.550   0.469  24.371  0.00  0.00    -0.266 OA
ENDROOT
BRANCH  14  16
ATOM     16  C   UNL     1      -2.914  -0.876  24.783  0.00  0.00    +0.054 A 
ATOM     17  C   UNL     1      -3.040  -1.020  25.586  0.00  0.00    +0.005 A 
ATOM     18  C   UNL     1      -3.367  -1.738  25.830  0.00  0.00    +0.000 A 
ATOM     19  C   UNL     1      -3.568  -2.310  25.271  0.00  0.00    +0.000 A 
ATOM     20  C   UNL     1      -3.443  -2.167  24.470  0.00  0.00    +0.000 A 
ATOM     21  C   UNL     1      -3.115  -1.450  24.225  0.00  0.00    +0.005 A 
ENDBRANCH  14  16
BRANCH   4   3
ATOM      1  O   UNL     1      -5.204   2.476  24.352  0.00  0.00    -0.268 OA
ATOM      2  C   UNL     1      -4.384   2.386  24.351  0.00  0.00    +0.269 C 
ATOM      3  N   UNL     1      -4.041   1.734  23.979  0.00  0.00    -0.171 NA
BRANCH   2  26
ATOM     26  C   UNL     1      -3.907   2.947  24.723  0.00  0.00    +0.055 A 
ATOM     27  C   UNL     1      -3.739   2.878  25.528  0.00  0.00    +0.005 A 
ATOM     28  C   UNL     1      -3.262   3.440  25.899  0.00  0.00    +0.000 A 
ATOM     29  C   UNL     1      -2.953   4.069  25.465  0.00  0.00    +0.000 A 
ATOM     30  C   UNL     1      -3.120   4.138  24.660  0.00  0.00    +0.000 A 
ATOM     31  C   UNL     1      -3.597   3.577  24.289  0.00  0.00    +0.005 A 
ENDBRANCH   2  26
ENDBRANCH   4   3
TORSDOF 3
ENDMDL
MODEL 5
REMARK VINA RESULT:     -14.4      1.555      3.975
REMARK  Name = 
REMARK  3 active torsions:
REMARK  status: ('A' for Active; 'I' for Inactive)
REMARK    1  A    between atoms: C_2  and  C_26
REMARK    2  A    between atoms: N_3  and  C_4
REMARK    3  A    between atoms: C_14  and  C_16
REMARK                            x       y       z     vdW  Elec       q    Type
REMARK                         _______ _______ _______ _____ _____    ______ ____
ROOT
ATOM      4  C   UNL     1      -3.013   0.198  25.043  0.00  0.00    +0.130 A 
ATOM      5  C   UNL     1      -2.443  -0.151  24.560  0.00  0.00    +0.023 A 
ATOM      6  C   UNL     1      -2.235   0.203  23.845  0.00  0.00    +0.014 A 
ATOM      7  C   UNL     1      -2.597   0.908  23.613  0.00  0.00    +0.041 A 
ATOM      8  C   UNL     1      -2.595   1.519  22.927  0.00  0.00    +0.058 C 
ATOM      9  C   UNL     1      -2.289   1.653  22.310  0.00  0.00    +0.011 C 
ATOM     10  C   UNL     1      -2.852   1.995  22.790  0.00  0.00    +0.043 C 
ATOM     11  C   UNL     1      -3.541   2.553  23.224  0.00  0.00    +0.096 C 
ATOM     12  N   UNL     1      -3.668   2.105  23.918  0.00  0.00    -0.276 N 
ATOM     13  C   UNL     1      -3.261   2.070  23.334  0.00  0.00    +0.099 C 
ATOM     14  C   UNL     1      -3.988   1.891  24.648  0.00  0.00    +0.249 C 
ATOM     15  O   UNL     1      -3.731   1.202  25.024  0.00  0.00    -0.270 OA
ATOM     22  C   UNL     1      -2.861   1.361  23.511  0.00  0.00    +0.110 C 
ATOM     23  N   UNL     1      -3.167   1.257  24.097  0.00  0.00    -0.298 N 
ATOM     24  C   UNL     1      -3.375   0.902  24.812  0.00  0.00    +0.276 A 
ATOM     25  O   UNL     1      -3.889   1.046  25.441  0.00  0.00    -0.266 OA
ENDROOT
BRANCH  14  16
ATOM     16  C   UNL     1      -4.563   2.364  25.001  0.00  0.00    +0.054 A 
ATOM     17  C   UNL     1      -4.342   3.038  25.422  0.00  0.00    +0.005 A 
ATOM     18  C   UNL     1      -4.917   3.512  25.775  0.00  0.00    +0.000 A 
ATOM     19  C   UNL     1      -5.715   3.311  25.708  0.00  0.00    +0.000 A 
ATOM     20  C   UNL     1      -5.937   2.638  25.288  0.00  0.00    +0.000 A 
ATOM     21  C   UNL     1      -5.361   2.164  24.934  0.00  0.00    +0.005 A 
ENDBRANCH  14  16
BRANCH   4   3
ATOM      1  O   UNL     1      -3.659  -1.304  26.490  0.00  0.00    -0.268 OA
ATOM      2  C   UNL     1      -3.451  -0.949  25.774  0.00  0.00    +0.269 C 
ATOM      3  N   UNL     1      -3.221  -0.157  25.758  0.00  0.00    -0.171 NA
BRANCH   2  26
ATOM     26  C   UNL     1      -3.474  -1.386  25.075  0.00  0.00    +0.055 A 
ATOM     27  C   UNL     1      -4.167  -1.409  24.626  0.00  0.00    +0.005 A 
ATOM     28  C   UNL     1      -4.190  -1.847  23.926  0.00  0.00    +0.000 A 
ATOM     29  C   UNL     1      -3.521  -2.259  23.676  0.00  0.00    +0.000 A 
ATOM     30  C   UNL     1      -2.829  -2.236  24.125  0.00  0.00    +0.000 A 
ATOM     31  C   UNL     1      -2.806  -1.799  24.825  0.00  0.00    +0.005 A 
ENDBRANCH   2  26
ENDBRANCH   4   3
TORSDOF 3
ENDMDL
MODEL 6
REMARK VINA RESULT:     -14.3      1.664      3.409
REMARK  Name = 
REMARK  3 active torsions:
REMARK  status: ('A' for Active; 'I' for Inactive)
REMARK    1  A    between atoms: C_2  and  C_26
REMARK    2  A    between atoms: N_3  and  C_4
REMARK    3  A    between atoms: C_14  and  C_16
REMARK                            x       y       z     vdW  Elec       q    Type
REMARK                         _______ _______ _______ _____ _____    ______ ____
ROOT
ATOM      4  C   UNL     1      -2.092  -0.167  25.373  0.00  0.00    +0.130 A 
ATOM      5  C   UNL     1      -1.769  -0.921  25.282  0.00  0.00    +0.023 A 
ATOM      6  C   UNL     1      -2.210  -1.518  24.923  0.00  0.00    +0.014 A 
ATOM      7  C   UNL     1      -2.974  -1.362  24.654  0.00  0.00    +0.041 A 
ATOM      8  C   UNL     1      -3.682  -1.775  24.239  0.00  0.00    +0.058 C 
ATOM      9  C   UNL     1      -3.880  -2.393  23.973  0.00  0.00    +0.011 C 
ATOM     10  C   UNL     1      -4.197  -1.648  24.065  0.00  0.00    +0.043 C 
ATOM     11  C   UNL     1      -4.745  -0.826  24.083  0.00  0.00    +0.096 C 
ATOM     12  N   UNL     1      -4.208  -0.308  24.459  0.00  0.00    -0.276 N 
ATOM     13  C   UNL     1      -4.225  -0.989  24.249  0.00  0.00    +0.099 C 
ATOM     14  C   UNL     1      -3.914   0.389  24.788  0.00  0.00    +0.249 C 
ATOM     15  O   UNL     1      -3.153   0.406  25.107  0.00  0.00    -0.270 OA
ATOM     22  C   UNL     1      -3.461  -1.209  24.499  0.00  0.00    +0.110 C 
ATOM     23  N   UNL     1      -3.297  -0.609  24.745  0.00  0.00    -0.298 N 
ATOM     24  C   UNL     1      -2.856  -0.011  25.105  0.00  0.00    +0.276 A 
ATOM     25  O   UNL     1      -2.949   0.784  25.303  0.00  0.00    -0.266 OA
ENDROOT
BRANCH  14  16
ATOM     16  C   UNL     1      -4.380   1.069  24.798  0.00  0.00    +0.054 A 
ATOM     17  C   UNL     1      -4.257   1.663  24.239  0.00  0.00    +0.005 A 
ATOM     18  C   UNL     1      -4.724   2.344  24.249  0.00  0.00    +0.000 A 
ATOM     19  C   UNL     1      -5.314   2.429  24.818  0.00  0.00    +0.000 A 
ATOM     20  C   UNL     1      -5.438   1.837  25.377  0.00  0.00    +0.000 A 
ATOM     21  C   UNL     1      -4.971   1.156  25.367  0.00  0.00    +0.005 A 
ENDBRANCH  14  16
BRANCH   4   3
ATOM      1  O   UNL     1      -0.461   1.218  25.805  0.00  0.00    -0.268 OA
ATOM      2  C   UNL     1      -0.903   0.621  25.444  0.00  0.00    +0.269 C 
ATOM      3  N   UNL     1      -1.651   0.430  25.733  0.00  0.00    -0.171 NA
BRANCH   2  26
ATOM     26  C   UNL     1      -0.594   0.214  24.796  0.00  0.00    +0.055 A 
ATOM     27  C   UNL     1      -0.655   0.539  24.039  0.00  0.00    +0.005 A 
ATOM     28  C   UNL     1      -0.347   0.133  23.390  0.00  0.00    +0.000 A 
ATOM     29  C   UNL     1       0.021  -0.597  23.499  0.00  0.00    +0.000 A 
ATOM     30  C   UNL     1       0.082  -0.922  24.255  0.00  0.00    +0.000 A 
ATOM     31  C   UNL     1      -0.227  -0.516  24.904  0.00  0.00    +0.005 A 
ENDBRANCH   2  26
ENDBRANCH   4   3
TORSDOF 3
ENDMDL
MODEL 7
REMARK VINA RESULT:     -14.2      1.985      4.884
REMARK  Name = 
REMARK  3 active torsions:
REMARK  status: ('A' for Active; 'I' for Inactive)
REMARK    1  A    between atoms: C_2  and  C_26
REMARK    2  A    between atoms: N_3  and  C_4
REMARK    3  A    between atoms: C_14  and  C_16
REMARK                            x       y       z     vdW  Elec       q    Type
REMARK                         _______ _______ _______ _____ _____    ______ ____
ROOT
ATOM      4  C   UNL     1      -1.992  -0.703  25.498  0.00  0.00    +0.130 A 
ATOM      5  C   UNL     1      -1.772  -1.426  25.167  0.00  0.00    +0.023 A 
ATOM      6  C   UNL     1      -1.174  -1.455  24.599  0.00  0.00    +0.014 A 
ATOM      7  C   UNL     1      -0.795  -0.761  24.364  0.00  0.00    +0.041 A 
ATOM      8  C   UNL     1      -0.136  -0.465  23.795  0.00  0.00    +0.058 C 
ATOM      9  C   UNL     1       0.326  -0.697  23.321  0.00  0.00    +0.011 C 
ATOM     10  C   UNL     1       0.107   0.015  23.650  0.00  0.00    +0.043 C 
ATOM     11  C   UNL     1      -0.014   0.956  23.926  0.00  0.00    +0.096 C 
ATOM     12  N   UNL     1      -0.627   0.861  24.485  0.00  0.00    -0.276 N 
ATOM     13  C   UNL     1      -0.240   0.449  24.051  0.00  0.00    +0.099 C 
ATOM     14  C   UNL     1      -1.191   1.067  25.051  0.00  0.00    +0.249 C 
ATOM     15  O   UNL     1      -1.663   0.483  25.394  0.00  0.00    -0.270 OA
ATOM     22  C   UNL     1      -0.583  -0.284  24.247  0.00  0.00    +0.110 C 
ATOM     23  N   UNL     1      -1.015  -0.038  24.695  0.00  0.00    -0.298 N 
ATOM     24  C   UNL     1      -1.613  -0.009  25.262  0.00  0.00    +0.276 A 
ATOM     25  O   UNL     1      -1.996   0.560  25.720  0.00  0.00    -0.266 OA
ENDROOT
BRANCH  14  16
ATOM     16  C   UNL     1      -1.283   1.855  25.274  0.00  0.00    +0.054 A 
ATOM     17  C   UNL     1      -0.796   2.180  25.855  0.00  0.00    +0.005 A 
ATOM     18  C   UNL     1      -0.888   2.970  26.078  0.00  0.00    +0.000 A 
ATOM     19  C   UNL     1      -1.468   3.434  25.718  0.00  0.00    +0.000 A 
ATOM     20  C   UNL     1      -1.955   3.110  25.138  0.00  0.00    +0.000 A 
ATOM     21  C   UNL     1      -1.863   2.320  24.915  0.00  0.00    +0.005 A 
ENDBRANCH  14  16
BRANCH   4   3
ATOM      1  O   UNL     1      -3.914  -1.010  26.487  0.00  0.00    -0.268 OA
ATOM      2  C   UNL     1      -3.315  -1.039  25.918  0.00  0.00    +0.269 C 
ATOM      3  N   UNL     1      -2.590  -0.674  26.065  0.00  0.00    -0.171 NA
BRANCH   2  26
ATOM     26  C   UNL     1      -3.442  -1.432  25.204  0.00  0.00    +0.055 A 
ATOM     27  C   UNL     1      -3.785  -1.031  24.569  0.00  0.00    +0.005 A 
ATOM     28  C   UNL     1      -3.913  -1.425  23.855  0.00  0.00    +0.000 A 
ATOM     29  C   UNL     1      -3.698  -2.217  23.777  0.00  0.00    +0.000 A 
ATOM     30  C   UNL     1      -3.355  -2.617  24.412  0.00  0.00    +0.000 A 
ATOM     31  C   UNL     1      -3.227  -2.224  25.126  0.00  0.00    +0.005 A 
ENDBRANCH   2  26
ENDBRANCH   4   3
TORSDOF 3
ENDMDL
