MODEL 1
REMARK VINA RESULT:     -10.2      0.000      0.000
REMARK  Name = 
REMARK  6 active torsions:
REMARK  status: ('A' for Active; 'I' for Inactive)
REMARK    1  A    between atoms: C_2  and  C_3
REMARK    2  A    between atoms: C_8  and  C_9
REMARK    3  A    between atoms: C_9  and  C_10
REMARK    4  A    between atoms: N_12  and  C_14
REMARK    5  A    between atoms: C_14  and  C_15
REMARK    6  A    between atoms: N_19  and  C_20
REMARK                            x       y       z     vdW  Elec       q    Type
REMARK                         _______ _______ _______ _____ _____    ______ ____
ROOT
ATOM      3  C   UNL     1      -3.967   1.830  24.952  0.00  0.00    +0.020 C 
ATOM      4  C   UNL     1      -3.942   1.012  24.840  0.00  0.00    +0.095 C 
ATOM      5  N   UNL     1      -3.228   0.643  24.656  0.00  0.00    -0.263 N 
ATOM      6  C   UNL     1      -2.539   1.091  24.583  0.00  0.00    +0.095 C 
ATOM      7  C   UNL     1      -2.563   1.908  24.695  0.00  0.00    +0.022 C 
ATOM      8  C   UNL     1      -3.277   2.278  24.880  0.00  0.00    +0.012 C 
ATOM     17  C   UNL     1      -3.203  -0.174  24.544  0.00  0.00    +0.327 C 
ATOM     18  O   UNL     1      -2.489  -0.543  24.360  0.00  0.00    -0.250 OA
ATOM     19  N   UNL     1      -3.892  -0.621  24.617  0.00  0.00    -0.162 NA
ENDROOT
BRANCH  19  20
ATOM     20  C   UNL     1      -3.867  -1.438  24.505  0.00  0.00    +0.075 A 
ATOM     21  C   UNL     1      -3.526  -1.923  25.078  0.00  0.00    +0.017 A 
ATOM     22  C   UNL     1      -3.502  -2.741  24.966  0.00  0.00    +0.001 A 
ATOM     23  C   UNL     1      -3.819  -3.072  24.280  0.00  0.00    +0.000 A 
ATOM     24  C   UNL     1      -4.161  -2.587  23.707  0.00  0.00    +0.001 A 
ATOM     25  C   UNL     1      -4.185  -1.770  23.820  0.00  0.00    +0.017 A 
ENDBRANCH  19  20
BRANCH   3   2
ATOM      1  C   UNL     1      -5.393   1.884  24.860  0.00  0.00    +0.000 C 
ATOM      2  C   UNL     1      -4.681   2.199  25.137  0.00  0.00    +0.002 C 
ENDBRANCH   3   2
BRANCH   8   9
ATOM      9  C   UNL     1      -3.303   3.094  24.991  0.00  0.00    +0.085 C 
BRANCH   9  10
ATOM     10  C   UNL     1      -2.683   3.476  25.380  0.00  0.00    +0.226 C 
ATOM     11  O   UNL     1      -2.298   3.104  26.007  0.00  0.00    -0.275 OA
ATOM     12  N   UNL     1      -2.450   4.231  25.141  0.00  0.00    -0.265 N 
ATOM     13  C   UNL     1      -2.835   4.603  24.514  0.00  0.00    +0.116 C 
BRANCH  12  14
ATOM     14  C   UNL     1      -1.830   4.612  25.529  0.00  0.00    +0.200 C 
BRANCH  14  15
ATOM     15  C   UNL     1      -1.348   5.141  25.117  0.00  0.00    +0.095 C 
ATOM     16  N   UNL     1      -0.867   5.669  24.705  0.00  0.00    -0.194 NA
ENDBRANCH  14  15
ENDBRANCH  12  14
ENDBRANCH   9  10
ENDBRANCH   8   9
TORSDOF 6
ENDMDL
MODEL 2
REMARK VINA RESULT:      -9.4      1.065      5.365
REMARK  Name = 
REMARK  6 active torsions:
REMARK  status: ('A' for Active; 'I' for Inactive)
REMARK    1  A    between atoms: C_2  and  C_3
REMARK    2  A    between atoms: C_8  and  C_9
REMARK    3  A    between atoms: C_9  and  C_10
REMARK    4  A    between atoms: N_12  and  C_14
REMARK    5  A    between atoms: C_14  and  C_15
REMARK    6  A    between atoms: N_19  and  C_20
REMARK                            x       y       z     vdW  Elec       q    Type
REMARK                         _______ _______ _______ _____ _____    ______ ____
ROOT
ATOM      3  C   UNL     1      -3.808   1.273  24.743  0.00  0.00    +0.020 C 
ATOM      4  C   UNL     1      -3.322   1.939  24.782  0.00  0.00    +0.095 C 
ATOM      5  N   UNL     1      -2.513   1.852  24.920  0.00  0.00    -0.263 N 
ATOM      6  C   UNL     1      -2.190   1.099  25.018  0.00  0.00    +0.095 C 
ATOM      7  C   UNL     1      -2.675   0.433  24.979  0.00  0.00    +0.022 C 
ATOM      8  C   UNL     1      -3.484   0.519  24.841  0.00  0.00    +0.012 C 
ATOM     17  C   UNL     1      -2.028   2.518  24.959  0.00  0.00    +0.327 C 
ATOM     18  O   UNL     1      -1.219   2.431  25.097  0.00  0.00    -0.250 OA
ATOM     19  N   UNL     1      -2.351   3.270  24.861  0.00  0.00    -0.162 NA
ENDROOT
BRANCH  19  20
ATOM     20  C   UNL     1      -1.866   3.936  24.900  0.00  0.00    +0.075 A 
ATOM     21  C   UNL     1      -1.128   3.933  24.531  0.00  0.00    +0.017 A 
ATOM     22  C   UNL     1      -0.643   4.599  24.570  0.00  0.00    +0.001 A 
ATOM     23  C   UNL     1      -0.897   5.269  24.979  0.00  0.00    +0.000 A 
ATOM     24  C   UNL     1      -1.635   5.273  25.349  0.00  0.00    +0.001 A 
ATOM     25  C   UNL     1      -2.119   4.606  25.309  0.00  0.00    +0.017 A 
ENDBRANCH  19  20
BRANCH   3   2
ATOM      1  C   UNL     1      -4.963   2.108  24.640  0.00  0.00    +0.000 C 
ATOM      2  C   UNL     1      -4.617   1.359  24.605  0.00  0.00    +0.002 C 
ENDBRANCH   3   2
BRANCH   8   9
ATOM      9  C   UNL     1      -3.970  -0.146  24.802  0.00  0.00    +0.085 C 
BRANCH   9  10
ATOM     10  C   UNL     1      -3.720  -0.858  25.134  0.00  0.00    +0.226 C 
ATOM     11  O   UNL     1      -3.339  -0.861  25.866  0.00  0.00    -0.275 OA
ATOM     12  N   UNL     1      -3.851  -1.568  24.734  0.00  0.00    -0.265 N 
ATOM     13  C   UNL     1      -4.232  -1.565  24.002  0.00  0.00    +0.116 C 
BRANCH  12  14
ATOM     14  C   UNL     1      -3.601  -2.281  25.066  0.00  0.00    +0.200 C 
BRANCH  14  15
ATOM     15  C   UNL     1      -3.562  -2.961  24.600  0.00  0.00    +0.095 C 
ATOM     16  N   UNL     1      -3.523  -3.641  24.135  0.00  0.00    -0.194 NA
ENDBRANCH  14  15
ENDBRANCH  12  14
ENDBRANCH   9  10
ENDBRANCH   8   9
TORSDOF 6
ENDMDL
MODEL 3
REMARK VINA RESULT:      -8.8      1.157      1.988
REMARK  Name = 
REMARK  6 active torsions:
REMARK  status: ('A' for Active; 'I' for Inactive)
REMARK    1  A    between atoms: C_2  and  C_3
REMARK    2  A    between atoms: C_8  and  C_9
REMARK    3  A    between atoms: C_9  and  C_10
REMARK    4  A    between atoms: N_12  and  C_14
REMARK    5  A    between atoms: C_14  and  C_15
REMARK    6  A    between atoms: N_19  and  C_20
REMARK                            x       y       z     vdW  Elec       q    Type
REMARK                         _______ _______ _______ _____ _____    ______ ____
ROOT
ATOM      3  C   UNL     1      -1.194   1.054  24.555  0.00  0.00    +0.020 C 
ATOM      4  C   UNL     1      -1.678   0.387  24.513  0.00  0.00    +0.095 C 
ATOM      5  N   UNL     1      -2.475   0.441  24.719  0.00  0.00    -0.263 N 
ATOM      6  C   UNL     1      -2.788   1.163  24.967  0.00  0.00    +0.095 C 
ATOM      7  C   UNL     1      -2.304   1.831  25.009  0.00  0.00    +0.022 C 
ATOM      8  C   UNL     1      -1.507   1.776  24.803  0.00  0.00    +0.012 C 
ATOM     17  C   UNL     1      -2.958  -0.225  24.677  0.00  0.00    +0.327 C 
ATOM     18  O   UNL     1      -3.755  -0.171  24.883  0.00  0.00    -0.250 OA
ATOM     19  N   UNL     1      -2.645  -0.947  24.429  0.00  0.00    -0.162 NA
ENDROOT
BRANCH  19  20
ATOM     20  C   UNL     1      -3.128  -1.614  24.387  0.00  0.00    +0.075 A 
ATOM     21  C   UNL     1      -3.726  -1.656  23.821  0.00  0.00    +0.017 A 
ATOM     22  C   UNL     1      -4.209  -2.324  23.779  0.00  0.00    +0.001 A 
ATOM     23  C   UNL     1      -4.093  -2.950  24.303  0.00  0.00    +0.000 A 
ATOM     24  C   UNL     1      -3.494  -2.908  24.870  0.00  0.00    +0.001 A 
ATOM     25  C   UNL     1      -3.012  -2.240  24.912  0.00  0.00    +0.017 A 
ENDBRANCH  19  20
BRANCH   3   2
ATOM      1  C   UNL     1      -0.141   0.399  23.843  0.00  0.00    +0.000 C 
ATOM      2  C   UNL     1      -0.397   1.000  24.349  0.00  0.00    +0.002 C 
ENDBRANCH   3   2
BRANCH   8   9
ATOM      9  C   UNL     1      -1.024   2.443  24.845  0.00  0.00    +0.085 C 
BRANCH   9  10
ATOM     10  C   UNL     1      -1.262   3.098  25.286  0.00  0.00    +0.226 C 
ATOM     11  O   UNL     1      -1.692   2.992  25.983  0.00  0.00    -0.275 OA
ATOM     12  N   UNL     1      -1.071   3.859  25.031  0.00  0.00    -0.265 N 
ATOM     13  C   UNL     1      -0.641   3.965  24.334  0.00  0.00    +0.116 C 
BRANCH  12  14
ATOM     14  C   UNL     1      -1.310   4.514  25.472  0.00  0.00    +0.200 C 
BRANCH  14  15
ATOM     15  C   UNL     1      -1.326   5.262  25.123  0.00  0.00    +0.095 C 
ATOM     16  N   UNL     1      -1.343   6.009  24.775  0.00  0.00    -0.194 NA
ENDBRANCH  14  15
ENDBRANCH  12  14
ENDBRANCH   9  10
ENDBRANCH   8   9
TORSDOF 6
ENDMDL
MODEL 4
REMARK VINA RESULT:      -8.7      2.557      4.298
REMARK  Name = 
REMARK  6 active torsions:
REMARK  status: ('A' for Active; 'I' for Inactive)
REMARK    1  A    between atoms: C_2  and  C_3
REMARK    2  A    between atoms: C_8  and  C_9
REMARK    3  A    between atoms: C_9  and  C_10
REMARK    4  A    between atoms: N_12  and  C_14
REMARK    5  A    between atoms: C_14  and  C_15
REMARK    6  A    between atoms: N_19  and  C_20
REMARK                            x       y       z     vdW  Elec       q    Type
REMARK                         _______ _______ _______ _____ _____    ______ ____
ROOT
ATOM      3  C   UNL     1      -1.767   0.366  24.796  0.00  0.00    +0.020 C 
ATOM      4  C   UNL     1      -2.490   0.753  24.892  0.00  0.00    +0.095 C 
ATOM      5  N   UNL     1      -2.697   1.374  24.390  0.00  0.00    -0.263 N 
ATOM      6  C   UNL     1      -2.179   1.609  23.791  0.00  0.00    +0.095 C 
ATOM      7  C   UNL     1      -1.456   1.223  23.694  0.00  0.00    +0.022 C 
ATOM      8  C   UNL     1      -1.250   0.602  24.197  0.00  0.00    +0.012 C 
ATOM     17  C   UNL     1      -3.419   1.759  24.486  0.00  0.00    +0.327 C 
ATOM     18  O   UNL     1      -3.625   2.381  23.984  0.00  0.00    -0.250 OA
ATOM     19  N   UNL     1      -3.935   1.524  25.084  0.00  0.00    -0.162 NA
ENDROOT
BRANCH  19  20
ATOM     20  C   UNL     1      -4.658   1.910  25.181  0.00  0.00    +0.075 A 
ATOM     21  C   UNL     1      -4.690   2.637  25.568  0.00  0.00    +0.017 A 
ATOM     22  C   UNL     1      -5.413   3.023  25.664  0.00  0.00    +0.001 A 
ATOM     23  C   UNL     1      -6.105   2.680  25.374  0.00  0.00    +0.000 A 
ATOM     24  C   UNL     1      -6.074   1.951  24.986  0.00  0.00    +0.001 A 
ATOM     25  C   UNL     1      -5.350   1.567  24.890  0.00  0.00    +0.017 A 
ENDBRANCH  19  20
BRANCH   3   2
ATOM      1  C   UNL     1      -2.149  -0.737  25.621  0.00  0.00    +0.000 C 
ATOM      2  C   UNL     1      -1.561  -0.255  25.298  0.00  0.00    +0.002 C 
ENDBRANCH   3   2
BRANCH   8   9
ATOM      9  C   UNL     1      -0.527   0.216  24.101  0.00  0.00    +0.085 C 
BRANCH   9  10
ATOM     10  C   UNL     1       0.142   0.644  23.879  0.00  0.00    +0.226 C 
ATOM     11  O   UNL     1       0.224   1.432  24.111  0.00  0.00    -0.275 OA
ATOM     12  N   UNL     1       0.729   0.284  23.423  0.00  0.00    -0.265 N 
ATOM     13  C   UNL     1       0.647  -0.503  23.191  0.00  0.00    +0.116 C 
BRANCH  12  14
ATOM     14  C   UNL     1       1.398   0.712  23.201  0.00  0.00    +0.200 C 
BRANCH  14  15
ATOM     15  C   UNL     1       2.008   0.339  22.788  0.00  0.00    +0.095 C 
ATOM     16  N   UNL     1       2.616  -0.033  22.375  0.00  0.00    -0.194 NA
ENDBRANCH  14  15
ENDBRANCH  12  14
ENDBRANCH   9  10
ENDBRANCH   8   9
TORSDOF 6
ENDMDL
MODEL 5
REMARK VINA RESULT:      -7.7      1.906      2.459
REMARK  Name = 
REMARK  6 active torsions:
REMARK  status: ('A' for Active; 'I' for Inactive)
REMARK    1  A    between atoms: C_2  and  C_3
REMARK    2  A    between atoms: C_8  and  C_9
REMARK    3  A    between atoms: C_9  and  C_10
REMARK    4  A    between atoms: N_12  and  C_14
REMARK    5  A    between atoms: C_14  and  C_15
REMARK    6  A    between atoms: N_19  and  C_20
REMARK                            x       y       z     vdW  Elec       q    Type
REMARK                         _______ _______ _______ _____ _____    ______ ____
ROOT
ATOM      3  C   UNL     1      -3.775   1.372  24.097  0.00  0.00    +0.020 C 
ATOM      4  C   UNL     1      -3.572   0.573  24.156  0.00  0.00    +0.095 C 
ATOM      5  N   UNL     1      -3.873   0.116  24.773  0.00  0.00    -0.263 N 
ATOM      6  C   UNL     1      -4.377   0.457  25.331  0.00  0.00    +0.095 C 
ATOM      7  C   UNL     1      -4.580   1.255  25.272  0.00  0.00    +0.022 C 
ATOM      8  C   UNL     1      -4.278   1.712  24.655  0.00  0.00    +0.012 C 
ATOM     17  C   UNL     1      -3.671  -0.681  24.832  0.00  0.00    +0.327 C 
ATOM     18  O   UNL     1      -3.972  -1.138  25.449  0.00  0.00    -0.250 OA
ATOM     19  N   UNL     1      -3.168  -1.021  24.274  0.00  0.00    -0.162 NA
ENDROOT
BRANCH  19  20
ATOM     20  C   UNL     1      -2.965  -1.819  24.333  0.00  0.00    +0.075 A 
ATOM     21  C   UNL     1      -3.532  -2.401  24.189  0.00  0.00    +0.017 A 
ATOM     22  C   UNL     1      -3.329  -3.198  24.247  0.00  0.00    +0.001 A 
ATOM     23  C   UNL     1      -2.559  -3.414  24.450  0.00  0.00    +0.000 A 
ATOM     24  C   UNL     1      -1.991  -2.832  24.594  0.00  0.00    +0.001 A 
ATOM     25  C   UNL     1      -2.195  -2.035  24.535  0.00  0.00    +0.017 A 
ENDBRANCH  19  20
BRANCH   3   2
ATOM      1  C   UNL     1      -2.764   1.615  23.115  0.00  0.00    +0.000 C 
ATOM      2  C   UNL     1      -3.473   1.829  23.479  0.00  0.00    +0.002 C 
ENDBRANCH   3   2
BRANCH   8   9
ATOM      9  C   UNL     1      -4.480   2.509  24.596  0.00  0.00    +0.085 C 
BRANCH   9  10
ATOM     10  C   UNL     1      -5.171   2.787  24.952  0.00  0.00    +0.226 C 
ATOM     11  O   UNL     1      -5.851   2.320  24.953  0.00  0.00    -0.275 OA
ATOM     12  N   UNL     1      -5.180   3.532  25.308  0.00  0.00    -0.265 N 
ATOM     13  C   UNL     1      -4.500   3.998  25.307  0.00  0.00    +0.116 C 
BRANCH  12  14
ATOM     14  C   UNL     1      -5.871   3.809  25.664  0.00  0.00    +0.200 C 
BRANCH  14  15
ATOM     15  C   UNL     1      -6.048   4.615  25.647  0.00  0.00    +0.095 C 
ATOM     16  N   UNL     1      -6.226   5.420  25.629  0.00  0.00    -0.194 NA
ENDBRANCH  14  15
ENDBRANCH  12  14
ENDBRANCH   9  10
ENDBRANCH   8   9
TORSDOF 6
ENDMDL
