MODEL 1
REMARK VINA RESULT:     -11.0      0.000      0.000
REMARK  Name = 
REMARK  7 active torsions:
REMARK  status: ('A' for Active; 'I' for Inactive)
REMARK    1  A    between atoms: O_2  and  C_3
REMARK    2  A    between atoms: C_3  and  C_5
REMARK    3  A    between atoms: C_5  and  O_6
REMARK    4  A    between atoms: O_6  and  C_7
REMARK    5  A    between atoms: C_7  and  C_8
REMARK    6  A    between atoms: C_15  and  C_16
REMARK    7  A    between atoms: C_18  and  C_21
REMARK                            x       y       z     vdW  Elec       q    Type
REMARK                         _______ _______ _______ _____ _____    ______ ____
ROOT
ATOM      8  C   UNL     1      -2.697   2.075  24.779  0.00  0.00    +0.256 C 
ATOM      9  O   UNL     1      -2.498   1.359  24.421  0.00  0.00    -0.272 OA
ATOM     10  N   UNL     1      -3.490   2.270  24.897  0.00  0.00    -0.265 N 
ATOM     11  C   UNL     1      -3.689   2.986  25.255  0.00  0.00    +0.141 C 
ATOM     12  C   UNL     1      -4.482   3.183  25.373  0.00  0.00    +0.094 A 
ATOM     13  C   UNL     1      -5.076   2.662  25.133  0.00  0.00    +0.078 A 
ATOM     14  C   UNL     1      -4.877   1.946  24.775  0.00  0.00    +0.077 C 
ATOM     15  C   UNL     1      -4.083   1.750  24.657  0.00  0.00    +0.161 C 
ATOM     29  N   UNL     1      -5.804   3.002  25.320  0.00  0.00    -0.227 NA
ATOM     30  C   UNL     1      -5.660   3.732  25.676  0.00  0.00    +0.198 A 
ATOM     31  N   UNL     1      -4.843   3.843  25.709  0.00  0.00    -0.225 NA
ENDROOT
BRANCH  15  16
ATOM     16  C   UNL     1      -3.884   1.034  24.299  0.00  0.00    +0.255 A 
ATOM     17  N   UNL     1      -3.984   0.284  24.627  0.00  0.00    -0.189 NA
ATOM     18  C   UNL     1      -3.712  -0.272  24.081  0.00  0.00    +0.203 A 
ATOM     19  N   UNL     1      -3.444   0.136  23.415  0.00  0.00    -0.056 NA
ATOM     20  O   UNL     1      -3.551   0.943  23.550  0.00  0.00    -0.335 OA
BRANCH  18  21
ATOM     21  C   UNL     1      -3.708  -1.090  24.183  0.00  0.00    +0.040 A 
ATOM     22  C   UNL     1      -4.322  -1.547  23.876  0.00  0.00    +0.006 A 
ATOM     23  C   UNL     1      -4.318  -2.366  23.978  0.00  0.00    +0.031 A 
ATOM     24  C   UNL     1      -3.700  -2.728  24.386  0.00  0.00    +0.151 A 
ATOM     25  F   UNL     1      -3.696  -3.547  24.489  0.00  0.00    -0.203 F 
ATOM     26  C   UNL     1      -3.085  -2.271  24.694  0.00  0.00    +0.085 A 
ATOM     27 CL   UNL     1      -2.467  -2.632  25.103  0.00  0.00    -0.080 Cl
ATOM     28  C   UNL     1      -3.089  -1.452  24.592  0.00  0.00    +0.017 A 
ENDBRANCH  18  21
ENDBRANCH  15  16
BRANCH   8   7
ATOM      7  C   UNL     1      -2.104   2.595  25.019  0.00  0.00    +0.228 C 
BRANCH   7   6
ATOM      6  O   UNL     1      -1.344   2.312  25.169  0.00  0.00    -0.333 OA
BRANCH   6   5
ATOM      5  C   UNL     1      -0.774   2.812  25.496  0.00  0.00    +0.252 C 
BRANCH   5   3
ATOM      3  C   UNL     1      -0.096   2.496  25.843  0.00  0.00    +0.348 C 
ATOM      4  O   UNL     1       0.539   2.264  25.370  0.00  0.00    -0.247 OA
BRANCH   3   2
ATOM      1  C   UNL     1       0.647   2.592  27.059  0.00  0.00    +0.256 C 
ATOM      2  O   UNL     1      -0.053   2.411  26.662  0.00  0.00    -0.443 OA
ENDBRANCH   3   2
ENDBRANCH   5   3
ENDBRANCH   6   5
ENDBRANCH   7   6
ENDBRANCH   8   7
TORSDOF 7
ENDMDL
MODEL 2
REMARK VINA RESULT:     -10.6      3.353      5.199
REMARK  Name = 
REMARK  7 active torsions:
REMARK  status: ('A' for Active; 'I' for Inactive)
REMARK    1  A    between atoms: O_2  and  C_3
REMARK    2  A    between atoms: C_3  and  C_5
REMARK    3  A    between atoms: C_5  and  O_6
REMARK    4  A    between atoms: O_6  and  C_7
REMARK    5  A    between atoms: C_7  and  C_8
REMARK    6  A    between atoms: C_15  and  C_16
REMARK    7  A    between atoms: C_18  and  C_21
REMARK                            x       y       z     vdW  Elec       q    Type
REMARK                         _______ _______ _______ _____ _____    ______ ____
ROOT
ATOM      8  C   UNL     1      -0.354   0.212  24.277  0.00  0.00    +0.256 C 
ATOM      9  O   UNL     1      -0.115   0.967  24.509  0.00  0.00    -0.272 OA
ATOM     10  N   UNL     1      -1.034  -0.123  24.603  0.00  0.00    -0.265 N 
ATOM     11  C   UNL     1      -1.273  -0.878  24.371  0.00  0.00    +0.141 C 
ATOM     12  C   UNL     1      -1.954  -1.213  24.696  0.00  0.00    +0.094 A 
ATOM     13  C   UNL     1      -2.395  -0.792  25.252  0.00  0.00    +0.078 A 
ATOM     14  C   UNL     1      -2.157  -0.037  25.483  0.00  0.00    +0.077 C 
ATOM     15  C   UNL     1      -1.476   0.297  25.158  0.00  0.00    +0.161 C 
ATOM     29  N   UNL     1      -3.037  -1.261  25.475  0.00  0.00    -0.227 NA
ATOM     30  C   UNL     1      -2.991  -1.971  25.057  0.00  0.00    +0.198 A 
ATOM     31  N   UNL     1      -2.322  -1.940  24.576  0.00  0.00    -0.225 NA
ENDROOT
BRANCH  15  16
ATOM     16  C   UNL     1      -1.237   1.052  25.389  0.00  0.00    +0.255 A 
ATOM     17  N   UNL     1      -1.600   1.762  25.175  0.00  0.00    -0.189 NA
ATOM     18  C   UNL     1      -1.181   2.379  25.529  0.00  0.00    +0.203 A 
ATOM     19  N   UNL     1      -0.559   2.051  25.961  0.00  0.00    -0.056 NA
ATOM     20  O   UNL     1      -0.595   1.230  25.875  0.00  0.00    -0.335 OA
BRANCH  18  21
ATOM     21  C   UNL     1      -1.353   3.183  25.461  0.00  0.00    +0.040 A 
ATOM     22  C   UNL     1      -2.060   3.480  25.764  0.00  0.00    +0.006 A 
ATOM     23  C   UNL     1      -2.231   4.285  25.696  0.00  0.00    +0.031 A 
ATOM     24  C   UNL     1      -1.696   4.791  25.326  0.00  0.00    +0.151 A 
ATOM     25  F   UNL     1      -1.868   5.596  25.259  0.00  0.00    -0.203 F 
ATOM     26  C   UNL     1      -0.988   4.494  25.023  0.00  0.00    +0.085 A 
ATOM     27 CL   UNL     1      -0.453   5.001  24.653  0.00  0.00    -0.080 Cl
ATOM     28  C   UNL     1      -0.816   3.690  25.091  0.00  0.00    +0.017 A 
ENDBRANCH  18  21
ENDBRANCH  15  16
BRANCH   8   7
ATOM      7  C   UNL     1       0.088  -0.208  23.722  0.00  0.00    +0.228 C 
BRANCH   7   6
ATOM      6  O   UNL     1       0.720   0.156  23.338  0.00  0.00    -0.333 OA
BRANCH   6   5
ATOM      5  C   UNL     1       1.364  -0.294  23.085  0.00  0.00    +0.252 C 
BRANCH   5   3
ATOM      3  C   UNL     1       1.895   0.016  22.535  0.00  0.00    +0.348 C 
ATOM      4  O   UNL     1       1.775  -0.111  21.729  0.00  0.00    -0.247 OA
BRANCH   3   2
ATOM      1  C   UNL     1       3.262   0.402  22.386  0.00  0.00    +0.256 C 
ATOM      2  O   UNL     1       2.546   0.453  22.791  0.00  0.00    -0.443 OA
ENDBRANCH   3   2
ENDBRANCH   5   3
ENDBRANCH   6   5
ENDBRANCH   7   6
ENDBRANCH   8   7
TORSDOF 7
ENDMDL
MODEL 3
REMARK VINA RESULT:     -10.4      2.604      4.428
REMARK  Name = 
REMARK  7 active torsions:
REMARK  status: ('A' for Active; 'I' for Inactive)
REMARK    1  A    between atoms: O_2  and  C_3
REMARK    2  A    between atoms: C_3  and  C_5
REMARK    3  A    between atoms: C_5  and  O_6
REMARK    4  A    between atoms: O_6  and  C_7
REMARK    5  A    between atoms: C_7  and  C_8
REMARK    6  A    between atoms: C_15  and  C_16
REMARK    7  A    between atoms: C_18  and  C_21
REMARK                            x       y       z     vdW  Elec       q    Type
REMARK                         _______ _______ _______ _____ _____    ______ ____
ROOT
ATOM      8  C   UNL     1      -1.939  -0.065  24.367  0.00  0.00    +0.256 C 
ATOM      9  O   UNL     1      -2.177   0.719  24.270  0.00  0.00    -0.272 OA
ATOM     10  N   UNL     1      -2.502  -0.668  24.383  0.00  0.00    -0.265 N 
ATOM     11  C   UNL     1      -2.264  -1.451  24.480  0.00  0.00    +0.141 C 
ATOM     12  C   UNL     1      -2.826  -2.055  24.497  0.00  0.00    +0.094 A 
ATOM     13  C   UNL     1      -3.628  -1.874  24.417  0.00  0.00    +0.078 A 
ATOM     14  C   UNL     1      -3.866  -1.090  24.320  0.00  0.00    +0.077 C 
ATOM     15  C   UNL     1      -3.303  -0.487  24.303  0.00  0.00    +0.161 C 
ATOM     29  N   UNL     1      -4.054  -2.579  24.455  0.00  0.00    -0.227 NA
ATOM     30  C   UNL     1      -3.515  -3.196  24.558  0.00  0.00    +0.198 A 
ATOM     31  N   UNL     1      -2.758  -2.872  24.584  0.00  0.00    -0.225 NA
ENDROOT
BRANCH  15  16
ATOM     16  C   UNL     1      -3.541   0.297  24.207  0.00  0.00    +0.255 A 
ATOM     17  N   UNL     1      -3.936   0.756  24.767  0.00  0.00    -0.189 NA
ATOM     18  C   UNL     1      -4.065   1.503  24.440  0.00  0.00    +0.203 A 
ATOM     19  N   UNL     1      -3.750   1.504  23.677  0.00  0.00    -0.056 NA
ATOM     20  O   UNL     1      -3.426   0.759  23.533  0.00  0.00    -0.335 OA
BRANCH  18  21
ATOM     21  C   UNL     1      -4.443   2.136  24.810  0.00  0.00    +0.040 A 
ATOM     22  C   UNL     1      -5.264   2.137  24.889  0.00  0.00    +0.006 A 
ATOM     23  C   UNL     1      -5.641   2.771  25.260  0.00  0.00    +0.031 A 
ATOM     24  C   UNL     1      -5.198   3.402  25.550  0.00  0.00    +0.151 A 
ATOM     25  F   UNL     1      -5.576   4.036  25.921  0.00  0.00    -0.203 F 
ATOM     26  C   UNL     1      -4.376   3.402  25.471  0.00  0.00    +0.085 A 
ATOM     27 CL   UNL     1      -3.933   4.033  25.762  0.00  0.00    -0.080 Cl
ATOM     28  C   UNL     1      -3.999   2.768  25.100  0.00  0.00    +0.017 A 
ENDBRANCH  18  21
ENDBRANCH  15  16
BRANCH   8   7
ATOM      7  C   UNL     1      -1.139  -0.245  24.447  0.00  0.00    +0.228 C 
BRANCH   7   6
ATOM      6  O   UNL     1      -0.573   0.202  24.048  0.00  0.00    -0.333 OA
BRANCH   6   5
ATOM      5  C   UNL     1       0.198  -0.081  23.968  0.00  0.00    +0.252 C 
BRANCH   5   3
ATOM      3  C   UNL     1       0.734   0.310  23.478  0.00  0.00    +0.348 C 
ATOM      4  O   UNL     1       0.930   1.097  23.628  0.00  0.00    -0.247 OA
BRANCH   3   2
ATOM      1  C   UNL     1       1.866   0.044  22.649  0.00  0.00    +0.256 C 
ATOM      2  O   UNL     1       1.074  -0.084  22.839  0.00  0.00    -0.443 OA
ENDBRANCH   3   2
ENDBRANCH   5   3
ENDBRANCH   6   5
ENDBRANCH   7   6
ENDBRANCH   8   7
TORSDOF 7
ENDMDL
MODEL 4
REMARK VINA RESULT:     -10.3      2.281      3.002
REMARK  Name = 
REMARK  7 active torsions:
REMARK  status: ('A' for Active; 'I' for Inactive)
REMARK    1  A    between atoms: O_2  and  C_3
REMARK    2  A    between atoms: C_3  and  C_5
REMARK    3  A    between atoms: C_5  and  O_6
REMARK    4  A    between atoms: O_6  and  C_7
REMARK    5  A    between atoms: C_7  and  C_8
REMARK    6  A    between atoms: C_15  and  C_16
REMARK    7  A    between atoms: C_18  and  C_21
REMARK                            x       y       z     vdW  Elec       q    Type
REMARK                         _______ _______ _______ _____ _____    ______ ____
ROOT
ATOM      8  C   UNL     1      -0.444   1.026  24.334  0.00  0.00    +0.256 C 
ATOM      9  O   UNL     1      -0.725   0.253  24.408  0.00  0.00    -0.272 OA
ATOM     10  N   UNL     1      -0.877   1.653  24.651  0.00  0.00    -0.265 N 
ATOM     11  C   UNL     1      -0.597   2.425  24.577  0.00  0.00    +0.141 C 
ATOM     12  C   UNL     1      -1.029   3.053  24.893  0.00  0.00    +0.094 A 
ATOM     13  C   UNL     1      -1.742   2.908  25.283  0.00  0.00    +0.078 A 
ATOM     14  C   UNL     1      -2.022   2.136  25.356  0.00  0.00    +0.077 C 
ATOM     15  C   UNL     1      -1.589   1.508  25.040  0.00  0.00    +0.161 C 
ATOM     29  N   UNL     1      -2.046   3.632  25.536  0.00  0.00    -0.227 NA
ATOM     30  C   UNL     1      -1.521   4.224  25.303  0.00  0.00    +0.198 A 
ATOM     31  N   UNL     1      -0.893   3.866  24.906  0.00  0.00    -0.225 NA
ENDROOT
BRANCH  15  16
ATOM     16  C   UNL     1      -1.870   0.736  25.114  0.00  0.00    +0.255 A 
ATOM     17  N   UNL     1      -2.470   0.393  24.663  0.00  0.00    -0.189 NA
ATOM     18  C   UNL     1      -2.571  -0.384  24.922  0.00  0.00    +0.203 A 
ATOM     19  N   UNL     1      -2.032  -0.522  25.531  0.00  0.00    -0.056 NA
ATOM     20  O   UNL     1      -1.599   0.171  25.650  0.00  0.00    -0.335 OA
BRANCH  18  21
ATOM     21  C   UNL     1      -3.114  -0.928  24.623  0.00  0.00    +0.040 A 
ATOM     22  C   UNL     1      -3.761  -0.666  24.184  0.00  0.00    +0.006 A 
ATOM     23  C   UNL     1      -4.305  -1.211  23.885  0.00  0.00    +0.031 A 
ATOM     24  C   UNL     1      -4.200  -2.017  24.025  0.00  0.00    +0.151 A 
ATOM     25  F   UNL     1      -4.744  -2.562  23.725  0.00  0.00    -0.203 F 
ATOM     26  C   UNL     1      -3.552  -2.280  24.463  0.00  0.00    +0.085 A 
ATOM     27 CL   UNL     1      -3.448  -3.085  24.603  0.00  0.00    -0.080 Cl
ATOM     28  C   UNL     1      -3.009  -1.735  24.762  0.00  0.00    +0.017 A 
ENDBRANCH  18  21
ENDBRANCH  15  16
BRANCH   8   7
ATOM      7  C   UNL     1       0.268   1.170  23.945  0.00  0.00    +0.228 C 
BRANCH   7   6
ATOM      6  O   UNL     1       0.626   0.572  23.505  0.00  0.00    -0.333 OA
BRANCH   6   5
ATOM      5  C   UNL     1       1.348   0.711  23.131  0.00  0.00    +0.252 C 
BRANCH   5   3
ATOM      3  C   UNL     1       1.709   0.112  22.692  0.00  0.00    +0.348 C 
ATOM      4  O   UNL     1       1.291  -0.265  22.089  0.00  0.00    -0.247 OA
BRANCH   3   2
ATOM      1  C   UNL     1       3.096   0.125  22.355  0.00  0.00    +0.256 C 
ATOM      2  O   UNL     1       2.485  -0.110  22.856  0.00  0.00    -0.443 OA
ENDBRANCH   3   2
ENDBRANCH   5   3
ENDBRANCH   6   5
ENDBRANCH   7   6
ENDBRANCH   8   7
TORSDOF 7
ENDMDL
MODEL 5
REMARK VINA RESULT:      -9.8      3.332      5.967
REMARK  Name = 
REMARK  7 active torsions:
REMARK  status: ('A' for Active; 'I' for Inactive)
REMARK    1  A    between atoms: O_2  and  C_3
REMARK    2  A    between atoms: C_3  and  C_5
REMARK    3  A    between atoms: C_5  and  O_6
REMARK    4  A    between atoms: O_6  and  C_7
REMARK    5  A    between atoms: C_7  and  C_8
REMARK    6  A    between atoms: C_15  and  C_16
REMARK    7  A    between atoms: C_18  and  C_21
REMARK                            x       y       z     vdW  Elec       q    Type
REMARK                         _______ _______ _______ _____ _____    ______ ____
ROOT
ATOM      8  C   UNL     1      -0.927   0.276  24.636  0.00  0.00    +0.256 C 
ATOM      9  O   UNL     1      -1.205   0.865  25.143  0.00  0.00    -0.272 OA
ATOM     10  N   UNL     1      -0.236   0.399  24.203  0.00  0.00    -0.265 N 
ATOM     11  C   UNL     1       0.042  -0.190  23.696  0.00  0.00    +0.141 C 
ATOM     12  C   UNL     1       0.733  -0.069  23.262  0.00  0.00    +0.094 A 
ATOM     13  C   UNL     1       1.147   0.642  23.336  0.00  0.00    +0.078 A 
ATOM     14  C   UNL     1       0.869   1.231  23.843  0.00  0.00    +0.077 C 
ATOM     15  C   UNL     1       0.177   1.108  24.276  0.00  0.00    +0.161 C 
ATOM     29  N   UNL     1       1.807   0.605  22.842  0.00  0.00    -0.227 NA
ATOM     30  C   UNL     1       1.801  -0.128  22.463  0.00  0.00    +0.198 A 
ATOM     31  N   UNL     1       1.138  -0.544  22.723  0.00  0.00    -0.225 NA
ENDROOT
BRANCH  15  16
ATOM     16  C   UNL     1      -0.101   1.697  24.783  0.00  0.00    +0.255 A 
ATOM     17  N   UNL     1      -0.457   2.405  24.554  0.00  0.00    -0.189 NA
ATOM     18  C   UNL     1      -0.648   2.827  25.237  0.00  0.00    +0.203 A 
ATOM     19  N   UNL     1      -0.409   2.379  25.888  0.00  0.00    -0.056 NA
ATOM     20  O   UNL     1      -0.071   1.681  25.607  0.00  0.00    -0.335 OA
BRANCH  18  21
ATOM     21  C   UNL     1      -1.013   3.566  25.265  0.00  0.00    +0.040 A 
ATOM     22  C   UNL     1      -0.639   4.223  24.936  0.00  0.00    +0.006 A 
ATOM     23  C   UNL     1      -1.005   4.963  24.963  0.00  0.00    +0.031 A 
ATOM     24  C   UNL     1      -1.744   5.045  25.320  0.00  0.00    +0.151 A 
ATOM     25  F   UNL     1      -2.109   5.784  25.348  0.00  0.00    -0.203 F 
ATOM     26  C   UNL     1      -2.118   4.387  25.650  0.00  0.00    +0.085 A 
ATOM     27 CL   UNL     1      -2.857   4.469  26.006  0.00  0.00    -0.080 Cl
ATOM     28  C   UNL     1      -1.753   3.647  25.622  0.00  0.00    +0.017 A 
ENDBRANCH  18  21
ENDBRANCH  15  16
BRANCH   8   7
ATOM      7  C   UNL     1      -1.340  -0.433  24.563  0.00  0.00    +0.228 C 
BRANCH   7   6
ATOM      6  O   UNL     1      -2.139  -0.469  24.766  0.00  0.00    -0.333 OA
BRANCH   6   5
ATOM      5  C   UNL     1      -2.555  -1.176  24.682  0.00  0.00    +0.252 C 
BRANCH   5   3
ATOM      3  C   UNL     1      -3.379  -1.180  24.736  0.00  0.00    +0.348 C 
ATOM      4  O   UNL     1      -3.744  -1.106  25.472  0.00  0.00    -0.247 OA
BRANCH   3   2
ATOM      1  C   UNL     1      -4.310  -1.924  23.950  0.00  0.00    +0.256 C 
ATOM      2  O   UNL     1      -3.836  -1.258  24.054  0.00  0.00    -0.443 OA
ENDBRANCH   3   2
ENDBRANCH   5   3
ENDBRANCH   6   5
ENDBRANCH   7   6
ENDBRANCH   8   7
TORSDOF 7
ENDMDL
MODEL 6
REMARK VINA RESULT:      -9.7      2.502      3.971
REMARK  Name = 
REMARK  7 active torsions:
REMARK  status: ('A' for Active; 'I' for Inactive)
REMARK    1  A    between atoms: O_2  and  C_3
REMARK    2  A    between atoms: C_3  and  C_5
REMARK    3  A    between atoms: C_5  and  O_6
REMARK    4  A    between atoms: O_6  and  C_7
REMARK    5  A    between atoms: C_7  and  C_8
REMARK    6  A    between atoms: C_15  and  C_16
REMARK    7  A    between atoms: C_18  and  C_21
REMARK                            x       y       z     vdW  Elec       q    Type
REMARK                         _______ _______ _______ _____ _____    ______ ____
ROOT
ATOM      8  C   UNL     1      -0.541   1.245  24.845  0.00  0.00    +0.256 C 
ATOM      9  O   UNL     1      -1.211   0.892  25.174  0.00  0.00    -0.272 OA
ATOM     10  N   UNL     1      -0.055   0.812  24.338  0.00  0.00    -0.265 N 
ATOM     11  C   UNL     1       0.615   1.165  24.009  0.00  0.00    +0.141 C 
ATOM     12  C   UNL     1       1.102   0.733  23.502  0.00  0.00    +0.094 A 
ATOM     13  C   UNL     1       0.919  -0.052  23.323  0.00  0.00    +0.078 A 
ATOM     14  C   UNL     1       0.249  -0.404  23.652  0.00  0.00    +0.077 C 
ATOM     15  C   UNL     1      -0.237   0.028  24.159  0.00  0.00    +0.161 C 
ATOM     29  N   UNL     1       1.497  -0.338  22.809  0.00  0.00    -0.227 NA
ATOM     30  C   UNL     1       2.037   0.271  22.670  0.00  0.00    +0.198 A 
ATOM     31  N   UNL     1       1.793   0.931  23.099  0.00  0.00    -0.225 NA
ENDROOT
BRANCH  15  16
ATOM     16  C   UNL     1      -0.907  -0.324  24.488  0.00  0.00    +0.255 A 
ATOM     17  N   UNL     1      -1.579  -0.567  24.075  0.00  0.00    -0.189 NA
ATOM     18  C   UNL     1      -2.110  -0.889  24.619  0.00  0.00    +0.203 A 
ATOM     19  N   UNL     1      -1.766  -0.845  25.368  0.00  0.00    -0.056 NA
ATOM     20  O   UNL     1      -1.022  -0.496  25.286  0.00  0.00    -0.335 OA
BRANCH  18  21
ATOM     21  C   UNL     1      -2.854  -1.199  24.445  0.00  0.00    +0.040 A 
ATOM     22  C   UNL     1      -3.484  -0.694  24.279  0.00  0.00    +0.006 A 
ATOM     23  C   UNL     1      -4.228  -1.005  24.104  0.00  0.00    +0.031 A 
ATOM     24  C   UNL     1      -4.342  -1.821  24.096  0.00  0.00    +0.151 A 
ATOM     25  F   UNL     1      -5.086  -2.133  23.922  0.00  0.00    -0.203 F 
ATOM     26  C   UNL     1      -3.712  -2.328  24.263  0.00  0.00    +0.085 A 
ATOM     27 CL   UNL     1      -3.826  -3.144  24.255  0.00  0.00    -0.080 Cl
ATOM     28  C   UNL     1      -2.968  -2.017  24.437  0.00  0.00    +0.017 A 
ENDBRANCH  18  21
ENDBRANCH  15  16
BRANCH   8   7
ATOM      7  C   UNL     1      -0.358   2.028  25.024  0.00  0.00    +0.228 C 
BRANCH   7   6
ATOM      6  O   UNL     1      -0.958   2.556  25.227  0.00  0.00    -0.333 OA
BRANCH   6   5
ATOM      5  C   UNL     1      -0.770   3.296  25.540  0.00  0.00    +0.252 C 
BRANCH   5   3
ATOM      3  C   UNL     1      -1.307   3.919  25.481  0.00  0.00    +0.348 C 
ATOM      4  O   UNL     1      -2.023   3.887  25.890  0.00  0.00    -0.247 OA
BRANCH   3   2
ATOM      1  C   UNL     1      -1.534   5.283  25.124  0.00  0.00    +0.256 C 
ATOM      2  O   UNL     1      -1.129   4.574  25.012  0.00  0.00    -0.443 OA
ENDBRANCH   3   2
ENDBRANCH   5   3
ENDBRANCH   6   5
ENDBRANCH   7   6
ENDBRANCH   8   7
TORSDOF 7
ENDMDL
MODEL 7
REMARK VINA RESULT:      -9.5      1.831      3.572
REMARK  Name = 
REMARK  7 active torsions:
REMARK  status: ('A' for Active; 'I' for Inactive)
REMARK    1  A    between atoms: O_2  and  C_3
REMARK    2  A    between atoms: C_3  and  C_5
REMARK    3  A    between atoms: C_5  and  O_6
REMARK    4  A    between atoms: O_6  and  C_7
REMARK    5  A    between atoms: C_7  and  C_8
REMARK    6  A    between atoms: C_15  and  C_16
REMARK    7  A    between atoms: C_18  and  C_21
REMARK                            x       y       z     vdW  Elec       q    Type
REMARK                         _______ _______ _______ _____ _____    ______ ____
ROOT
ATOM      8  C   UNL     1      -2.751   1.723  24.981  0.00  0.00    +0.256 C 
ATOM      9  O   UNL     1      -3.157   1.043  25.212  0.00  0.00    -0.272 OA
ATOM     10  N   UNL     1      -1.943   1.686  24.817  0.00  0.00    -0.265 N 
ATOM     11  C   UNL     1      -1.538   2.367  24.587  0.00  0.00    +0.141 C 
ATOM     12  C   UNL     1      -0.730   2.331  24.422  0.00  0.00    +0.094 A 
ATOM     13  C   UNL     1      -0.328   1.613  24.488  0.00  0.00    +0.078 A 
ATOM     14  C   UNL     1      -0.733   0.932  24.718  0.00  0.00    +0.077 C 
ATOM     15  C   UNL     1      -1.541   0.969  24.882  0.00  0.00    +0.161 C 
ATOM     29  N   UNL     1       0.462   1.745  24.291  0.00  0.00    -0.227 NA
ATOM     30  C   UNL     1       0.548   2.544  24.104  0.00  0.00    +0.198 A 
ATOM     31  N   UNL     1      -0.189   2.905  24.185  0.00  0.00    -0.225 NA
ENDROOT
BRANCH  15  16
ATOM     16  C   UNL     1      -1.947   0.289  25.113  0.00  0.00    +0.255 A 
ATOM     17  N   UNL     1      -2.238  -0.296  24.608  0.00  0.00    -0.189 NA
ATOM     18  C   UNL     1      -2.603  -0.873  25.072  0.00  0.00    +0.203 A 
ATOM     19  N   UNL     1      -2.538  -0.645  25.862  0.00  0.00    -0.056 NA
ATOM     20  O   UNL     1      -2.132   0.073  25.887  0.00  0.00    -0.335 OA
BRANCH  18  21
ATOM     21  C   UNL     1      -2.969  -1.558  24.793  0.00  0.00    +0.040 A 
ATOM     22  C   UNL     1      -2.657  -2.298  24.980  0.00  0.00    +0.006 A 
ATOM     23  C   UNL     1      -3.024  -2.983  24.701  0.00  0.00    +0.031 A 
ATOM     24  C   UNL     1      -3.702  -2.927  24.236  0.00  0.00    +0.151 A 
ATOM     25  F   UNL     1      -4.069  -3.612  23.957  0.00  0.00    -0.203 F 
ATOM     26  C   UNL     1      -4.016  -2.187  24.049  0.00  0.00    +0.085 A 
ATOM     27 CL   UNL     1      -4.694  -2.132  23.584  0.00  0.00    -0.080 Cl
ATOM     28  C   UNL     1      -3.649  -1.502  24.328  0.00  0.00    +0.017 A 
ENDBRANCH  18  21
ENDBRANCH  15  16
BRANCH   8   7
ATOM      7  C   UNL     1      -3.153   2.440  24.916  0.00  0.00    +0.228 C 
BRANCH   7   6
ATOM      6  O   UNL     1      -3.953   2.484  25.112  0.00  0.00    -0.333 OA
BRANCH   6   5
ATOM      5  C   UNL     1      -4.367   3.189  25.003  0.00  0.00    +0.252 C 
BRANCH   5   3
ATOM      3  C   UNL     1      -5.135   3.267  25.293  0.00  0.00    +0.348 C 
ATOM      4  O   UNL     1      -5.710   2.711  25.091  0.00  0.00    -0.247 OA
BRANCH   3   2
ATOM      1  C   UNL     1      -6.027   4.321  25.659  0.00  0.00    +0.256 C 
ATOM      2  O   UNL     1      -5.329   3.900  25.785  0.00  0.00    -0.443 OA
ENDBRANCH   3   2
ENDBRANCH   5   3
ENDBRANCH   6   5
ENDBRANCH   7   6
ENDBRANCH   8   7
TORSDOF 7
ENDMDL
MODEL 8
REMARK VINA RESULT:      -9.4      2.046      3.628
REMARK  Name = 
REMARK  7 active torsions:
REMARK  status: ('A' for Active; 'I' for Inactive)
REMARK    1  A    between atoms: O_2  and  C_3
REMARK    2  A    between atoms: C_3  and  C_5
REMARK    3  A    between atoms: C_5  and  O_6
REMARK    4  A    between atoms: O_6  and  C_7
REMARK    5  A    between atoms: C_7  and  C_8
REMARK    6  A    between atoms: C_15  and  C_16
REMARK    7  A    between atoms: C_18  and  C_21
REMARK                            x       y       z     vdW  Elec       q    Type
REMARK                         _______ _______ _______ _____ _____    ______ ____
ROOT
ATOM      8  C   UNL     1      -3.204   2.620  24.697  0.00  0.00    +0.256 C 
ATOM      9  O   UNL     1      -3.197   1.830  24.461  0.00  0.00    -0.272 OA
ATOM     10  N   UNL     1      -2.500   3.049  24.720  0.00  0.00    -0.265 N 
ATOM     11  C   UNL     1      -2.507   3.840  24.956  0.00  0.00    +0.141 C 
ATOM     12  C   UNL     1      -1.804   4.270  24.981  0.00  0.00    +0.094 A 
ATOM     13  C   UNL     1      -1.092   3.908  24.769  0.00  0.00    +0.078 A 
ATOM     14  C   UNL     1      -1.085   3.118  24.533  0.00  0.00    +0.077 C 
ATOM     15  C   UNL     1      -1.790   2.689  24.509  0.00  0.00    +0.161 C 
ATOM     29  N   UNL     1      -0.490   4.467  24.846  0.00  0.00    -0.227 NA
ATOM     30  C   UNL     1      -0.829   5.173  25.106  0.00  0.00    +0.198 A 
ATOM     31  N   UNL     1      -1.640   5.050  25.189  0.00  0.00    -0.225 NA
ENDROOT
BRANCH  15  16
ATOM     16  C   UNL     1      -1.782   1.898  24.273  0.00  0.00    +0.255 A 
ATOM     17  N   UNL     1      -1.552   1.256  24.737  0.00  0.00    -0.189 NA
ATOM     18  C   UNL     1      -1.631   0.571  24.282  0.00  0.00    +0.203 A 
ATOM     19  N   UNL     1      -1.911   0.791  23.538  0.00  0.00    -0.056 NA
ATOM     20  O   UNL     1      -2.005   1.611  23.532  0.00  0.00    -0.335 OA
BRANCH  18  21
ATOM     21  C   UNL     1      -1.461  -0.197  24.529  0.00  0.00    +0.040 A 
ATOM     22  C   UNL     1      -0.689  -0.404  24.730  0.00  0.00    +0.006 A 
ATOM     23  C   UNL     1      -0.519  -1.173  24.977  0.00  0.00    +0.031 A 
ATOM     24  C   UNL     1      -1.121  -1.734  25.023  0.00  0.00    +0.151 A 
ATOM     25  F   UNL     1      -0.951  -2.503  25.270  0.00  0.00    -0.203 F 
ATOM     26  C   UNL     1      -1.895  -1.528  24.822  0.00  0.00    +0.085 A 
ATOM     27 CL   UNL     1      -2.497  -2.089  24.867  0.00  0.00    -0.080 Cl
ATOM     28  C   UNL     1      -2.064  -0.758  24.575  0.00  0.00    +0.017 A 
ENDBRANCH  18  21
ENDBRANCH  15  16
BRANCH   8   7
ATOM      7  C   UNL     1      -3.915   2.980  24.908  0.00  0.00    +0.228 C 
BRANCH   7   6
ATOM      6  O   UNL     1      -4.589   2.522  25.032  0.00  0.00    -0.333 OA
BRANCH   6   5
ATOM      5  C   UNL     1      -5.265   2.863  25.360  0.00  0.00    +0.252 C 
BRANCH   5   3
ATOM      3  C   UNL     1      -5.892   2.385  25.605  0.00  0.00    +0.348 C 
ATOM      4  O   UNL     1      -6.312   1.940  25.052  0.00  0.00    -0.247 OA
BRANCH   3   2
ATOM      1  C   UNL     1      -6.579   1.741  26.679  0.00  0.00    +0.256 C 
ATOM      2  O   UNL     1      -6.098   2.351  26.403  0.00  0.00    -0.443 OA
ENDBRANCH   3   2
ENDBRANCH   5   3
ENDBRANCH   6   5
ENDBRANCH   7   6
ENDBRANCH   8   7
TORSDOF 7
ENDMDL
