MODEL 1
REMARK VINA RESULT:     -10.4      0.000      0.000
REMARK  Name = 
REMARK  5 active torsions:
REMARK  status: ('A' for Active; 'I' for Inactive)
REMARK    1  A    between atoms: O_2  and  C_3
REMARK    2  A    between atoms: C_6  and  C_11
REMARK    3  A    between atoms: C_8  and  O_9
REMARK    4  A    between atoms: C_15  and  C_17
REMARK    5  A    between atoms: C_24  and  C_25
REMARK                            x       y       z     vdW  Elec       q    Type
REMARK                         _______ _______ _______ _____ _____    ______ ____
ROOT
ATOM     11  C   UNL     1      -3.972   0.858  24.716  0.00  0.00    +0.102 A 
ATOM     12  N   UNL     1      -4.650   1.324  24.659  0.00  0.00    -0.170 NA
ATOM     13  N   UNL     1      -4.427   2.111  24.767  0.00  0.00    -0.253 N 
ATOM     14  C   UNL     1      -4.931   2.765  24.754  0.00  0.00    +0.153 C 
ATOM     15  C   UNL     1      -3.612   2.130  24.890  0.00  0.00    +0.058 A 
ATOM     16  C   UNL     1      -3.330   1.356  24.859  0.00  0.00    +0.035 A 
ENDROOT
BRANCH  15  17
ATOM     17  C   UNL     1      -3.157   2.807  25.022  0.00  0.00    +0.056 C 
ATOM     18  C   UNL     1      -3.326   3.233  25.651  0.00  0.00    +0.078 C 
ATOM     19  N   UNL     1      -2.733   3.393  25.100  0.00  0.00    -0.272 NA
ATOM     20  C   UNL     1      -2.767   2.632  24.379  0.00  0.00    +0.072 C 
ATOM     21  C   UNL     1      -2.540   2.358  23.832  0.00  0.00    +0.018 C 
ATOM     22  C   UNL     1      -2.573   2.971  24.485  0.00  0.00    +0.010 C 
ATOM     23  C   UNL     1      -1.987   3.622  24.434  0.00  0.00    +0.018 C 
ATOM     24  C   UNL     1      -2.121   4.067  25.040  0.00  0.00    +0.077 C 
BRANCH  24  25
ATOM     25  C   UNL     1      -1.863   4.753  25.417  0.00  0.00    +0.125 C 
ATOM     26  N   UNL     1      -1.266   5.210  25.079  0.00  0.00    -0.130 NA
ENDBRANCH  24  25
ENDBRANCH  15  17
BRANCH  11   6
ATOM      3  C   UNL     1      -3.880  -1.606  24.497  0.00  0.00    +0.172 A 
ATOM      4  C   UNL     1      -4.088  -1.142  23.848  0.00  0.00    +0.040 A 
ATOM      5  C   UNL     1      -4.119  -0.321  23.921  0.00  0.00    +0.005 A 
ATOM      6  C   UNL     1      -3.942   0.037  24.643  0.00  0.00    +0.023 A 
ATOM      7  C   UNL     1      -3.734  -0.428  25.292  0.00  0.00    +0.042 A 
ATOM      8  C   UNL     1      -3.704  -1.250  25.219  0.00  0.00    +0.172 A 
BRANCH   3   2
ATOM      1  C   UNL     1      -4.120  -2.790  23.734  0.00  0.00    +0.253 C 
ATOM      2  O   UNL     1      -3.850  -2.427  24.424  0.00  0.00    -0.468 OA
ENDBRANCH   3   2
BRANCH   8   9
ATOM      9  O   UNL     1      -3.496  -1.714  25.869  0.00  0.00    -0.468 OA
ATOM     10  C   UNL     1      -3.022  -1.399  26.467  0.00  0.00    +0.253 C 
ENDBRANCH   8   9
ENDBRANCH  11   6
TORSDOF 5
ENDMDL
MODEL 2
REMARK VINA RESULT:     -10.4      1.514      2.148
REMARK  Name = 
REMARK  5 active torsions:
REMARK  status: ('A' for Active; 'I' for Inactive)
REMARK    1  A    between atoms: O_2  and  C_3
REMARK    2  A    between atoms: C_6  and  C_11
REMARK    3  A    between atoms: C_8  and  O_9
REMARK    4  A    between atoms: C_15  and  C_17
REMARK    5  A    between atoms: C_24  and  C_25
REMARK                            x       y       z     vdW  Elec       q    Type
REMARK                         _______ _______ _______ _____ _____    ______ ____
ROOT
ATOM     11  C   UNL     1      -3.506   0.407  24.270  0.00  0.00    +0.102 A 
ATOM     12  N   UNL     1      -3.271   0.869  23.628  0.00  0.00    -0.170 NA
ATOM     13  N   UNL     1      -3.543   1.637  23.755  0.00  0.00    -0.253 N 
ATOM     14  C   UNL     1      -3.433   2.280  23.250  0.00  0.00    +0.153 C 
ATOM     15  C   UNL     1      -3.947   1.650  24.474  0.00  0.00    +0.058 A 
ATOM     16  C   UNL     1      -3.924   0.889  24.793  0.00  0.00    +0.035 A 
ENDROOT
BRANCH  15  17
ATOM     17  C   UNL     1      -4.310   2.308  24.816  0.00  0.00    +0.056 C 
ATOM     18  C   UNL     1      -3.866   2.935  24.941  0.00  0.00    +0.078 C 
ATOM     19  N   UNL     1      -4.669   2.864  25.117  0.00  0.00    -0.272 NA
ATOM     20  C   UNL     1      -4.966   1.901  24.826  0.00  0.00    +0.072 C 
ATOM     21  C   UNL     1      -5.427   1.443  24.768  0.00  0.00    +0.018 C 
ATOM     22  C   UNL     1      -5.098   2.247  24.990  0.00  0.00    +0.010 C 
ATOM     23  C   UNL     1      -5.667   2.811  25.348  0.00  0.00    +0.018 C 
ATOM     24  C   UNL     1      -5.266   3.446  25.488  0.00  0.00    +0.077 C 
BRANCH  24  25
ATOM     25  C   UNL     1      -5.334   4.208  25.794  0.00  0.00    +0.125 C 
ATOM     26  N   UNL     1      -6.062   4.595  25.778  0.00  0.00    -0.130 NA
ENDBRANCH  24  25
ENDBRANCH  15  17
BRANCH  11   6
ATOM      3  C   UNL     1      -3.038  -2.005  24.574  0.00  0.00    +0.172 A 
ATOM      4  C   UNL     1      -3.743  -1.763  24.220  0.00  0.00    +0.040 A 
ATOM      5  C   UNL     1      -3.899  -0.959  24.119  0.00  0.00    +0.005 A 
ATOM      6  C   UNL     1      -3.350  -0.397  24.371  0.00  0.00    +0.023 A 
ATOM      7  C   UNL     1      -2.645  -0.639  24.725  0.00  0.00    +0.042 A 
ATOM      8  C   UNL     1      -2.489  -1.444  24.826  0.00  0.00    +0.172 A 
BRANCH   3   2
ATOM      1  C   UNL     1      -3.467  -3.366  24.506  0.00  0.00    +0.253 C 
ATOM      2  O   UNL     1      -2.882  -2.809  24.675  0.00  0.00    -0.468 OA
ENDBRANCH   3   2
BRANCH   8   9
ATOM      9  O   UNL     1      -1.784  -1.686  25.180  0.00  0.00    -0.468 OA
ATOM     10  C   UNL     1      -1.125  -1.189  25.168  0.00  0.00    +0.253 C 
ENDBRANCH   8   9
ENDBRANCH  11   6
TORSDOF 5
ENDMDL
MODEL 3
REMARK VINA RESULT:     -10.2      2.145      4.690
REMARK  Name = 
REMARK  5 active torsions:
REMARK  status: ('A' for Active; 'I' for Inactive)
REMARK    1  A    between atoms: O_2  and  C_3
REMARK    2  A    between atoms: C_6  and  C_11
REMARK    3  A    between atoms: C_8  and  O_9
REMARK    4  A    between atoms: C_15  and  C_17
REMARK    5  A    between atoms: C_24  and  C_25
REMARK                            x       y       z     vdW  Elec       q    Type
REMARK                         _______ _______ _______ _____ _____    ______ ____
ROOT
ATOM     11  C   UNL     1      -3.197   2.286  25.040  0.00  0.00    +0.102 A 
ATOM     12  N   UNL     1      -4.008   2.371  25.163  0.00  0.00    -0.170 NA
ATOM     13  N   UNL     1      -4.360   1.632  25.060  0.00  0.00    -0.253 N 
ATOM     14  C   UNL     1      -5.165   1.464  25.131  0.00  0.00    +0.153 C 
ATOM     15  C   UNL     1      -3.766   1.091  24.874  0.00  0.00    +0.058 A 
ATOM     16  C   UNL     1      -3.047   1.494  24.862  0.00  0.00    +0.035 A 
ENDROOT
BRANCH  15  17
ATOM     17  C   UNL     1      -3.873   0.285  24.726  0.00  0.00    +0.056 C 
ATOM     18  C   UNL     1      -4.141  -0.152  25.312  0.00  0.00    +0.078 C 
ATOM     19  N   UNL     1      -3.952  -0.417  24.553  0.00  0.00    -0.272 NA
ATOM     20  C   UNL     1      -3.622   0.416  24.008  0.00  0.00    +0.072 C 
ATOM     21  C   UNL     1      -3.397   0.679  23.454  0.00  0.00    +0.018 C 
ATOM     22  C   UNL     1      -3.690   0.018  23.984  0.00  0.00    +0.010 C 
ATOM     23  C   UNL     1      -3.728  -0.780  23.620  0.00  0.00    +0.018 C 
ATOM     24  C   UNL     1      -3.989  -1.243  24.168  0.00  0.00    +0.077 C 
BRANCH  24  25
ATOM     25  C   UNL     1      -4.187  -2.029  24.321  0.00  0.00    +0.125 C 
ATOM     26  N   UNL     1      -3.695  -2.636  24.059  0.00  0.00    -0.130 NA
ENDBRANCH  24  25
ENDBRANCH  15  17
BRANCH  11   6
ATOM      3  C   UNL     1      -1.506   4.089  25.183  0.00  0.00    +0.172 A 
ATOM      4  C   UNL     1      -2.242   4.239  24.840  0.00  0.00    +0.040 A 
ATOM      5  C   UNL     1      -2.805   3.638  24.793  0.00  0.00    +0.005 A 
ATOM      6  C   UNL     1      -2.634   2.887  25.088  0.00  0.00    +0.023 A 
ATOM      7  C   UNL     1      -1.898   2.737  25.431  0.00  0.00    +0.042 A 
ATOM      8  C   UNL     1      -1.335   3.338  25.478  0.00  0.00    +0.172 A 
BRANCH   3   2
ATOM      1  C   UNL     1      -1.120   5.443  24.945  0.00  0.00    +0.253 C 
ATOM      2  O   UNL     1      -0.943   4.690  25.231  0.00  0.00    -0.468 OA
ENDBRANCH   3   2
BRANCH   8   9
ATOM      9  O   UNL     1      -0.599   3.188  25.821  0.00  0.00    -0.468 OA
ATOM     10  C   UNL     1      -0.439   2.446  26.144  0.00  0.00    +0.253 C 
ENDBRANCH   8   9
ENDBRANCH  11   6
TORSDOF 5
ENDMDL
MODEL 4
REMARK VINA RESULT:      -9.9      1.622      2.538
REMARK  Name = 
REMARK  5 active torsions:
REMARK  status: ('A' for Active; 'I' for Inactive)
REMARK    1  A    between atoms: O_2  and  C_3
REMARK    2  A    between atoms: C_6  and  C_11
REMARK    3  A    between atoms: C_8  and  O_9
REMARK    4  A    between atoms: C_15  and  C_17
REMARK    5  A    between atoms: C_24  and  C_25
REMARK                            x       y       z     vdW  Elec       q    Type
REMARK                         _______ _______ _______ _____ _____    ______ ____
ROOT
ATOM     11  C   UNL     1      -2.672   0.582  24.374  0.00  0.00    +0.102 A 
ATOM     12  N   UNL     1      -2.691   0.944  23.633  0.00  0.00    -0.170 NA
ATOM     13  N   UNL     1      -3.168   1.614  23.690  0.00  0.00    -0.253 N 
ATOM     14  C   UNL     1      -3.340   2.140  23.078  0.00  0.00    +0.153 C 
ATOM     15  C   UNL     1      -3.444   1.666  24.465  0.00  0.00    +0.058 A 
ATOM     16  C   UNL     1      -3.138   1.028  24.889  0.00  0.00    +0.035 A 
ENDROOT
BRANCH  15  17
ATOM     17  C   UNL     1      -3.941   2.254  24.765  0.00  0.00    +0.056 C 
ATOM     18  C   UNL     1      -3.652   2.975  24.810  0.00  0.00    +0.078 C 
ATOM     19  N   UNL     1      -4.411   2.739  25.034  0.00  0.00    -0.272 NA
ATOM     20  C   UNL     1      -4.483   1.710  24.848  0.00  0.00    +0.072 C 
ATOM     21  C   UNL     1      -4.825   1.154  24.856  0.00  0.00    +0.018 C 
ATOM     22  C   UNL     1      -4.687   2.030  24.987  0.00  0.00    +0.010 C 
ATOM     23  C   UNL     1      -5.361   2.481  25.323  0.00  0.00    +0.018 C 
ATOM     24  C   UNL     1      -5.116   3.202  25.383  0.00  0.00    +0.077 C 
BRANCH  24  25
ATOM     25  C   UNL     1      -5.351   3.955  25.622  0.00  0.00    +0.125 C 
ATOM     26  N   UNL     1      -6.150   4.116  25.750  0.00  0.00    -0.130 NA
ENDBRANCH  24  25
ENDBRANCH  15  17
BRANCH  11   6
ATOM      3  C   UNL     1      -1.436  -1.483  24.953  0.00  0.00    +0.172 A 
ATOM      4  C   UNL     1      -1.081  -0.746  25.059  0.00  0.00    +0.040 A 
ATOM      5  C   UNL     1      -1.493  -0.058  24.866  0.00  0.00    +0.005 A 
ATOM      6  C   UNL     1      -2.260  -0.106  24.567  0.00  0.00    +0.023 A 
ATOM      7  C   UNL     1      -2.615  -0.844  24.461  0.00  0.00    +0.042 A 
ATOM      8  C   UNL     1      -2.203  -1.532  24.654  0.00  0.00    +0.172 A 
BRANCH   3   2
ATOM      1  C   UNL     1      -0.231  -2.128  25.370  0.00  0.00    +0.253 C 
ATOM      2  O   UNL     1      -1.024  -2.171  25.146  0.00  0.00    -0.468 OA
ENDBRANCH   3   2
BRANCH   8   9
ATOM      9  O   UNL     1      -2.558  -2.270  24.547  0.00  0.00    -0.468 OA
ATOM     10  C   UNL     1      -3.376  -2.323  24.456  0.00  0.00    +0.253 C 
ENDBRANCH   8   9
ENDBRANCH  11   6
TORSDOF 5
ENDMDL
MODEL 5
REMARK VINA RESULT:      -9.7      2.233      4.819
REMARK  Name = 
REMARK  5 active torsions:
REMARK  status: ('A' for Active; 'I' for Inactive)
REMARK    1  A    between atoms: O_2  and  C_3
REMARK    2  A    between atoms: C_6  and  C_11
REMARK    3  A    between atoms: C_8  and  O_9
REMARK    4  A    between atoms: C_15  and  C_17
REMARK    5  A    between atoms: C_24  and  C_25
REMARK                            x       y       z     vdW  Elec       q    Type
REMARK                         _______ _______ _______ _____ _____    ______ ____
ROOT
ATOM     11  C   UNL     1      -4.136   1.452  24.565  0.00  0.00    +0.102 A 
ATOM     12  N   UNL     1      -3.626   1.422  23.917  0.00  0.00    -0.170 NA
ATOM     13  N   UNL     1      -3.440   0.631  23.776  0.00  0.00    -0.253 N 
ATOM     14  C   UNL     1      -2.946   0.348  23.179  0.00  0.00    +0.153 C 
ATOM     15  C   UNL     1      -3.834   0.173  24.337  0.00  0.00    +0.058 A 
ATOM     16  C   UNL     1      -4.265   0.680  24.825  0.00  0.00    +0.035 A 
ENDROOT
BRANCH  15  17
ATOM     17  C   UNL     1      -3.803  -0.651  24.399  0.00  0.00    +0.056 C 
ATOM     18  C   UNL     1      -4.105  -1.064  23.813  0.00  0.00    +0.078 C 
ATOM     19  N   UNL     1      -3.755  -1.370  24.495  0.00  0.00    -0.272 NA
ATOM     20  C   UNL     1      -3.453  -0.554  25.080  0.00  0.00    +0.072 C 
ATOM     21  C   UNL     1      -3.175  -0.315  25.621  0.00  0.00    +0.018 C 
ATOM     22  C   UNL     1      -3.461  -0.958  25.065  0.00  0.00    +0.010 C 
ATOM     23  C   UNL     1      -3.326  -1.784  25.329  0.00  0.00    +0.018 C 
ATOM     24  C   UNL     1      -3.612  -2.226  24.776  0.00  0.00    +0.077 C 
BRANCH  24  25
ATOM     25  C   UNL     1      -3.724  -3.013  24.559  0.00  0.00    +0.125 C 
ATOM     26  N   UNL     1      -3.072  -3.496  24.408  0.00  0.00    -0.130 NA
ENDBRANCH  24  25
ENDBRANCH  15  17
BRANCH  11   6
ATOM      3  C   UNL     1      -5.108   3.501  25.556  0.00  0.00    +0.172 A 
ATOM      4  C   UNL     1      -5.603   2.906  25.272  0.00  0.00    +0.040 A 
ATOM      5  C   UNL     1      -5.279   2.223  24.942  0.00  0.00    +0.005 A 
ATOM      6  C   UNL     1      -4.460   2.135  24.895  0.00  0.00    +0.023 A 
ATOM      7  C   UNL     1      -3.965   2.731  25.180  0.00  0.00    +0.042 A 
ATOM      8  C   UNL     1      -4.289   3.414  25.510  0.00  0.00    +0.172 A 
BRANCH   3   2
ATOM      1  C   UNL     1      -6.206   4.404  25.702  0.00  0.00    +0.253 C 
ATOM      2  O   UNL     1      -5.432   4.184  25.887  0.00  0.00    -0.468 OA
ENDBRANCH   3   2
BRANCH   8   9
ATOM      9  O   UNL     1      -3.794   4.010  25.795  0.00  0.00    -0.468 OA
ATOM     10  C   UNL     1      -2.995   3.854  25.925  0.00  0.00    +0.253 C 
ENDBRANCH   8   9
ENDBRANCH  11   6
TORSDOF 5
ENDMDL
MODEL 6
REMARK VINA RESULT:      -9.6      2.447      5.019
REMARK  Name = 
REMARK  5 active torsions:
REMARK  status: ('A' for Active; 'I' for Inactive)
REMARK    1  A    between atoms: O_2  and  C_3
REMARK    2  A    between atoms: C_6  and  C_11
REMARK    3  A    between atoms: C_8  and  O_9
REMARK    4  A    between atoms: C_15  and  C_17
REMARK    5  A    between atoms: C_24  and  C_25
REMARK                            x       y       z     vdW  Elec       q    Type
REMARK                         _______ _______ _______ _____ _____    ______ ____
ROOT
ATOM     11  C   UNL     1      -1.664   1.881  25.133  0.00  0.00    +0.102 A 
ATOM     12  N   UNL     1      -1.042   1.353  25.258  0.00  0.00    -0.170 NA
ATOM     13  N   UNL     1      -1.334   0.588  25.161  0.00  0.00    -0.253 N 
ATOM     14  C   UNL     1      -0.900  -0.110  25.236  0.00  0.00    +0.153 C 
ATOM     15  C   UNL     1      -2.136   0.643  24.975  0.00  0.00    +0.058 A 
ATOM     16  C   UNL     1      -2.340   1.442  24.958  0.00  0.00    +0.035 A 
ENDROOT
BRANCH  15  17
ATOM     17  C   UNL     1      -2.645   0.008  24.832  0.00  0.00    +0.056 C 
ATOM     18  C   UNL     1      -2.678  -0.551  25.372  0.00  0.00    +0.078 C 
ATOM     19  N   UNL     1      -3.105  -0.530  24.666  0.00  0.00    -0.272 NA
ATOM     20  C   UNL     1      -2.834   0.351  24.166  0.00  0.00    +0.072 C 
ATOM     21  C   UNL     1      -2.887   0.753  23.654  0.00  0.00    +0.018 C 
ATOM     22  C   UNL     1      -3.067   0.022  24.141  0.00  0.00    +0.010 C 
ATOM     23  C   UNL     1      -3.651  -0.536  23.797  0.00  0.00    +0.018 C 
ATOM     24  C   UNL     1      -3.712  -1.106  24.302  0.00  0.00    +0.077 C 
BRANCH  24  25
ATOM     25  C   UNL     1      -4.100  -1.820  24.439  0.00  0.00    +0.125 C 
ATOM     26  N   UNL     1      -4.411  -2.248  23.805  0.00  0.00    -0.130 NA
ENDBRANCH  24  25
ENDBRANCH  15  17
BRANCH  11   6
ATOM      3  C   UNL     1      -1.526   4.349  25.260  0.00  0.00    +0.172 A 
ATOM      4  C   UNL     1      -0.976   3.927  24.811  0.00  0.00    +0.040 A 
ATOM      5  C   UNL     1      -1.022   3.105  24.769  0.00  0.00    +0.005 A 
ATOM      6  C   UNL     1      -1.617   2.703  25.175  0.00  0.00    +0.023 A 
ATOM      7  C   UNL     1      -2.167   3.125  25.624  0.00  0.00    +0.042 A 
ATOM      8  C   UNL     1      -2.121   3.948  25.666  0.00  0.00    +0.172 A 
BRANCH   3   2
ATOM      1  C   UNL     1      -0.942   5.579  24.827  0.00  0.00    +0.253 C 
ATOM      2  O   UNL     1      -1.480   5.171  25.302  0.00  0.00    -0.468 OA
ENDBRANCH   3   2
BRANCH   8   9
ATOM      9  O   UNL     1      -2.671   4.369  26.115  0.00  0.00    -0.468 OA
ATOM     10  C   UNL     1      -3.404   4.035  26.289  0.00  0.00    +0.253 C 
ENDBRANCH   8   9
ENDBRANCH  11   6
TORSDOF 5
ENDMDL
MODEL 7
REMARK VINA RESULT:      -9.2      2.993      3.997
REMARK  Name = 
REMARK  5 active torsions:
REMARK  status: ('A' for Active; 'I' for Inactive)
REMARK    1  A    between atoms: O_2  and  C_3
REMARK    2  A    between atoms: C_6  and  C_11
REMARK    3  A    between atoms: C_8  and  O_9
REMARK    4  A    between atoms: C_15  and  C_17
REMARK    5  A    between atoms: C_24  and  C_25
REMARK                            x       y       z     vdW  Elec       q    Type
REMARK                         _______ _______ _______ _____ _____    ______ ____
ROOT
ATOM     11  C   UNL     1      -2.573   0.775  24.886  0.00  0.00    +0.102 A 
ATOM     12  N   UNL     1      -2.281   0.325  25.513  0.00  0.00    -0.170 NA
ATOM     13  N   UNL     1      -1.536   0.043  25.298  0.00  0.00    -0.253 N 
ATOM     14  C   UNL     1      -1.045  -0.432  25.761  0.00  0.00    +0.153 C 
ATOM     15  C   UNL     1      -1.369   0.318  24.538  0.00  0.00    +0.058 A 
ATOM     16  C   UNL     1      -2.010   0.770  24.283  0.00  0.00    +0.035 A 
ENDROOT
BRANCH  15  17
ATOM     17  C   UNL     1      -0.680   0.167  24.108  0.00  0.00    +0.056 C 
ATOM     18  C   UNL     1      -0.551  -0.569  23.889  0.00  0.00    +0.078 C 
ATOM     19  N   UNL     1      -0.064   0.079  23.733  0.00  0.00    -0.272 NA
ATOM     20  C   UNL     1      -0.519   0.920  24.162  0.00  0.00    +0.072 C 
ATOM     21  C   UNL     1      -0.523   1.560  24.290  0.00  0.00    +0.018 C 
ATOM     22  C   UNL     1      -0.197   0.797  23.951  0.00  0.00    +0.010 C 
ATOM     23  C   UNL     1       0.566   0.861  23.521  0.00  0.00    +0.018 C 
ATOM     24  C   UNL     1       0.729   0.152  23.287  0.00  0.00    +0.077 C 
BRANCH  24  25
ATOM     25  C   UNL     1       1.292  -0.287  22.874  0.00  0.00    +0.125 C 
ATOM     26  N   UNL     1       1.982   0.076  22.606  0.00  0.00    -0.130 NA
ENDBRANCH  24  25
ENDBRANCH  15  17
BRANCH  11   6
ATOM      3  C   UNL     1      -4.759   1.935  24.824  0.00  0.00    +0.172 A 
ATOM      4  C   UNL     1      -4.722   1.119  24.707  0.00  0.00    +0.040 A 
ATOM      5  C   UNL     1      -3.993   0.733  24.727  0.00  0.00    +0.005 A 
ATOM      6  C   UNL     1      -3.302   1.161  24.865  0.00  0.00    +0.023 A 
ATOM      7  C   UNL     1      -3.339   1.977  24.983  0.00  0.00    +0.042 A 
ATOM      8  C   UNL     1      -4.069   2.364  24.962  0.00  0.00    +0.172 A 
BRANCH   3   2
ATOM      1  C   UNL     1      -6.182   1.899  24.943  0.00  0.00    +0.253 C 
ATOM      2  O   UNL     1      -5.488   2.321  24.803  0.00  0.00    -0.468 OA
ENDBRANCH   3   2
BRANCH   8   9
ATOM      9  O   UNL     1      -4.106   3.180  25.080  0.00  0.00    -0.468 OA
ATOM     10  C   UNL     1      -3.446   3.586  25.363  0.00  0.00    +0.253 C 
ENDBRANCH   8   9
ENDBRANCH  11   6
TORSDOF 5
ENDMDL
