MODEL 1
REMARK VINA RESULT:      -9.2      0.000      0.000
REMARK  Name = 
REMARK  9 active torsions:
REMARK  status: ('A' for Active; 'I' for Inactive)
REMARK    1  A    between atoms: O_2  and  C_3
REMARK    2  A    between atoms: C_3  and  C_4
REMARK    3  A    between atoms: C_4  and  O_5
REMARK    4  A    between atoms: O_5  and  C_6
REMARK    5  A    between atoms: C_9  and  C_12
REMARK    6  A    between atoms: C_15  and  C_17
REMARK    7  A    between atoms: N_21  and  C_22
REMARK    8  A    between atoms: C_22  and  C_23
REMARK    9  A    between atoms: C_26  and  N_27
REMARK                            x       y       z     vdW  Elec       q    Type
REMARK                         _______ _______ _______ _____ _____    ______ ____
ROOT
ATOM     12  C   UNL     1      -0.805  -0.386  24.301  0.00  0.00    +0.205 A 
ATOM     13  N   UNL     1      -0.852  -0.645  25.083  0.00  0.00    -0.056 NA
ATOM     14  O   UNL     1      -1.644  -0.811  25.250  0.00  0.00    -0.336 OA
ATOM     15  C   UNL     1      -2.085  -0.656  24.570  0.00  0.00    +0.251 A 
ATOM     16  N   UNL     1      -1.567  -0.393  23.984  0.00  0.00    -0.190 NA
ENDROOT
BRANCH  12   9
ATOM      6  C   UNL     1       1.259   0.291  23.115  0.00  0.00    +0.225 A 
ATOM      7  C   UNL     1       0.810   0.854  23.518  0.00  0.00    +0.058 A 
ATOM      8  C   UNL     1       0.122   0.629  23.913  0.00  0.00    +0.010 A 
ATOM      9  C   UNL     1      -0.117  -0.160  23.906  0.00  0.00    +0.058 A 
ATOM     10  C   UNL     1       0.331  -0.724  23.503  0.00  0.00    +0.105 A 
ATOM     11  N   UNL     1       1.019  -0.499  23.108  0.00  0.00    -0.210 NA
BRANCH   6   5
ATOM      5  O   UNL     1       1.947   0.517  22.720  0.00  0.00    -0.457 OA
BRANCH   5   4
ATOM      4  C   UNL     1       2.681   0.429  23.087  0.00  0.00    +0.239 C 
BRANCH   4   3
ATOM      3  C   UNL     1       3.372   0.610  22.674  0.00  0.00    +0.189 C 
BRANCH   3   2
ATOM      1  C   UNL     1       4.753   0.499  23.026  0.00  0.00    +0.174 C 
ATOM      2  O   UNL     1       4.031   0.895  23.079  0.00  0.00    -0.347 OA
ENDBRANCH   3   2
ENDBRANCH   4   3
ENDBRANCH   5   4
ENDBRANCH   6   5
ENDBRANCH  12   9
BRANCH  15  17
ATOM     17  C   UNL     1      -2.901  -0.747  24.490  0.00  0.00    +0.138 C 
ATOM     18  C   UNL     1      -3.302  -1.461  24.393  0.00  0.00    +0.027 C 
ATOM     19  C   UNL     1      -4.108  -1.296  24.336  0.00  0.00    +0.019 C 
ATOM     20  C   UNL     1      -4.205  -0.479  24.398  0.00  0.00    +0.073 C 
ATOM     21  N   UNL     1      -3.459  -0.139  24.494  0.00  0.00    -0.263 NA
BRANCH  21  22
ATOM     22  C   UNL     1      -3.300   0.665  24.577  0.00  0.00    +0.099 C 
BRANCH  22  23
ATOM     23  C   UNL     1      -3.915   1.194  24.727  0.00  0.00    -0.006 A 
ATOM     24  C   UNL     1      -4.332   1.152  25.438  0.00  0.00    -0.002 A 
ATOM     25  C   UNL     1      -4.947   1.681  25.588  0.00  0.00    +0.016 A 
ATOM     26  C   UNL     1      -5.145   2.253  25.026  0.00  0.00    +0.073 A 
ATOM     31  C   UNL     1      -4.728   2.295  24.316  0.00  0.00    +0.016 A 
ATOM     32  C   UNL     1      -4.113   1.766  24.166  0.00  0.00    -0.002 A 
BRANCH  26  27
ATOM     27  N   UNL     1      -5.760   2.782  25.176  0.00  0.00    -0.179 NA
ATOM     28  C   UNL     1      -5.602   3.503  25.544  0.00  0.00    +0.246 C 
ATOM     29  C   UNL     1      -4.831   3.696  25.762  0.00  0.00    +0.097 C 
ATOM     30  O   UNL     1      -6.218   4.033  25.694  0.00  0.00    -0.273 OA
ENDBRANCH  26  27
ENDBRANCH  22  23
ENDBRANCH  21  22
ENDBRANCH  15  17
TORSDOF 9
ENDMDL
MODEL 2
REMARK VINA RESULT:      -8.5      2.260      4.097
REMARK  Name = 
REMARK  9 active torsions:
REMARK  status: ('A' for Active; 'I' for Inactive)
REMARK    1  A    between atoms: O_2  and  C_3
REMARK    2  A    between atoms: C_3  and  C_4
REMARK    3  A    between atoms: C_4  and  O_5
REMARK    4  A    between atoms: O_5  and  C_6
REMARK    5  A    between atoms: C_9  and  C_12
REMARK    6  A    between atoms: C_15  and  C_17
REMARK    7  A    between atoms: N_21  and  C_22
REMARK    8  A    between atoms: C_22  and  C_23
REMARK    9  A    between atoms: C_26  and  N_27
REMARK                            x       y       z     vdW  Elec       q    Type
REMARK                         _______ _______ _______ _____ _____    ______ ____
ROOT
ATOM     12  C   UNL     1      -0.274   1.560  25.006  0.00  0.00    +0.205 A 
ATOM     13  N   UNL     1       0.445   1.854  25.288  0.00  0.00    -0.056 NA
ATOM     14  O   UNL     1       0.388   2.677  25.321  0.00  0.00    -0.336 OA
ATOM     15  C   UNL     1      -0.365   2.891  25.060  0.00  0.00    +0.251 A 
ATOM     16  N   UNL     1      -0.773   2.201  24.865  0.00  0.00    -0.190 NA
ENDROOT
BRANCH  12   9
ATOM      6  C   UNL     1      -0.829  -0.825  24.646  0.00  0.00    +0.225 A 
ATOM      7  C   UNL     1      -0.979  -0.471  25.376  0.00  0.00    +0.058 A 
ATOM      8  C   UNL     1      -0.794   0.324  25.496  0.00  0.00    +0.010 A 
ATOM      9  C   UNL     1      -0.459   0.765  24.886  0.00  0.00    +0.058 A 
ATOM     10  C   UNL     1      -0.307   0.413  24.155  0.00  0.00    +0.105 A 
ATOM     11  N   UNL     1      -0.492  -0.382  24.035  0.00  0.00    -0.210 NA
BRANCH   6   5
ATOM      5  O   UNL     1      -1.014  -1.620  24.526  0.00  0.00    -0.457 OA
BRANCH   5   4
ATOM      4  C   UNL     1      -1.764  -1.902  24.723  0.00  0.00    +0.239 C 
BRANCH   4   3
ATOM      3  C   UNL     1      -2.071  -2.560  24.332  0.00  0.00    +0.189 C 
BRANCH   3   2
ATOM      1  C   UNL     1      -3.462  -2.886  24.279  0.00  0.00    +0.174 C 
ATOM      2  O   UNL     1      -2.724  -2.957  24.642  0.00  0.00    -0.347 OA
ENDBRANCH   3   2
ENDBRANCH   4   3
ENDBRANCH   5   4
ENDBRANCH   6   5
ENDBRANCH  12   9
BRANCH  15  17
ATOM     17  C   UNL     1      -0.657   3.660  25.004  0.00  0.00    +0.138 C 
ATOM     18  C   UNL     1      -0.296   4.289  24.610  0.00  0.00    +0.027 C 
ATOM     19  C   UNL     1      -0.777   4.953  24.694  0.00  0.00    +0.019 C 
ATOM     20  C   UNL     1      -1.438   4.735  25.138  0.00  0.00    +0.073 C 
ATOM     21  N   UNL     1      -1.363   3.936  25.330  0.00  0.00    -0.263 NA
BRANCH  21  22
ATOM     22  C   UNL     1      -1.900   3.491  25.770  0.00  0.00    +0.099 C 
BRANCH  22  23
ATOM     23  C   UNL     1      -2.709   3.640  25.708  0.00  0.00    -0.006 A 
ATOM     24  C   UNL     1      -3.101   4.043  26.311  0.00  0.00    -0.002 A 
ATOM     25  C   UNL     1      -3.911   4.193  26.249  0.00  0.00    +0.016 A 
ATOM     26  C   UNL     1      -4.327   3.939  25.583  0.00  0.00    +0.073 A 
ATOM     31  C   UNL     1      -3.934   3.536  24.980  0.00  0.00    +0.016 A 
ATOM     32  C   UNL     1      -3.125   3.387  25.043  0.00  0.00    -0.002 A 
BRANCH  26  27
ATOM     27  N   UNL     1      -5.136   4.089  25.521  0.00  0.00    -0.179 NA
ATOM     28  C   UNL     1      -5.679   3.492  25.692  0.00  0.00    +0.246 C 
ATOM     29  C   UNL     1      -5.415   2.747  25.925  0.00  0.00    +0.097 C 
ATOM     30  O   UNL     1      -6.489   3.641  25.630  0.00  0.00    -0.273 OA
ENDBRANCH  26  27
ENDBRANCH  22  23
ENDBRANCH  21  22
ENDBRANCH  15  17
TORSDOF 9
ENDMDL
MODEL 3
REMARK VINA RESULT:      -7.8      2.837      4.578
REMARK  Name = 
REMARK  9 active torsions:
REMARK  status: ('A' for Active; 'I' for Inactive)
REMARK    1  A    between atoms: O_2  and  C_3
REMARK    2  A    between atoms: C_3  and  C_4
REMARK    3  A    between atoms: C_4  and  O_5
REMARK    4  A    between atoms: O_5  and  C_6
REMARK    5  A    between atoms: C_9  and  C_12
REMARK    6  A    between atoms: C_15  and  C_17
REMARK    7  A    between atoms: N_21  and  C_22
REMARK    8  A    between atoms: C_22  and  C_23
REMARK    9  A    between atoms: C_26  and  N_27
REMARK                            x       y       z     vdW  Elec       q    Type
REMARK                         _______ _______ _______ _____ _____    ______ ____
ROOT
ATOM     12  C   UNL     1      -4.768   0.332  24.881  0.00  0.00    +0.205 A 
ATOM     13  N   UNL     1      -5.520   0.380  24.544  0.00  0.00    -0.056 NA
ATOM     14  O   UNL     1      -5.806   1.144  24.670  0.00  0.00    -0.336 OA
ATOM     15  C   UNL     1      -5.232   1.567  25.084  0.00  0.00    +0.251 A 
ATOM     16  N   UNL     1      -4.590   1.065  25.215  0.00  0.00    -0.190 NA
ENDROOT
BRANCH  12   9
ATOM      6  C   UNL     1      -3.304  -1.664  24.889  0.00  0.00    +0.225 A 
ATOM      7  C   UNL     1      -3.625  -1.390  24.181  0.00  0.00    +0.058 A 
ATOM      8  C   UNL     1      -4.113  -0.725  24.178  0.00  0.00    +0.010 A 
ATOM      9  C   UNL     1      -4.280  -0.333  24.884  0.00  0.00    +0.058 A 
ATOM     10  C   UNL     1      -3.959  -0.606  25.594  0.00  0.00    +0.105 A 
ATOM     11  N   UNL     1      -3.471  -1.271  25.596  0.00  0.00    -0.210 NA
BRANCH   6   5
ATOM      5  O   UNL     1      -2.816  -2.329  24.892  0.00  0.00    -0.457 OA
BRANCH   5   4
ATOM      4  C   UNL     1      -2.061  -2.287  24.562  0.00  0.00    +0.239 C 
BRANCH   4   3
ATOM      3  C   UNL     1      -1.418  -2.616  24.962  0.00  0.00    +0.189 C 
BRANCH   3   2
ATOM      1  C   UNL     1      -0.092  -2.166  25.250  0.00  0.00    +0.174 C 
ATOM      2  O   UNL     1      -0.649  -2.452  24.712  0.00  0.00    -0.347 OA
ENDBRANCH   3   2
ENDBRANCH   4   3
ENDBRANCH   5   4
ENDBRANCH   6   5
ENDBRANCH  12   9
BRANCH  15  17
ATOM     17  C   UNL     1      -5.289   2.354  25.325  0.00  0.00    +0.138 C 
ATOM     18  C   UNL     1      -5.925   2.693  25.728  0.00  0.00    +0.027 C 
ATOM     19  C   UNL     1      -5.749   3.488  25.859  0.00  0.00    +0.019 C 
ATOM     20  C   UNL     1      -5.005   3.641  25.536  0.00  0.00    +0.073 C 
ATOM     21  N   UNL     1      -4.720   2.940  25.207  0.00  0.00    -0.263 NA
BRANCH  21  22
ATOM     22  C   UNL     1      -3.995   2.843  24.826  0.00  0.00    +0.099 C 
BRANCH  22  23
ATOM     23  C   UNL     1      -3.399   3.403  24.924  0.00  0.00    -0.006 A 
ATOM     24  C   UNL     1      -2.901   3.366  25.581  0.00  0.00    -0.002 A 
ATOM     25  C   UNL     1      -2.304   3.927  25.679  0.00  0.00    +0.016 A 
ATOM     26  C   UNL     1      -2.206   4.526  25.120  0.00  0.00    +0.073 A 
ATOM     31  C   UNL     1      -2.704   4.564  24.464  0.00  0.00    +0.016 A 
ATOM     32  C   UNL     1      -3.300   4.003  24.366  0.00  0.00    -0.002 A 
BRANCH  26  27
ATOM     27  N   UNL     1      -1.609   5.088  25.219  0.00  0.00    -0.179 NA
ATOM     28  C   UNL     1      -0.853   4.941  24.923  0.00  0.00    +0.246 C 
ATOM     29  C   UNL     1      -0.693   4.234  24.529  0.00  0.00    +0.097 C 
ATOM     30  O   UNL     1      -0.256   5.502  25.021  0.00  0.00    -0.273 OA
ENDBRANCH  26  27
ENDBRANCH  22  23
ENDBRANCH  21  22
ENDBRANCH  15  17
TORSDOF 9
ENDMDL
MODEL 4
REMARK VINA RESULT:      -7.8      2.990      4.423
REMARK  Name = 
REMARK  9 active torsions:
REMARK  status: ('A' for Active; 'I' for Inactive)
REMARK    1  A    between atoms: O_2  and  C_3
REMARK    2  A    between atoms: C_3  and  C_4
REMARK    3  A    between atoms: C_4  and  O_5
REMARK    4  A    between atoms: O_5  and  C_6
REMARK    5  A    between atoms: C_9  and  C_12
REMARK    6  A    between atoms: C_15  and  C_17
REMARK    7  A    between atoms: N_21  and  C_22
REMARK    8  A    between atoms: C_22  and  C_23
REMARK    9  A    between atoms: C_26  and  N_27
REMARK                            x       y       z     vdW  Elec       q    Type
REMARK                         _______ _______ _______ _____ _____    ______ ____
ROOT
ATOM     12  C   UNL     1      -2.049   2.721  25.160  0.00  0.00    +0.205 A 
ATOM     13  N   UNL     1      -2.249   3.195  24.514  0.00  0.00    -0.056 NA
ATOM     14  O   UNL     1      -3.026   3.017  24.299  0.00  0.00    -0.336 OA
ATOM     15  C   UNL     1      -3.305   2.433  24.811  0.00  0.00    +0.251 A 
ATOM     16  N   UNL     1      -2.701   2.251  25.343  0.00  0.00    -0.190 NA
ENDROOT
BRANCH  12   9
ATOM      6  C   UNL     1       0.128   2.714  26.338  0.00  0.00    +0.225 A 
ATOM      7  C   UNL     1      -0.215   2.002  26.099  0.00  0.00    +0.058 A 
ATOM      8  C   UNL     1      -0.940   2.005  25.706  0.00  0.00    +0.010 A 
ATOM      9  C   UNL     1      -1.323   2.719  25.552  0.00  0.00    +0.058 A 
ATOM     10  C   UNL     1      -0.982   3.431  25.791  0.00  0.00    +0.105 A 
ATOM     11  N   UNL     1      -0.256   3.428  26.184  0.00  0.00    -0.210 NA
BRANCH   6   5
ATOM      5  O   UNL     1       0.853   2.711  26.731  0.00  0.00    -0.457 OA
BRANCH   5   4
ATOM      4  C   UNL     1       0.875   2.674  27.555  0.00  0.00    +0.239 C 
BRANCH   4   3
ATOM      3  C   UNL     1       1.600   2.700  27.949  0.00  0.00    +0.189 C 
BRANCH   3   2
ATOM      1  C   UNL     1       2.341   2.689  29.171  0.00  0.00    +0.174 C 
ATOM      2  O   UNL     1       1.630   2.587  28.765  0.00  0.00    -0.347 OA
ENDBRANCH   3   2
ENDBRANCH   4   3
ENDBRANCH   5   4
ENDBRANCH   6   5
ENDBRANCH  12   9
BRANCH  15  17
ATOM     17  C   UNL     1      -4.056   2.092  24.794  0.00  0.00    +0.138 C 
ATOM     18  C   UNL     1      -4.749   2.432  25.087  0.00  0.00    +0.027 C 
ATOM     19  C   UNL     1      -5.367   1.902  24.956  0.00  0.00    +0.019 C 
ATOM     20  C   UNL     1      -5.057   1.234  24.583  0.00  0.00    +0.073 C 
ATOM     21  N   UNL     1      -4.246   1.353  24.483  0.00  0.00    -0.263 NA
BRANCH  21  22
ATOM     22  C   UNL     1      -3.719   0.824  24.133  0.00  0.00    +0.099 C 
BRANCH  22  23
ATOM     23  C   UNL     1      -3.820   0.012  24.234  0.00  0.00    -0.006 A 
ATOM     24  C   UNL     1      -3.705  -0.329  24.976  0.00  0.00    -0.002 A 
ATOM     25  C   UNL     1      -3.807  -1.142  25.077  0.00  0.00    +0.016 A 
ATOM     26  C   UNL     1      -4.024  -1.613  24.435  0.00  0.00    +0.073 A 
ATOM     31  C   UNL     1      -4.140  -1.272  23.693  0.00  0.00    +0.016 A 
ATOM     32  C   UNL     1      -4.038  -0.460  23.592  0.00  0.00    -0.002 A 
BRANCH  26  27
ATOM     27  N   UNL     1      -4.126  -2.426  24.537  0.00  0.00    -0.179 NA
ATOM     28  C   UNL     1      -3.470  -2.926  24.544  0.00  0.00    +0.246 C 
ATOM     29  C   UNL     1      -2.712  -2.614  24.451  0.00  0.00    +0.097 C 
ATOM     30  O   UNL     1      -3.571  -3.738  24.645  0.00  0.00    -0.273 OA
ENDBRANCH  26  27
ENDBRANCH  22  23
ENDBRANCH  21  22
ENDBRANCH  15  17
TORSDOF 9
ENDMDL
MODEL 5
REMARK VINA RESULT:      -7.7      2.029      5.728
REMARK  Name = 
REMARK  9 active torsions:
REMARK  status: ('A' for Active; 'I' for Inactive)
REMARK    1  A    between atoms: O_2  and  C_3
REMARK    2  A    between atoms: C_3  and  C_4
REMARK    3  A    between atoms: C_4  and  O_5
REMARK    4  A    between atoms: O_5  and  C_6
REMARK    5  A    between atoms: C_9  and  C_12
REMARK    6  A    between atoms: C_15  and  C_17
REMARK    7  A    between atoms: N_21  and  C_22
REMARK    8  A    between atoms: C_22  and  C_23
REMARK    9  A    between atoms: C_26  and  N_27
REMARK                            x       y       z     vdW  Elec       q    Type
REMARK                         _______ _______ _______ _____ _____    ______ ____
ROOT
ATOM     12  C   UNL     1      -0.910   2.414  24.771  0.00  0.00    +0.205 A 
ATOM     13  N   UNL     1      -0.139   2.604  24.998  0.00  0.00    -0.056 NA
ATOM     14  O   UNL     1       0.362   2.009  24.722  0.00  0.00    -0.336 OA
ATOM     15  C   UNL     1      -0.099   1.452  24.324  0.00  0.00    +0.251 A 
ATOM     16  N   UNL     1      -0.885   1.702  24.355  0.00  0.00    -0.190 NA
ENDROOT
BRANCH  12   9
ATOM      6  C   UNL     1      -2.938   3.747  25.254  0.00  0.00    +0.225 A 
ATOM      7  C   UNL     1      -2.368   3.637  25.840  0.00  0.00    +0.058 A 
ATOM      8  C   UNL     1      -1.692   3.192  25.678  0.00  0.00    +0.010 A 
ATOM      9  C   UNL     1      -1.586   2.858  24.932  0.00  0.00    +0.058 A 
ATOM     10  C   UNL     1      -2.156   2.968  24.346  0.00  0.00    +0.105 A 
ATOM     11  N   UNL     1      -2.833   3.413  24.507  0.00  0.00    -0.210 NA
BRANCH   6   5
ATOM      5  O   UNL     1      -3.615   4.192  25.416  0.00  0.00    -0.457 OA
BRANCH   5   4
ATOM      4  C   UNL     1      -4.283   3.825  25.733  0.00  0.00    +0.239 C 
BRANCH   4   3
ATOM      3  C   UNL     1      -5.035   4.058  25.488  0.00  0.00    +0.189 C 
BRANCH   3   2
ATOM      1  C   UNL     1      -6.036   3.060  25.699  0.00  0.00    +0.174 C 
ATOM      2  O   UNL     1      -5.702   3.790  25.892  0.00  0.00    -0.347 OA
ENDBRANCH   3   2
ENDBRANCH   4   3
ENDBRANCH   5   4
ENDBRANCH   6   5
ENDBRANCH  12   9
BRANCH  15  17
ATOM     17  C   UNL     1       0.176   0.765  23.960  0.00  0.00    +0.138 C 
ATOM     18  C   UNL     1       0.695   0.731  23.319  0.00  0.00    +0.027 C 
ATOM     19  C   UNL     1       0.821  -0.063  23.135  0.00  0.00    +0.019 C 
ATOM     20  C   UNL     1       0.382  -0.520  23.663  0.00  0.00    +0.073 C 
ATOM     21  N   UNL     1      -0.017  -0.008  24.173  0.00  0.00    -0.263 NA
BRANCH  21  22
ATOM     22  C   UNL     1      -0.520  -0.231  24.787  0.00  0.00    +0.099 C 
BRANCH  22  23
ATOM     23  C   UNL     1      -1.024  -0.877  24.695  0.00  0.00    -0.006 A 
ATOM     24  C   UNL     1      -1.736  -0.790  24.289  0.00  0.00    -0.002 A 
ATOM     25  C   UNL     1      -2.241  -1.437  24.196  0.00  0.00    +0.016 A 
ATOM     26  C   UNL     1      -2.031  -2.170  24.510  0.00  0.00    +0.073 A 
ATOM     31  C   UNL     1      -1.319  -2.257  24.916  0.00  0.00    +0.016 A 
ATOM     32  C   UNL     1      -0.815  -1.611  25.009  0.00  0.00    -0.002 A 
BRANCH  26  27
ATOM     27  N   UNL     1      -2.536  -2.817  24.418  0.00  0.00    -0.179 NA
ATOM     28  C   UNL     1      -3.285  -2.808  24.764  0.00  0.00    +0.246 C 
ATOM     29  C   UNL     1      -3.529  -2.155  25.202  0.00  0.00    +0.097 C 
ATOM     30  O   UNL     1      -3.789  -3.455  24.671  0.00  0.00    -0.273 OA
ENDBRANCH  26  27
ENDBRANCH  22  23
ENDBRANCH  21  22
ENDBRANCH  15  17
TORSDOF 9
ENDMDL
MODEL 6
REMARK VINA RESULT:      -7.6      1.799      3.134
REMARK  Name = 
REMARK  9 active torsions:
REMARK  status: ('A' for Active; 'I' for Inactive)
REMARK    1  A    between atoms: O_2  and  C_3
REMARK    2  A    between atoms: C_3  and  C_4
REMARK    3  A    between atoms: C_4  and  O_5
REMARK    4  A    between atoms: O_5  and  C_6
REMARK    5  A    between atoms: C_9  and  C_12
REMARK    6  A    between atoms: C_15  and  C_17
REMARK    7  A    between atoms: N_21  and  C_22
REMARK    8  A    between atoms: C_22  and  C_23
REMARK    9  A    between atoms: C_26  and  N_27
REMARK                            x       y       z     vdW  Elec       q    Type
REMARK                         _______ _______ _______ _____ _____    ______ ____
ROOT
ATOM     12  C   UNL     1      -0.207   1.548  24.268  0.00  0.00    +0.205 A 
ATOM     13  N   UNL     1      -0.234   1.863  25.031  0.00  0.00    -0.056 NA
ATOM     14  O   UNL     1      -1.013   2.085  25.187  0.00  0.00    -0.336 OA
ATOM     15  C   UNL     1      -1.467   1.907  24.522  0.00  0.00    +0.251 A 
ATOM     16  N   UNL     1      -0.969   1.575  23.954  0.00  0.00    -0.190 NA
ENDROOT
BRANCH  12   9
ATOM      6  C   UNL     1       1.808   0.674  23.126  0.00  0.00    +0.225 A 
ATOM      7  C   UNL     1       1.106   0.241  23.114  0.00  0.00    +0.058 A 
ATOM      8  C   UNL     1       0.434   0.532  23.495  0.00  0.00    +0.010 A 
ATOM      9  C   UNL     1       0.465   1.256  23.887  0.00  0.00    +0.058 A 
ATOM     10  C   UNL     1       1.166   1.691  23.900  0.00  0.00    +0.105 A 
ATOM     11  N   UNL     1       1.838   1.400  23.519  0.00  0.00    -0.210 NA
BRANCH   6   5
ATOM      5  O   UNL     1       2.479   0.383  22.745  0.00  0.00    -0.457 OA
BRANCH   5   4
ATOM      4  C   UNL     1       3.223   0.686  22.933  0.00  0.00    +0.239 C 
BRANCH   4   3
ATOM      3  C   UNL     1       3.901   0.248  22.763  0.00  0.00    +0.189 C 
BRANCH   3   2
ATOM      1  C   UNL     1       5.232   0.156  23.276  0.00  0.00    +0.174 C 
ATOM      2  O   UNL     1       4.647   0.581  22.878  0.00  0.00    -0.347 OA
ENDBRANCH   3   2
ENDBRANCH   4   3
ENDBRANCH   5   4
ENDBRANCH   6   5
ENDBRANCH  12   9
BRANCH  15  17
ATOM     17  C   UNL     1      -2.277   2.038  24.439  0.00  0.00    +0.138 C 
ATOM     18  C   UNL     1      -2.629   2.713  24.120  0.00  0.00    +0.027 C 
ATOM     19  C   UNL     1      -3.447   2.609  24.144  0.00  0.00    +0.019 C 
ATOM     20  C   UNL     1      -3.601   1.870  24.477  0.00  0.00    +0.073 C 
ATOM     21  N   UNL     1      -2.878   1.517  24.660  0.00  0.00    -0.263 NA
BRANCH  21  22
ATOM     22  C   UNL     1      -2.774   0.774  25.002  0.00  0.00    +0.099 C 
BRANCH  22  23
ATOM     23  C   UNL     1      -3.223   0.133  24.742  0.00  0.00    -0.006 A 
ATOM     24  C   UNL     1      -3.164  -0.122  23.960  0.00  0.00    -0.002 A 
ATOM     25  C   UNL     1      -3.614  -0.763  23.700  0.00  0.00    +0.016 A 
ATOM     26  C   UNL     1      -4.122  -1.149  24.223  0.00  0.00    +0.073 A 
ATOM     31  C   UNL     1      -4.181  -0.894  25.005  0.00  0.00    +0.016 A 
ATOM     32  C   UNL     1      -3.732  -0.253  25.265  0.00  0.00    -0.002 A 
BRANCH  26  27
ATOM     27  N   UNL     1      -4.572  -1.791  23.962  0.00  0.00    -0.179 NA
ATOM     28  C   UNL     1      -4.255  -2.552  23.987  0.00  0.00    +0.246 C 
ATOM     29  C   UNL     1      -3.491  -2.673  24.272  0.00  0.00    +0.097 C 
ATOM     30  O   UNL     1      -4.705  -3.194  23.727  0.00  0.00    -0.273 OA
ENDBRANCH  26  27
ENDBRANCH  22  23
ENDBRANCH  21  22
ENDBRANCH  15  17
TORSDOF 9
ENDMDL
MODEL 7
REMARK VINA RESULT:      -7.6      1.638      2.326
REMARK  Name = 
REMARK  9 active torsions:
REMARK  status: ('A' for Active; 'I' for Inactive)
REMARK    1  A    between atoms: O_2  and  C_3
REMARK    2  A    between atoms: C_3  and  C_4
REMARK    3  A    between atoms: C_4  and  O_5
REMARK    4  A    between atoms: O_5  and  C_6
REMARK    5  A    between atoms: C_9  and  C_12
REMARK    6  A    between atoms: C_15  and  C_17
REMARK    7  A    between atoms: N_21  and  C_22
REMARK    8  A    between atoms: C_22  and  C_23
REMARK    9  A    between atoms: C_26  and  N_27
REMARK                            x       y       z     vdW  Elec       q    Type
REMARK                         _______ _______ _______ _____ _____    ______ ____
ROOT
ATOM     12  C   UNL     1      -0.029   1.297  24.471  0.00  0.00    +0.205 A 
ATOM     13  N   UNL     1      -0.421   0.836  25.033  0.00  0.00    -0.056 NA
ATOM     14  O   UNL     1      -1.020   1.295  25.366  0.00  0.00    -0.336 OA
ATOM     15  C   UNL     1      -0.999   2.039  25.011  0.00  0.00    +0.251 A 
ATOM     16  N   UNL     1      -0.386   2.041  24.458  0.00  0.00    -0.190 NA
ENDROOT
BRANCH  12   9
ATOM      6  C   UNL     1       1.882   0.576  23.073  0.00  0.00    +0.225 A 
ATOM      7  C   UNL     1       1.199   0.114  23.110  0.00  0.00    +0.058 A 
ATOM      8  C   UNL     1       0.562   0.355  23.576  0.00  0.00    +0.010 A 
ATOM      9  C   UNL     1       0.608   1.057  24.005  0.00  0.00    +0.058 A 
ATOM     10  C   UNL     1       1.290   1.520  23.969  0.00  0.00    +0.105 A 
ATOM     11  N   UNL     1       1.927   1.280  23.503  0.00  0.00    -0.210 NA
BRANCH   6   5
ATOM      5  O   UNL     1       2.519   0.336  22.607  0.00  0.00    -0.457 OA
BRANCH   5   4
ATOM      4  C   UNL     1       3.274   0.634  22.756  0.00  0.00    +0.239 C 
BRANCH   4   3
ATOM      3  C   UNL     1       3.939   0.180  22.576  0.00  0.00    +0.189 C 
BRANCH   3   2
ATOM      1  C   UNL     1       5.231   0.096  23.180  0.00  0.00    +0.174 C 
ATOM      2  O   UNL     1       4.694   0.490  22.693  0.00  0.00    -0.347 OA
ENDBRANCH   3   2
ENDBRANCH   4   3
ENDBRANCH   5   4
ENDBRANCH   6   5
ENDBRANCH  12   9
BRANCH  15  17
ATOM     17  C   UNL     1      -1.502   2.671  25.179  0.00  0.00    +0.138 C 
ATOM     18  C   UNL     1      -1.328   3.312  25.670  0.00  0.00    +0.027 C 
ATOM     19  C   UNL     1      -1.985   3.810  25.681  0.00  0.00    +0.019 C 
ATOM     20  C   UNL     1      -2.565   3.479  25.196  0.00  0.00    +0.073 C 
ATOM     21  N   UNL     1      -2.266   2.774  24.886  0.00  0.00    -0.263 NA
BRANCH  21  22
ATOM     22  C   UNL     1      -2.662   2.264  24.374  0.00  0.00    +0.099 C 
BRANCH  22  23
ATOM     23  C   UNL     1      -3.475   2.149  24.453  0.00  0.00    -0.006 A 
ATOM     24  C   UNL     1      -4.001   2.726  24.188  0.00  0.00    -0.002 A 
ATOM     25  C   UNL     1      -4.815   2.610  24.266  0.00  0.00    +0.016 A 
ATOM     26  C   UNL     1      -5.101   1.917  24.611  0.00  0.00    +0.073 A 
ATOM     31  C   UNL     1      -4.575   1.341  24.876  0.00  0.00    +0.016 A 
ATOM     32  C   UNL     1      -3.762   1.456  24.797  0.00  0.00    -0.002 A 
BRANCH  26  27
ATOM     27  N   UNL     1      -5.914   1.802  24.690  0.00  0.00    -0.179 NA
ATOM     28  C   UNL     1      -6.289   1.986  25.401  0.00  0.00    +0.246 C 
ATOM     29  C   UNL     1      -5.853   2.285  26.033  0.00  0.00    +0.097 C 
ATOM     30  O   UNL     1      -7.103   1.871  25.480  0.00  0.00    -0.273 OA
ENDBRANCH  26  27
ENDBRANCH  22  23
ENDBRANCH  21  22
ENDBRANCH  15  17
TORSDOF 9
ENDMDL
MODEL 8
REMARK VINA RESULT:      -5.4     15.845     17.992
REMARK  Name = 
REMARK  9 active torsions:
REMARK  status: ('A' for Active; 'I' for Inactive)
REMARK    1  A    between atoms: O_2  and  C_3
REMARK    2  A    between atoms: C_3  and  C_4
REMARK    3  A    between atoms: C_4  and  O_5
REMARK    4  A    between atoms: O_5  and  C_6
REMARK    5  A    between atoms: C_9  and  C_12
REMARK    6  A    between atoms: C_15  and  C_17
REMARK    7  A    between atoms: N_21  and  C_22
REMARK    8  A    between atoms: C_22  and  C_23
REMARK    9  A    between atoms: C_26  and  N_27
REMARK                            x       y       z     vdW  Elec       q    Type
REMARK                         _______ _______ _______ _____ _____    ______ ____
ROOT
ATOM     12  C   UNL     1      -8.430  -9.821  11.711  0.00  0.00    +0.205 A 
ATOM     13  N   UNL     1      -8.535 -10.462  11.202  0.00  0.00    -0.056 NA
ATOM     14  O   UNL     1      -8.177 -10.278  10.482  0.00  0.00    -0.336 OA
ATOM     15  C   UNL     1      -7.851  -9.523  10.545  0.00  0.00    +0.251 A 
ATOM     16  N   UNL     1      -8.008  -9.240  11.305  0.00  0.00    -0.190 NA
ENDROOT
BRANCH  12   9
ATOM      6  C   UNL     1      -9.242  -9.667  14.044  0.00  0.00    +0.225 A 
ATOM      7  C   UNL     1      -8.434  -9.732  13.891  0.00  0.00    +0.058 A 
ATOM      8  C   UNL     1      -8.163  -9.784  13.113  0.00  0.00    +0.010 A 
ATOM      9  C   UNL     1      -8.701  -9.769  12.488  0.00  0.00    +0.058 A 
ATOM     10  C   UNL     1      -9.509  -9.704  12.640  0.00  0.00    +0.105 A 
ATOM     11  N   UNL     1      -9.780  -9.653  13.417  0.00  0.00    -0.210 NA
BRANCH   6   5
ATOM      5  O   UNL     1      -9.512  -9.616  14.821  0.00  0.00    -0.457 OA
BRANCH   5   4
ATOM      4  C   UNL     1      -9.449  -8.903  15.233  0.00  0.00    +0.239 C 
BRANCH   4   3
ATOM      3  C   UNL     1      -9.648  -8.871  16.034  0.00  0.00    +0.189 C 
BRANCH   3   2
ATOM      1  C   UNL     1      -9.868  -8.086  17.207  0.00  0.00    +0.174 C 
ATOM      2  O   UNL     1      -9.831  -8.148  16.385  0.00  0.00    -0.347 OA
ENDBRANCH   3   2
ENDBRANCH   4   3
ENDBRANCH   5   4
ENDBRANCH   6   5
ENDBRANCH  12   9
BRANCH  15  17
ATOM     17  C   UNL     1      -7.441  -9.120   9.954  0.00  0.00    +0.138 C 
ATOM     18  C   UNL     1      -7.764  -8.576   9.424  0.00  0.00    +0.027 C 
ATOM     19  C   UNL     1      -7.159  -8.310   8.931  0.00  0.00    +0.019 C 
ATOM     20  C   UNL     1      -6.461  -8.690   9.155  0.00  0.00    +0.073 C 
ATOM     21  N   UNL     1      -6.636  -9.191   9.787  0.00  0.00    -0.263 NA
BRANCH  21  22
ATOM     22  C   UNL     1      -6.100  -9.676  10.183  0.00  0.00    +0.099 C 
BRANCH  22  23
ATOM     23  C   UNL     1      -5.294  -9.501  10.167  0.00  0.00    -0.006 A 
ATOM     24  C   UNL     1      -4.984  -8.941  10.687  0.00  0.00    -0.002 A 
ATOM     25  C   UNL     1      -4.177  -8.765  10.672  0.00  0.00    +0.016 A 
ATOM     26  C   UNL     1      -3.682  -9.150  10.135  0.00  0.00    +0.073 A 
ATOM     31  C   UNL     1      -3.993  -9.709   9.615  0.00  0.00    +0.016 A 
ATOM     32  C   UNL     1      -4.799  -9.885   9.631  0.00  0.00    -0.002 A 
BRANCH  26  27
ATOM     27  N   UNL     1      -2.876  -8.974  10.119  0.00  0.00    -0.179 NA
ATOM     28  C   UNL     1      -2.361  -9.355  10.639  0.00  0.00    +0.246 C 
ATOM     29  C   UNL     1      -2.651  -9.912  11.173  0.00  0.00    +0.097 C 
ATOM     30  O   UNL     1      -1.555  -9.179  10.623  0.00  0.00    -0.273 OA
ENDBRANCH  26  27
ENDBRANCH  22  23
ENDBRANCH  21  22
ENDBRANCH  15  17
TORSDOF 9
ENDMDL
