REMARK  Name = 
REMARK  6 active torsions:
REMARK  status: ('A' for Active; 'I' for Inactive)
REMARK    1  A    between atoms: O_2  and  C_3
REMARK    2  A    between atoms: C_3  and  C_4
REMARK    3  A    between atoms: N_6  and  C_7
REMARK    4  A    between atoms: C_7  and  C_8
REMARK    5  A    between atoms: C_11  and  N_12
REMARK    6  A    between atoms: N_12  and  C_13
REMARK                            x       y       z     vdW  Elec       q    Type
REMARK                         _______ _______ _______ _____ _____    ______ ____
ROOT
ATOM      8  C   UNL     1       0.032  -4.663   0.000  0.00  0.00    +0.169 C 
ATOM      9  O   UNL     1       0.118  -3.842   0.000  0.00  0.00    -0.350 OA
ATOM     10  C   UNL     1       0.925  -3.671   0.000  0.00  0.00    +0.162 C 
ATOM     11  C   UNL     1       1.337  -4.386   0.000  0.00  0.00    +0.135 C 
ATOM     21  C   UNL     1       0.785  -4.999   0.000  0.00  0.00    +0.199 C 
ATOM     22  O   UNL     1       0.957  -5.806   0.000  0.00  0.00    -0.219 OA
ENDROOT
BRANCH   8   7
ATOM      7  C   UNL     1      -0.683  -5.075   0.000  0.00  0.00    +0.147 C 
BRANCH   7   6
ATOM      4  C   UNL     1      -2.112  -5.075   0.000  0.00  0.00    +0.272 C 
ATOM      5  O   UNL     1      -2.112  -5.901   0.000  0.00  0.00    -0.271 OA
ATOM      6  N   UNL     1      -1.397  -4.663   0.000  0.00  0.00    -0.201 NA
BRANCH   4   3
ATOM      3  C   UNL     1      -2.826  -4.663   0.000  0.00  0.00    +0.229 C 
BRANCH   3   2
ATOM      1  C   UNL     1      -4.255  -4.663   0.000  0.00  0.00    +0.175 C 
ATOM      2  O   UNL     1      -3.541  -5.075   0.000  0.00  0.00    -0.342 OA
ENDBRANCH   3   2
ENDBRANCH   4   3
ENDBRANCH   7   6
ENDBRANCH   8   7
BRANCH  11  12
ATOM     12  N   UNL     1       2.158  -4.472   0.000  0.00  0.00    -0.216 NA
BRANCH  12  13
ATOM     13  C   UNL     1       2.643  -3.804   0.000  0.00  0.00    +0.073 C 
ATOM     14  C   UNL     1       2.307  -3.051   0.000  0.00  0.00    +0.023 C 
ATOM     15  C   UNL     1       2.792  -2.383   0.000  0.00  0.00    +0.068 C 
ATOM     16  C   UNL     1       3.612  -2.469   0.000  0.00  0.00    +0.264 C 
ATOM     17  F   UNL     1       3.555  -1.646   0.000  0.00  0.00    -0.204 F 
ATOM     18  F   UNL     1       4.413  -2.270   0.000  0.00  0.00    -0.204 F 
ATOM     19  C   UNL     1       3.948  -3.223   0.000  0.00  0.00    +0.068 C 
ATOM     20  C   UNL     1       3.463  -3.890   0.000  0.00  0.00    +0.023 C 
ENDBRANCH  12  13
ENDBRANCH  11  12
TORSDOF 6
