MODEL 1
REMARK VINA RESULT:     -11.1      0.000      0.000
REMARK  Name = 
REMARK  2 active torsions:
REMARK  status: ('A' for Active; 'I' for Inactive)
REMARK    1  A    between atoms: C_2  and  N_4
REMARK    2  A    between atoms: C_10  and  C_12
REMARK                            x       y       z     vdW  Elec       q    Type
REMARK                         _______ _______ _______ _____ _____    ______ ____
ROOT
ATOM      4  N   UNL     1      -2.295   3.617  24.809  0.00  0.00    -0.190 NA
ATOM      5  C   UNL     1      -2.197   2.836  25.059  0.00  0.00    +0.323 C 
ATOM      6  O   UNL     1      -1.636   2.657  25.638  0.00  0.00    -0.251 OA
ATOM      7  N   UNL     1      -2.659   2.237  24.732  0.00  0.00    -0.262 N 
ATOM      8  C   UNL     1      -3.239   2.333  24.153  0.00  0.00    +0.096 C 
ATOM      9  C   UNL     1      -3.561   1.591  23.989  0.00  0.00    +0.031 C 
ATOM     10  C   UNL     1      -3.180   1.037  24.468  0.00  0.00    +0.080 C 
ATOM     11  C   UNL     1      -2.623   1.436  24.927  0.00  0.00    +0.103 C 
ENDROOT
BRANCH  10  12
ATOM     12  C   UNL     1      -3.331   0.226  24.484  0.00  0.00    +0.140 A 
ATOM     13  N   UNL     1      -3.073  -0.304  25.061  0.00  0.00    -0.229 NA
ATOM     14  C   UNL     1      -3.348  -1.055  24.860  0.00  0.00    +0.102 A 
ATOM     15  C   UNL     1      -3.777  -0.989  24.158  0.00  0.00    +0.100 A 
ATOM     16  N   UNL     1      -3.767  -0.198  23.926  0.00  0.00    -0.229 NA
ATOM     17  C   UNL     1      -4.122  -1.659  23.822  0.00  0.00    +0.023 A 
ATOM     18  C   UNL     1      -4.038  -2.394  24.187  0.00  0.00    +0.031 A 
ATOM     19  C   UNL     1      -3.609  -2.459  24.888  0.00  0.00    +0.142 A 
ATOM     20  F   UNL     1      -3.524  -3.194  25.254  0.00  0.00    -0.204 F 
ATOM     21  C   UNL     1      -3.264  -1.790  25.225  0.00  0.00    +0.050 A 
ENDBRANCH  10  12
BRANCH   4   2
ATOM      1  C   UNL     1      -1.059   4.330  24.872  0.00  0.00    +0.023 C 
ATOM      2  C   UNL     1      -1.833   4.216  25.136  0.00  0.00    +0.097 C 
ATOM      3  C   UNL     1      -2.143   4.700  25.727  0.00  0.00    +0.023 C 
ENDBRANCH   4   2
TORSDOF 2
ENDMDL
MODEL 2
REMARK VINA RESULT:     -11.0      2.246      5.134
REMARK  Name = 
REMARK  2 active torsions:
REMARK  status: ('A' for Active; 'I' for Inactive)
REMARK    1  A    between atoms: C_2  and  N_4
REMARK    2  A    between atoms: C_10  and  C_12
REMARK                            x       y       z     vdW  Elec       q    Type
REMARK                         _______ _______ _______ _____ _____    ______ ____
ROOT
ATOM      4  N   UNL     1      -3.917  -0.891  24.585  0.00  0.00    -0.190 NA
ATOM      5  C   UNL     1      -3.240  -0.421  24.622  0.00  0.00    +0.323 C 
ATOM      6  O   UNL     1      -2.493  -0.770  24.581  0.00  0.00    -0.251 OA
ATOM      7  N   UNL     1      -3.309   0.397  24.701  0.00  0.00    -0.262 N 
ATOM      8  C   UNL     1      -4.014   0.822  24.749  0.00  0.00    +0.096 C 
ATOM      9  C   UNL     1      -3.826   1.622  24.823  0.00  0.00    +0.031 C 
ATOM     10  C   UNL     1      -3.003   1.691  24.821  0.00  0.00    +0.080 C 
ATOM     11  C   UNL     1      -2.684   0.935  24.746  0.00  0.00    +0.103 C 
ENDROOT
BRANCH  10  12
ATOM     12  C   UNL     1      -2.576   2.394  24.884  0.00  0.00    +0.140 A 
ATOM     13  N   UNL     1      -2.864   3.114  25.164  0.00  0.00    -0.229 NA
ATOM     14  C   UNL     1      -2.252   3.665  25.130  0.00  0.00    +0.102 A 
ATOM     15  C   UNL     1      -1.584   3.286  24.829  0.00  0.00    +0.100 A 
ATOM     16  N   UNL     1      -1.784   2.501  24.676  0.00  0.00    -0.229 NA
ATOM     17  C   UNL     1      -0.880   3.705  24.732  0.00  0.00    +0.023 A 
ATOM     18  C   UNL     1      -0.844   4.503  24.937  0.00  0.00    +0.031 A 
ATOM     19  C   UNL     1      -1.511   4.882  25.239  0.00  0.00    +0.142 A 
ATOM     20  F   UNL     1      -1.476   5.680  25.444  0.00  0.00    -0.204 F 
ATOM     21  C   UNL     1      -2.215   4.464  25.336  0.00  0.00    +0.050 A 
ENDBRANCH  10  12
BRANCH   4   2
ATOM      1  C   UNL     1      -4.089  -2.077  23.808  0.00  0.00    +0.023 C 
ATOM      2  C   UNL     1      -3.848  -1.709  24.506  0.00  0.00    +0.097 C 
ATOM      3  C   UNL     1      -3.537  -2.158  25.124  0.00  0.00    +0.023 C 
ENDBRANCH   4   2
TORSDOF 2
ENDMDL
MODEL 3
REMARK VINA RESULT:     -10.1      2.536      4.936
REMARK  Name = 
REMARK  2 active torsions:
REMARK  status: ('A' for Active; 'I' for Inactive)
REMARK    1  A    between atoms: C_2  and  N_4
REMARK    2  A    between atoms: C_10  and  C_12
REMARK                            x       y       z     vdW  Elec       q    Type
REMARK                         _______ _______ _______ _____ _____    ______ ____
ROOT
ATOM      4  N   UNL     1      -3.066  -1.773  24.276  0.00  0.00    -0.190 NA
ATOM      5  C   UNL     1      -3.389  -1.223  24.799  0.00  0.00    +0.323 C 
ATOM      6  O   UNL     1      -3.575  -1.448  25.571  0.00  0.00    -0.251 OA
ATOM      7  N   UNL     1      -3.527  -0.448  24.550  0.00  0.00    -0.262 N 
ATOM      8  C   UNL     1      -3.370  -0.145  23.799  0.00  0.00    +0.096 C 
ATOM      9  C   UNL     1      -3.592   0.650  23.794  0.00  0.00    +0.031 C 
ATOM     10  C   UNL     1      -3.886   0.838  24.543  0.00  0.00    +0.080 C 
ATOM     11  C   UNL     1      -3.846   0.159  25.009  0.00  0.00    +0.103 C 
ENDROOT
BRANCH  10  12
ATOM     12  C   UNL     1      -4.171   1.574  24.781  0.00  0.00    +0.140 A 
ATOM     13  N   UNL     1      -4.962   1.774  24.900  0.00  0.00    -0.229 NA
ATOM     14  C   UNL     1      -4.994   2.563  25.135  0.00  0.00    +0.102 A 
ATOM     15  C   UNL     1      -4.221   2.852  25.162  0.00  0.00    +0.100 A 
ATOM     16  N   UNL     1      -3.713   2.242  24.944  0.00  0.00    -0.229 NA
ATOM     17  C   UNL     1      -4.082   3.635  25.382  0.00  0.00    +0.023 A 
ATOM     18  C   UNL     1      -4.714   4.129  25.575  0.00  0.00    +0.031 A 
ATOM     19  C   UNL     1      -5.486   3.839  25.548  0.00  0.00    +0.142 A 
ATOM     20  F   UNL     1      -6.119   4.332  25.741  0.00  0.00    -0.204 F 
ATOM     21  C   UNL     1      -5.627   3.057  25.328  0.00  0.00    +0.050 A 
ENDBRANCH  10  12
BRANCH   4   2
ATOM      1  C   UNL     1      -2.170  -2.777  24.755  0.00  0.00    +0.023 C 
ATOM      2  C   UNL     1      -2.928  -2.547  24.524  0.00  0.00    +0.097 C 
ATOM      3  C   UNL     1      -3.547  -3.091  24.542  0.00  0.00    +0.023 C 
ENDBRANCH   4   2
TORSDOF 2
ENDMDL
MODEL 4
REMARK VINA RESULT:      -9.5      2.685      4.335
REMARK  Name = 
REMARK  2 active torsions:
REMARK  status: ('A' for Active; 'I' for Inactive)
REMARK    1  A    between atoms: C_2  and  N_4
REMARK    2  A    between atoms: C_10  and  C_12
REMARK                            x       y       z     vdW  Elec       q    Type
REMARK                         _______ _______ _______ _____ _____    ______ ____
ROOT
ATOM      4  N   UNL     1      -1.393  -0.959  24.441  0.00  0.00    -0.190 NA
ATOM      5  C   UNL     1      -1.682  -0.315  24.868  0.00  0.00    +0.323 C 
ATOM      6  O   UNL     1      -1.239  -0.001  25.491  0.00  0.00    -0.251 OA
ATOM      7  N   UNL     1      -2.412   0.016  24.673  0.00  0.00    -0.262 N 
ATOM      8  C   UNL     1      -2.913  -0.237  24.069  0.00  0.00    +0.096 C 
ATOM      9  C   UNL     1      -3.581   0.248  24.071  0.00  0.00    +0.031 C 
ATOM     10  C   UNL     1      -3.492   0.801  24.677  0.00  0.00    +0.080 C 
ATOM     11  C   UNL     1      -2.770   0.657  25.049  0.00  0.00    +0.103 C 
ENDROOT
BRANCH  10  12
ATOM     12  C   UNL     1      -4.031   1.393  24.876  0.00  0.00    +0.140 A 
ATOM     13  N   UNL     1      -3.894   2.206  24.840  0.00  0.00    -0.229 NA
ATOM     14  C   UNL     1      -4.579   2.591  25.087  0.00  0.00    +0.102 A 
ATOM     15  C   UNL     1      -5.140   2.017  25.276  0.00  0.00    +0.100 A 
ATOM     16  N   UNL     1      -4.802   1.277  25.146  0.00  0.00    -0.229 NA
ATOM     17  C   UNL     1      -5.888   2.244  25.543  0.00  0.00    +0.023 A 
ATOM     18  C   UNL     1      -6.074   3.043  25.621  0.00  0.00    +0.031 A 
ATOM     19  C   UNL     1      -5.512   3.617  25.431  0.00  0.00    +0.142 A 
ATOM     20  F   UNL     1      -5.698   4.417  25.508  0.00  0.00    -0.204 F 
ATOM     21  C   UNL     1      -4.765   3.392  25.164  0.00  0.00    +0.050 A 
ENDBRANCH  10  12
BRANCH   4   2
ATOM      1  C   UNL     1      -0.618  -1.879  25.211  0.00  0.00    +0.023 C 
ATOM      2  C   UNL     1      -0.663  -1.289  24.636  0.00  0.00    +0.097 C 
ATOM      3  C   UNL     1       0.022  -1.029  24.257  0.00  0.00    +0.023 C 
ENDBRANCH   4   2
TORSDOF 2
ENDMDL
MODEL 5
REMARK VINA RESULT:      -8.4     16.193     18.436
REMARK  Name = 
REMARK  2 active torsions:
REMARK  status: ('A' for Active; 'I' for Inactive)
REMARK    1  A    between atoms: C_2  and  N_4
REMARK    2  A    between atoms: C_10  and  C_12
REMARK                            x       y       z     vdW  Elec       q    Type
REMARK                         _______ _______ _______ _____ _____    ______ ____
ROOT
ATOM      4  N   UNL     1      16.093   6.654  19.365  0.00  0.00    -0.190 NA
ATOM      5  C   UNL     1      15.579   6.542  20.001  0.00  0.00    +0.323 C 
ATOM      6  O   UNL     1      15.822   6.097  20.653  0.00  0.00    -0.251 OA
ATOM      7  N   UNL     1      14.825   6.876  19.987  0.00  0.00    -0.262 N 
ATOM      8  C   UNL     1      14.508   7.332  19.377  0.00  0.00    +0.096 C 
ATOM      9  C   UNL     1      13.742   7.550  19.593  0.00  0.00    +0.031 C 
ATOM     10  C   UNL     1      13.586   7.228  20.337  0.00  0.00    +0.080 C 
ATOM     11  C   UNL     1      14.255   6.812  20.580  0.00  0.00    +0.103 C 
ENDROOT
BRANCH  10  12
ATOM     12  C   UNL     1      12.883   7.309  20.762  0.00  0.00    +0.140 A 
ATOM     13  N   UNL     1      12.278   6.750  20.809  0.00  0.00    -0.229 NA
ATOM     14  C   UNL     1      11.684   7.058  21.291  0.00  0.00    +0.102 A 
ATOM     15  C   UNL     1      11.922   7.808  21.542  0.00  0.00    +0.100 A 
ATOM     16  N   UNL     1      12.663   7.963  21.215  0.00  0.00    -0.229 NA
ATOM     17  C   UNL     1      11.432   8.252  22.035  0.00  0.00    +0.023 A 
ATOM     18  C   UNL     1      10.706   7.947  22.278  0.00  0.00    +0.031 A 
ATOM     19  C   UNL     1      10.468   7.198  22.028  0.00  0.00    +0.142 A 
ATOM     20  F   UNL     1       9.741   6.893  22.270  0.00  0.00    -0.204 F 
ATOM     21  C   UNL     1      10.957   6.753  21.534  0.00  0.00    +0.050 A 
ENDBRANCH  10  12
BRANCH   4   2
ATOM      1  C   UNL     1      17.042   5.719  18.849  0.00  0.00    +0.023 C 
ATOM      2  C   UNL     1      16.847   6.321  19.380  0.00  0.00    +0.097 C 
ATOM      3  C   UNL     1      17.405   6.588  19.924  0.00  0.00    +0.023 C 
ENDBRANCH   4   2
TORSDOF 2
ENDMDL
