MODEL 1
REMARK VINA RESULT:     -11.2      0.000      0.000
REMARK  Name = 
REMARK  8 active torsions:
REMARK  status: ('A' for Active; 'I' for Inactive)
REMARK    1  A    between atoms: O_2  and  C_3
REMARK    2  A    between atoms: C_3  and  C_4
REMARK    3  A    between atoms: C_4  and  O_5
REMARK    4  A    between atoms: O_5  and  C_6
REMARK    5  A    between atoms: C_8  and  C_12
REMARK    6  A    between atoms: C_15  and  C_17
REMARK    7  A    between atoms: N_21  and  C_22
REMARK    8  A    between atoms: C_22  and  C_23
REMARK                            x       y       z     vdW  Elec       q    Type
REMARK                         _______ _______ _______ _____ _____    ______ ____
ROOT
ATOM     12  C   UNL     1      -3.155   3.303  24.696  0.00  0.00    +0.221 A 
ATOM     13  N   UNL     1      -3.623   3.456  24.033  0.00  0.00    -0.054 NA
ATOM     14  O   UNL     1      -4.275   2.950  24.060  0.00  0.00    -0.336 OA
ATOM     15  C   UNL     1      -4.209   2.485  24.738  0.00  0.00    +0.251 A 
ATOM     16  N   UNL     1      -3.517   2.703  25.131  0.00  0.00    -0.188 NA
ENDROOT
BRANCH  12   8
ATOM      6  C   UNL     1      -1.042   3.629  25.135  0.00  0.00    +0.142 A 
ATOM      7  C   UNL     1      -1.748   3.249  24.942  0.00  0.00    +0.059 A 
ATOM      8  C   UNL     1      -2.448   3.683  24.888  0.00  0.00    +0.123 A 
ATOM      9  N   UNL     1      -2.442   4.496  25.026  0.00  0.00    -0.240 NA
ATOM     10  C   UNL     1      -1.736   4.876  25.219  0.00  0.00    +0.102 A 
ATOM     11  C   UNL     1      -1.035   4.443  25.273  0.00  0.00    +0.058 A 
BRANCH   6   5
ATOM      5  O   UNL     1      -0.342   3.197  25.189  0.00  0.00    -0.473 OA
BRANCH   5   4
ATOM      4  C   UNL     1      -0.099   2.722  24.559  0.00  0.00    +0.237 C 
BRANCH   4   3
ATOM      3  C   UNL     1       0.420   2.095  24.692  0.00  0.00    +0.189 C 
BRANCH   3   2
ATOM      1  C   UNL     1       0.967   1.132  23.788  0.00  0.00    +0.174 C 
ATOM      2  O   UNL     1       0.974   1.889  24.116  0.00  0.00    -0.347 OA
ENDBRANCH   3   2
ENDBRANCH   4   3
ENDBRANCH   5   4
ENDBRANCH   6   5
ENDBRANCH  12   8
BRANCH  15  17
ATOM     17  C   UNL     1      -4.742   1.905  24.981  0.00  0.00    +0.138 C 
ATOM     18  C   UNL     1      -5.461   2.036  25.365  0.00  0.00    +0.027 C 
ATOM     19  C   UNL     1      -5.813   1.303  25.505  0.00  0.00    +0.019 C 
ATOM     20  C   UNL     1      -5.313   0.719  25.207  0.00  0.00    +0.073 C 
ATOM     21  N   UNL     1      -4.651   1.091  24.884  0.00  0.00    -0.263 NA
BRANCH  21  22
ATOM     22  C   UNL     1      -4.010   0.714  24.526  0.00  0.00    +0.099 C 
BRANCH  22  23
ATOM     23  C   UNL     1      -3.942  -0.107  24.561  0.00  0.00    -0.006 A 
ATOM     24  C   UNL     1      -3.592  -0.464  25.218  0.00  0.00    -0.003 A 
ATOM     25  C   UNL     1      -3.524  -1.285  25.254  0.00  0.00    -0.005 A 
ATOM     26  C   UNL     1      -3.804  -1.750  24.633  0.00  0.00    -0.022 A 
ATOM     27  C   UNL     1      -3.736  -2.572  24.668  0.00  0.00    +0.031 C 
ATOM     28  C   UNL     1      -4.154  -1.393  23.975  0.00  0.00    -0.005 A 
ATOM     29  C   UNL     1      -4.222  -0.571  23.940  0.00  0.00    -0.003 A 
ENDBRANCH  22  23
ENDBRANCH  21  22
ENDBRANCH  15  17
TORSDOF 8
ENDMDL
MODEL 2
REMARK VINA RESULT:     -11.0      1.716      3.658
REMARK  Name = 
REMARK  8 active torsions:
REMARK  status: ('A' for Active; 'I' for Inactive)
REMARK    1  A    between atoms: O_2  and  C_3
REMARK    2  A    between atoms: C_3  and  C_4
REMARK    3  A    between atoms: C_4  and  O_5
REMARK    4  A    between atoms: O_5  and  C_6
REMARK    5  A    between atoms: C_8  and  C_12
REMARK    6  A    between atoms: C_15  and  C_17
REMARK    7  A    between atoms: N_21  and  C_22
REMARK    8  A    between atoms: C_22  and  C_23
REMARK                            x       y       z     vdW  Elec       q    Type
REMARK                         _______ _______ _______ _____ _____    ______ ____
ROOT
ATOM     12  C   UNL     1      -0.868   2.469  25.319  0.00  0.00    +0.221 A 
ATOM     13  N   UNL     1      -0.394   2.144  25.911  0.00  0.00    -0.054 NA
ATOM     14  O   UNL     1      -0.148   1.397  25.659  0.00  0.00    -0.336 OA
ATOM     15  C   UNL     1      -0.470   1.261  24.912  0.00  0.00    +0.251 A 
ATOM     16  N   UNL     1      -0.916   1.923  24.702  0.00  0.00    -0.188 NA
ENDROOT
BRANCH  12   8
ATOM      6  C   UNL     1      -2.373   4.019  25.627  0.00  0.00    +0.142 A 
ATOM      7  C   UNL     1      -2.010   3.279  25.606  0.00  0.00    +0.059 A 
ATOM      8  C   UNL     1      -1.232   3.209  25.340  0.00  0.00    +0.123 A 
ATOM      9  N   UNL     1      -0.817   3.879  25.097  0.00  0.00    -0.240 NA
ATOM     10  C   UNL     1      -1.180   4.619  25.118  0.00  0.00    +0.102 A 
ATOM     11  C   UNL     1      -1.958   4.690  25.384  0.00  0.00    +0.058 A 
BRANCH   6   5
ATOM      5  O   UNL     1      -3.151   4.090  25.893  0.00  0.00    -0.473 OA
BRANCH   5   4
ATOM      4  C   UNL     1      -3.768   3.761  25.455  0.00  0.00    +0.237 C 
BRANCH   4   3
ATOM      3  C   UNL     1      -4.522   3.701  25.786  0.00  0.00    +0.189 C 
BRANCH   3   2
ATOM      1  C   UNL     1      -5.718   2.932  25.647  0.00  0.00    +0.174 C 
ATOM      2  O   UNL     1      -5.155   3.441  25.325  0.00  0.00    -0.347 OA
ENDBRANCH   3   2
ENDBRANCH   4   3
ENDBRANCH   5   4
ENDBRANCH   6   5
ENDBRANCH  12   8
BRANCH  15  17
ATOM     17  C   UNL     1      -0.366   0.582  24.456  0.00  0.00    +0.138 C 
ATOM     18  C   UNL     1       0.184   0.486  23.848  0.00  0.00    +0.027 C 
ATOM     19  C   UNL     1       0.096  -0.276  23.543  0.00  0.00    +0.019 C 
ATOM     20  C   UNL     1      -0.508  -0.650  23.961  0.00  0.00    +0.073 C 
ATOM     21  N   UNL     1      -0.794  -0.120  24.525  0.00  0.00    -0.263 NA
BRANCH  21  22
ATOM     22  C   UNL     1      -1.401  -0.267  25.064  0.00  0.00    +0.099 C 
BRANCH  22  23
ATOM     23  C   UNL     1      -1.955  -0.858  24.911  0.00  0.00    -0.006 A 
ATOM     24  C   UNL     1      -1.771  -1.647  25.071  0.00  0.00    -0.003 A 
ATOM     25  C   UNL     1      -2.324  -2.239  24.918  0.00  0.00    -0.005 A 
ATOM     26  C   UNL     1      -3.062  -2.043  24.606  0.00  0.00    -0.022 A 
ATOM     27  C   UNL     1      -3.616  -2.635  24.452  0.00  0.00    +0.031 C 
ATOM     28  C   UNL     1      -3.247  -1.255  24.445  0.00  0.00    -0.005 A 
ATOM     29  C   UNL     1      -2.692  -0.663  24.598  0.00  0.00    -0.003 A 
ENDBRANCH  22  23
ENDBRANCH  21  22
ENDBRANCH  15  17
TORSDOF 8
ENDMDL
MODEL 3
REMARK VINA RESULT:     -10.4      2.080      4.648
REMARK  Name = 
REMARK  8 active torsions:
REMARK  status: ('A' for Active; 'I' for Inactive)
REMARK    1  A    between atoms: O_2  and  C_3
REMARK    2  A    between atoms: C_3  and  C_4
REMARK    3  A    between atoms: C_4  and  O_5
REMARK    4  A    between atoms: O_5  and  C_6
REMARK    5  A    between atoms: C_8  and  C_12
REMARK    6  A    between atoms: C_15  and  C_17
REMARK    7  A    between atoms: N_21  and  C_22
REMARK    8  A    between atoms: C_22  and  C_23
REMARK                            x       y       z     vdW  Elec       q    Type
REMARK                         _______ _______ _______ _____ _____    ______ ____
ROOT
ATOM     12  C   UNL     1      -0.271   1.680  24.906  0.00  0.00    +0.221 A 
ATOM     13  N   UNL     1       0.111   1.922  25.596  0.00  0.00    -0.054 NA
ATOM     14  O   UNL     1      -0.143   2.687  25.773  0.00  0.00    -0.336 OA
ATOM     15  C   UNL     1      -0.681   2.918  25.192  0.00  0.00    +0.251 A 
ATOM     16  N   UNL     1      -0.761   2.295  24.656  0.00  0.00    -0.188 NA
ENDROOT
BRANCH  12   8
ATOM      6  C   UNL     1      -0.473  -0.446  24.455  0.00  0.00    +0.142 A 
ATOM      7  C   UNL     1      -0.564   0.283  24.829  0.00  0.00    +0.059 A 
ATOM      8  C   UNL     1      -0.180   0.950  24.531  0.00  0.00    +0.123 A 
ATOM      9  N   UNL     1       0.296   0.888  23.861  0.00  0.00    -0.240 NA
ATOM     10  C   UNL     1       0.387   0.159  23.486  0.00  0.00    +0.102 A 
ATOM     11  C   UNL     1       0.003  -0.509  23.783  0.00  0.00    +0.058 A 
BRANCH   6   5
ATOM      5  O   UNL     1      -0.856  -1.113  24.751  0.00  0.00    -0.473 OA
BRANCH   5   4
ATOM      4  C   UNL     1      -1.561  -1.371  24.408  0.00  0.00    +0.237 C 
BRANCH   4   3
ATOM      3  C   UNL     1      -1.970  -2.009  24.736  0.00  0.00    +0.189 C 
BRANCH   3   2
ATOM      1  C   UNL     1      -3.280  -2.565  24.860  0.00  0.00    +0.174 C 
ATOM      2  O   UNL     1      -2.671  -2.271  24.388  0.00  0.00    -0.347 OA
ENDBRANCH   3   2
ENDBRANCH   4   3
ENDBRANCH   5   4
ENDBRANCH   6   5
ENDBRANCH  12   8
BRANCH  15  17
ATOM     17  C   UNL     1      -1.072   3.643  25.153  0.00  0.00    +0.138 C 
ATOM     18  C   UNL     1      -0.730   4.368  24.959  0.00  0.00    +0.027 C 
ATOM     19  C   UNL     1      -1.320   4.945  24.987  0.00  0.00    +0.019 C 
ATOM     20  C   UNL     1      -2.026   4.575  25.200  0.00  0.00    +0.073 C 
ATOM     21  N   UNL     1      -1.873   3.771  25.302  0.00  0.00    -0.263 NA
BRANCH  21  22
ATOM     22  C   UNL     1      -2.425   3.196  25.516  0.00  0.00    +0.099 C 
BRANCH  22  23
ATOM     23  C   UNL     1      -3.231   3.368  25.492  0.00  0.00    -0.006 A 
ATOM     24  C   UNL     1      -3.670   3.192  24.815  0.00  0.00    -0.003 A 
ATOM     25  C   UNL     1      -4.476   3.364  24.791  0.00  0.00    -0.005 A 
ATOM     26  C   UNL     1      -4.844   3.712  25.442  0.00  0.00    -0.022 A 
ATOM     27  C   UNL     1      -5.651   3.884  25.417  0.00  0.00    +0.031 C 
ATOM     28  C   UNL     1      -4.406   3.888  26.118  0.00  0.00    -0.005 A 
ATOM     29  C   UNL     1      -3.599   3.716  26.143  0.00  0.00    -0.003 A 
ENDBRANCH  22  23
ENDBRANCH  21  22
ENDBRANCH  15  17
TORSDOF 8
ENDMDL
MODEL 4
REMARK VINA RESULT:     -10.3      1.556      4.316
REMARK  Name = 
REMARK  8 active torsions:
REMARK  status: ('A' for Active; 'I' for Inactive)
REMARK    1  A    between atoms: O_2  and  C_3
REMARK    2  A    between atoms: C_3  and  C_4
REMARK    3  A    between atoms: C_4  and  O_5
REMARK    4  A    between atoms: O_5  and  C_6
REMARK    5  A    between atoms: C_8  and  C_12
REMARK    6  A    between atoms: C_15  and  C_17
REMARK    7  A    between atoms: N_21  and  C_22
REMARK    8  A    between atoms: C_22  and  C_23
REMARK                            x       y       z     vdW  Elec       q    Type
REMARK                         _______ _______ _______ _____ _____    ______ ____
ROOT
ATOM     12  C   UNL     1      -4.080  -0.198  24.774  0.00  0.00    +0.221 A 
ATOM     13  N   UNL     1      -4.629  -0.085  24.167  0.00  0.00    -0.054 NA
ATOM     14  O   UNL     1      -4.978   0.656  24.275  0.00  0.00    -0.336 OA
ATOM     15  C   UNL     1      -4.645   0.999  24.947  0.00  0.00    +0.251 A 
ATOM     16  N   UNL     1      -4.090   0.472  25.255  0.00  0.00    -0.188 NA
ENDROOT
BRANCH  12   8
ATOM      6  C   UNL     1      -2.310  -1.449  25.028  0.00  0.00    +0.142 A 
ATOM      7  C   UNL     1      -2.785  -0.783  24.923  0.00  0.00    +0.059 A 
ATOM      8  C   UNL     1      -3.605  -0.864  24.879  0.00  0.00    +0.123 A 
ATOM      9  N   UNL     1      -3.950  -1.610  24.941  0.00  0.00    -0.240 NA
ATOM     10  C   UNL     1      -3.475  -2.277  25.047  0.00  0.00    +0.102 A 
ATOM     11  C   UNL     1      -2.655  -2.197  25.090  0.00  0.00    +0.058 A 
BRANCH   6   5
ATOM      5  O   UNL     1      -1.490  -1.369  25.072  0.00  0.00    -0.473 OA
BRANCH   5   4
ATOM      4  C   UNL     1      -1.051  -1.234  24.387  0.00  0.00    +0.237 C 
BRANCH   4   3
ATOM      3  C   UNL     1      -0.304  -0.887  24.438  0.00  0.00    +0.189 C 
BRANCH   3   2
ATOM      1  C   UNL     1       0.490  -0.144  23.510  0.00  0.00    +0.174 C 
ATOM      2  O   UNL     1       0.185  -0.864  23.774  0.00  0.00    -0.347 OA
ENDBRANCH   3   2
ENDBRANCH   4   3
ENDBRANCH   5   4
ENDBRANCH   6   5
ENDBRANCH  12   8
BRANCH  15  17
ATOM     17  C   UNL     1      -4.834   1.740  25.257  0.00  0.00    +0.138 C 
ATOM     18  C   UNL     1      -5.507   1.924  25.697  0.00  0.00    +0.027 C 
ATOM     19  C   UNL     1      -5.472   2.725  25.893  0.00  0.00    +0.019 C 
ATOM     20  C   UNL     1      -4.777   3.035  25.575  0.00  0.00    +0.073 C 
ATOM     21  N   UNL     1      -4.383   2.426  25.181  0.00  0.00    -0.263 NA
BRANCH  21  22
ATOM     22  C   UNL     1      -3.664   2.493  24.783  0.00  0.00    +0.099 C 
BRANCH  22  23
ATOM     23  C   UNL     1      -3.170   3.137  24.928  0.00  0.00    -0.006 A 
ATOM     24  C   UNL     1      -3.252   3.828  24.485  0.00  0.00    -0.003 A 
ATOM     25  C   UNL     1      -2.757   4.472  24.630  0.00  0.00    -0.005 A 
ATOM     26  C   UNL     1      -2.181   4.426  25.218  0.00  0.00    -0.022 A 
ATOM     27  C   UNL     1      -1.686   5.071  25.363  0.00  0.00    +0.031 C 
ATOM     28  C   UNL     1      -2.099   3.735  25.661  0.00  0.00    -0.005 A 
ATOM     29  C   UNL     1      -2.593   3.091  25.516  0.00  0.00    -0.003 A 
ENDBRANCH  22  23
ENDBRANCH  21  22
ENDBRANCH  15  17
TORSDOF 8
ENDMDL
MODEL 5
REMARK VINA RESULT:      -9.7      1.762      5.535
REMARK  Name = 
REMARK  8 active torsions:
REMARK  status: ('A' for Active; 'I' for Inactive)
REMARK    1  A    between atoms: O_2  and  C_3
REMARK    2  A    between atoms: C_3  and  C_4
REMARK    3  A    between atoms: C_4  and  O_5
REMARK    4  A    between atoms: O_5  and  C_6
REMARK    5  A    between atoms: C_8  and  C_12
REMARK    6  A    between atoms: C_15  and  C_17
REMARK    7  A    between atoms: N_21  and  C_22
REMARK    8  A    between atoms: C_22  and  C_23
REMARK                            x       y       z     vdW  Elec       q    Type
REMARK                         _______ _______ _______ _____ _____    ______ ____
ROOT
ATOM     12  C   UNL     1      -1.893  -0.557  24.741  0.00  0.00    +0.221 A 
ATOM     13  N   UNL     1      -1.318  -0.877  25.239  0.00  0.00    -0.054 NA
ATOM     14  O   UNL     1      -0.636  -0.419  25.169  0.00  0.00    -0.336 OA
ATOM     15  C   UNL     1      -0.788   0.184  24.627  0.00  0.00    +0.251 A 
ATOM     16  N   UNL     1      -1.566   0.098  24.362  0.00  0.00    -0.188 NA
ENDROOT
BRANCH  12   8
ATOM      6  C   UNL     1      -4.073  -0.651  24.723  0.00  0.00    +0.142 A 
ATOM      7  C   UNL     1      -3.306  -0.365  24.825  0.00  0.00    +0.059 A 
ATOM      8  C   UNL     1      -2.660  -0.843  24.639  0.00  0.00    +0.123 A 
ATOM      9  N   UNL     1      -2.781  -1.606  24.351  0.00  0.00    -0.240 NA
ATOM     10  C   UNL     1      -3.548  -1.892  24.249  0.00  0.00    +0.102 A 
ATOM     11  C   UNL     1      -4.194  -1.415  24.435  0.00  0.00    +0.058 A 
BRANCH   6   5
ATOM      5  O   UNL     1      -4.720  -0.174  24.909  0.00  0.00    -0.473 OA
BRANCH   5   4
ATOM      4  C   UNL     1      -4.708   0.630  24.722  0.00  0.00    +0.237 C 
BRANCH   4   3
ATOM      3  C   UNL     1      -5.280   1.135  25.037  0.00  0.00    +0.189 C 
BRANCH   3   2
ATOM      1  C   UNL     1      -5.607   2.501  25.298  0.00  0.00    +0.174 C 
ATOM      2  O   UNL     1      -5.317   1.921  24.789  0.00  0.00    -0.347 OA
ENDBRANCH   3   2
ENDBRANCH   4   3
ENDBRANCH   5   4
ENDBRANCH   6   5
ENDBRANCH  12   8
BRANCH  15  17
ATOM     17  C   UNL     1      -0.258   0.770  24.391  0.00  0.00    +0.138 C 
ATOM     18  C   UNL     1       0.351   0.679  23.841  0.00  0.00    +0.027 C 
ATOM     19  C   UNL     1       0.742   1.403  23.773  0.00  0.00    +0.019 C 
ATOM     20  C   UNL     1       0.376   1.940  24.281  0.00  0.00    +0.073 C 
ATOM     21  N   UNL     1      -0.242   1.548  24.663  0.00  0.00    -0.263 NA
BRANCH  21  22
ATOM     22  C   UNL     1      -0.754   1.878  25.219  0.00  0.00    +0.099 C 
BRANCH  22  23
ATOM     23  C   UNL     1      -0.922   2.685  25.197  0.00  0.00    -0.006 A 
ATOM     24  C   UNL     1      -1.579   2.960  24.780  0.00  0.00    -0.003 A 
ATOM     25  C   UNL     1      -1.747   3.767  24.759  0.00  0.00    -0.005 A 
ATOM     26  C   UNL     1      -1.258   4.300  25.155  0.00  0.00    -0.022 A 
ATOM     27  C   UNL     1      -1.425   5.108  25.134  0.00  0.00    +0.031 C 
ATOM     28  C   UNL     1      -0.600   4.027  25.572  0.00  0.00    -0.005 A 
ATOM     29  C   UNL     1      -0.433   3.219  25.593  0.00  0.00    -0.003 A 
ENDBRANCH  22  23
ENDBRANCH  21  22
ENDBRANCH  15  17
TORSDOF 8
ENDMDL
MODEL 6
REMARK VINA RESULT:      -9.6      2.412      4.369
REMARK  Name = 
REMARK  8 active torsions:
REMARK  status: ('A' for Active; 'I' for Inactive)
REMARK    1  A    between atoms: O_2  and  C_3
REMARK    2  A    between atoms: C_3  and  C_4
REMARK    3  A    between atoms: C_4  and  O_5
REMARK    4  A    between atoms: O_5  and  C_6
REMARK    5  A    between atoms: C_8  and  C_12
REMARK    6  A    between atoms: C_15  and  C_17
REMARK    7  A    between atoms: N_21  and  C_22
REMARK    8  A    between atoms: C_22  and  C_23
REMARK                            x       y       z     vdW  Elec       q    Type
REMARK                         _______ _______ _______ _____ _____    ______ ____
ROOT
ATOM     12  C   UNL     1      -0.356   1.514  24.892  0.00  0.00    +0.221 A 
ATOM     13  N   UNL     1      -0.149   1.665  25.677  0.00  0.00    -0.054 NA
ATOM     14  O   UNL     1      -0.430   2.416  25.874  0.00  0.00    -0.336 OA
ATOM     15  C   UNL     1      -0.809   2.729  25.212  0.00  0.00    +0.251 A 
ATOM     16  N   UNL     1      -0.764   2.171  24.605  0.00  0.00    -0.188 NA
ENDROOT
BRANCH  12   8
ATOM      6  C   UNL     1       0.553   0.156  23.446  0.00  0.00    +0.142 A 
ATOM      7  C   UNL     1       0.382   0.843  23.869  0.00  0.00    +0.059 A 
ATOM      8  C   UNL     1      -0.184   0.827  24.469  0.00  0.00    +0.123 A 
ATOM      9  N   UNL     1      -0.578   0.125  24.647  0.00  0.00    -0.240 NA
ATOM     10  C   UNL     1      -0.407  -0.562  24.224  0.00  0.00    +0.102 A 
ATOM     11  C   UNL     1       0.159  -0.548  23.624  0.00  0.00    +0.058 A 
BRANCH   6   5
ATOM      5  O   UNL     1       1.119   0.170  22.846  0.00  0.00    -0.473 OA
BRANCH   5   4
ATOM      4  C   UNL     1       1.918   0.078  23.029  0.00  0.00    +0.237 C 
BRANCH   4   3
ATOM      3  C   UNL     1       2.491   0.211  22.450  0.00  0.00    +0.189 C 
BRANCH   3   2
ATOM      1  C   UNL     1       3.842   0.677  22.477  0.00  0.00    +0.174 C 
ATOM      2  O   UNL     1       3.288   0.083  22.622  0.00  0.00    -0.347 OA
ENDBRANCH   3   2
ENDBRANCH   4   3
ENDBRANCH   5   4
ENDBRANCH   6   5
ENDBRANCH  12   8
BRANCH  15  17
ATOM     17  C   UNL     1      -1.171   3.468  25.164  0.00  0.00    +0.138 C 
ATOM     18  C   UNL     1      -0.788   4.188  25.035  0.00  0.00    +0.027 C 
ATOM     19  C   UNL     1      -1.360   4.783  25.028  0.00  0.00    +0.019 C 
ATOM     20  C   UNL     1      -2.096   4.432  25.153  0.00  0.00    +0.073 C 
ATOM     21  N   UNL     1      -1.979   3.619  25.236  0.00  0.00    -0.263 NA
BRANCH  21  22
ATOM     22  C   UNL     1      -2.567   3.056  25.369  0.00  0.00    +0.099 C 
BRANCH  22  23
ATOM     23  C   UNL     1      -3.360   3.282  25.378  0.00  0.00    -0.006 A 
ATOM     24  C   UNL     1      -3.694   3.589  26.067  0.00  0.00    -0.003 A 
ATOM     25  C   UNL     1      -4.487   3.815  26.076  0.00  0.00    -0.005 A 
ATOM     26  C   UNL     1      -4.947   3.734  25.396  0.00  0.00    -0.022 A 
ATOM     27  C   UNL     1      -5.741   3.961  25.405  0.00  0.00    +0.031 C 
ATOM     28  C   UNL     1      -4.614   3.427  24.707  0.00  0.00    -0.005 A 
ATOM     29  C   UNL     1      -3.820   3.201  24.698  0.00  0.00    -0.003 A 
ENDBRANCH  22  23
ENDBRANCH  21  22
ENDBRANCH  15  17
TORSDOF 8
ENDMDL
MODEL 7
REMARK VINA RESULT:      -7.4     16.188     18.900
REMARK  Name = 
REMARK  8 active torsions:
REMARK  status: ('A' for Active; 'I' for Inactive)
REMARK    1  A    between atoms: O_2  and  C_3
REMARK    2  A    between atoms: C_3  and  C_4
REMARK    3  A    between atoms: C_4  and  O_5
REMARK    4  A    between atoms: O_5  and  C_6
REMARK    5  A    between atoms: C_8  and  C_12
REMARK    6  A    between atoms: C_15  and  C_17
REMARK    7  A    between atoms: N_21  and  C_22
REMARK    8  A    between atoms: C_22  and  C_23
REMARK                            x       y       z     vdW  Elec       q    Type
REMARK                         _______ _______ _______ _____ _____    ______ ____
ROOT
ATOM     12  C   UNL     1      12.928   8.226  21.477  0.00  0.00    +0.221 A 
ATOM     13  N   UNL     1      13.110   7.741  22.120  0.00  0.00    -0.054 NA
ATOM     14  O   UNL     1      13.930   7.739  22.214  0.00  0.00    -0.336 OA
ATOM     15  C   UNL     1      14.255   8.222  21.630  0.00  0.00    +0.251 A 
ATOM     16  N   UNL     1      13.636   8.523  21.175  0.00  0.00    -0.188 NA
ENDROOT
BRANCH  12   8
ATOM      6  C   UNL     1      11.221   8.346  20.123  0.00  0.00    +0.142 A 
ATOM      7  C   UNL     1      11.977   8.186  20.412  0.00  0.00    +0.059 A 
ATOM      8  C   UNL     1      12.172   8.386  21.189  0.00  0.00    +0.123 A 
ATOM      9  N   UNL     1      11.612   8.744  21.676  0.00  0.00    -0.240 NA
ATOM     10  C   UNL     1      10.856   8.904  21.387  0.00  0.00    +0.102 A 
ATOM     11  C   UNL     1      10.660   8.705  20.611  0.00  0.00    +0.058 A 
BRANCH   6   5
ATOM      5  O   UNL     1      11.025   8.147  19.347  0.00  0.00    -0.473 OA
BRANCH   5   4
ATOM      4  C   UNL     1      11.184   8.674  18.733  0.00  0.00    +0.237 C 
BRANCH   4   3
ATOM      3  C   UNL     1      10.778   8.608  18.017  0.00  0.00    +0.189 C 
BRANCH   3   2
ATOM      1  C   UNL     1      10.789   8.406  16.603  0.00  0.00    +0.174 C 
ATOM      2  O   UNL     1      11.195   8.481  17.317  0.00  0.00    -0.347 OA
ENDBRANCH   3   2
ENDBRANCH   4   3
ENDBRANCH   5   4
ENDBRANCH   6   5
ENDBRANCH  12   8
BRANCH  15  17
ATOM     17  C   UNL     1      15.057   8.377  21.520  0.00  0.00    +0.138 C 
ATOM     18  C   UNL     1      15.438   9.093  21.676  0.00  0.00    +0.027 C 
ATOM     19  C   UNL     1      16.237   9.002  21.487  0.00  0.00    +0.019 C 
ATOM     20  C   UNL     1      16.349   8.232  21.215  0.00  0.00    +0.073 C 
ATOM     21  N   UNL     1      15.620   7.845  21.235  0.00  0.00    -0.263 NA
BRANCH  21  22
ATOM     22  C   UNL     1      15.479   7.065  21.010  0.00  0.00    +0.099 C 
BRANCH  22  23
ATOM     23  C   UNL     1      15.941   6.714  20.425  0.00  0.00    -0.006 A 
ATOM     24  C   UNL     1      15.716   6.768  19.633  0.00  0.00    -0.003 A 
ATOM     25  C   UNL     1      16.178   6.417  19.047  0.00  0.00    -0.005 A 
ATOM     26  C   UNL     1      16.867   6.012  19.253  0.00  0.00    -0.022 A 
ATOM     27  C   UNL     1      17.331   5.661  18.667  0.00  0.00    +0.031 C 
ATOM     28  C   UNL     1      17.094   5.959  20.044  0.00  0.00    -0.005 A 
ATOM     29  C   UNL     1      16.630   6.310  20.630  0.00  0.00    -0.003 A 
ENDBRANCH  22  23
ENDBRANCH  21  22
ENDBRANCH  15  17
TORSDOF 8
ENDMDL
