MODEL 1
REMARK VINA RESULT:     -13.1      0.000      0.000
REMARK  Name = 
REMARK  4 active torsions:
REMARK  status: ('A' for Active; 'I' for Inactive)
REMARK    1  A    between atoms: C_2  and  N_4
REMARK    2  A    between atoms: N_7  and  C_8
REMARK    3  A    between atoms: C_10  and  C_13
REMARK    4  A    between atoms: N_16  and  C_20
REMARK                            x       y       z     vdW  Elec       q    Type
REMARK                         _______ _______ _______ _____ _____    ______ ____
ROOT
ATOM     13  C   UNL     1      -4.269   1.271  24.693  0.00  0.00    +0.010 A 
ATOM     14  C   UNL     1      -3.847   0.588  24.506  0.00  0.00    +0.058 A 
ATOM     15  C   UNL     1      -3.098   0.558  24.161  0.00  0.00    +0.052 C 
ATOM     16  N   UNL     1      -4.306  -0.062  24.724  0.00  0.00    -0.234 N 
ATOM     17  N   UNL     1      -5.011   0.219  25.046  0.00  0.00    -0.170 NA
ATOM     18  C   UNL     1      -4.988   1.044  25.027  0.00  0.00    +0.077 A 
ATOM     19  C   UNL     1      -5.580   1.553  25.294  0.00  0.00    +0.054 C 
ENDROOT
BRANCH  16  20
ATOM     20  C   UNL     1      -4.097  -0.856  24.636  0.00  0.00    +0.083 A 
ATOM     21  C   UNL     1      -4.324  -1.269  23.958  0.00  0.00    +0.021 A 
ATOM     22  C   UNL     1      -4.116  -2.062  23.870  0.00  0.00    +0.031 A 
ATOM     23  C   UNL     1      -3.680  -2.442  24.459  0.00  0.00    +0.140 A 
ATOM     24  F   UNL     1      -3.472  -3.236  24.370  0.00  0.00    -0.204 F 
ATOM     25  C   UNL     1      -3.454  -2.029  25.136  0.00  0.00    +0.031 A 
ATOM     26  C   UNL     1      -3.662  -1.236  25.224  0.00  0.00    +0.021 A 
ENDBRANCH  16  20
BRANCH  13  10
ATOM      8  C   UNL     1      -3.461   3.246  24.754  0.00  0.00    +0.119 C 
ATOM      9  C   UNL     1      -3.601   2.515  25.108  0.00  0.00    +0.035 C 
ATOM     10  C   UNL     1      -4.015   2.046  24.568  0.00  0.00    +0.048 C 
ATOM     11  C   UNL     1      -4.130   2.490  23.882  0.00  0.00    -0.025 C 
ATOM     12  C   UNL     1      -3.788   3.232  23.997  0.00  0.00    -0.009 C 
BRANCH   8   7
ATOM      4  N   UNL     1      -1.874   4.658  25.259  0.00  0.00    -0.189 NA
ATOM      5  C   UNL     1      -2.272   4.022  24.915  0.00  0.00    +0.339 C 
ATOM      6  O   UNL     1      -1.877   3.526  24.388  0.00  0.00    -0.249 OA
ATOM      7  N   UNL     1      -3.064   3.883  25.099  0.00  0.00    -0.184 NA
BRANCH   4   2
ATOM      1  C   UNL     1      -0.866   5.489  24.680  0.00  0.00    +0.023 C 
ATOM      2  C   UNL     1      -1.082   4.797  25.076  0.00  0.00    +0.097 C 
ATOM      3  C   UNL     1      -0.507   4.245  25.286  0.00  0.00    +0.023 C 
ENDBRANCH   4   2
ENDBRANCH   8   7
ENDBRANCH  13  10
TORSDOF 4
ENDMDL
MODEL 2
REMARK VINA RESULT:     -11.6      2.181      5.279
REMARK  Name = 
REMARK  4 active torsions:
REMARK  status: ('A' for Active; 'I' for Inactive)
REMARK    1  A    between atoms: C_2  and  N_4
REMARK    2  A    between atoms: N_7  and  C_8
REMARK    3  A    between atoms: C_10  and  C_13
REMARK    4  A    between atoms: N_16  and  C_20
REMARK                            x       y       z     vdW  Elec       q    Type
REMARK                         _______ _______ _______ _____ _____    ______ ____
ROOT
ATOM     13  C   UNL     1      -3.734   2.450  25.135  0.00  0.00    +0.010 A 
ATOM     14  C   UNL     1      -2.982   2.731  24.945  0.00  0.00    +0.058 A 
ATOM     15  C   UNL     1      -2.393   2.312  24.550  0.00  0.00    +0.052 C 
ATOM     16  N   UNL     1      -2.923   3.506  25.222  0.00  0.00    -0.234 N 
ATOM     17  N   UNL     1      -3.638   3.704  25.582  0.00  0.00    -0.170 NA
ATOM     18  C   UNL     1      -4.140   3.051  25.529  0.00  0.00    +0.077 A 
ATOM     19  C   UNL     1      -4.912   3.006  25.817  0.00  0.00    +0.054 C 
ENDROOT
BRANCH  16  20
ATOM     20  C   UNL     1      -2.264   3.999  25.151  0.00  0.00    +0.083 A 
ATOM     21  C   UNL     1      -1.528   3.742  25.422  0.00  0.00    +0.021 A 
ATOM     22  C   UNL     1      -0.869   4.234  25.351  0.00  0.00    +0.031 A 
ATOM     23  C   UNL     1      -0.947   4.981  25.010  0.00  0.00    +0.140 A 
ATOM     24  F   UNL     1      -0.288   5.473  24.940  0.00  0.00    -0.204 F 
ATOM     25  C   UNL     1      -1.683   5.237  24.740  0.00  0.00    +0.031 A 
ATOM     26  C   UNL     1      -2.342   4.745  24.811  0.00  0.00    +0.021 A 
ENDBRANCH  16  20
BRANCH  13  10
ATOM      8  C   UNL     1      -4.272   0.388  25.012  0.00  0.00    +0.119 C 
ATOM      9  C   UNL     1      -3.862   1.005  25.375  0.00  0.00    +0.035 C 
ATOM     10  C   UNL     1      -4.028   1.700  24.961  0.00  0.00    +0.048 C 
ATOM     11  C   UNL     1      -4.542   1.511  24.342  0.00  0.00    -0.025 C 
ATOM     12  C   UNL     1      -4.692   0.700  24.374  0.00  0.00    -0.009 C 
BRANCH   8   7
ATOM      4  N   UNL     1      -3.867  -1.758  25.018  0.00  0.00    -0.189 NA
ATOM      5  C   UNL     1      -3.876  -0.966  24.784  0.00  0.00    +0.339 C 
ATOM      6  O   UNL     1      -3.498  -0.738  24.088  0.00  0.00    -0.249 OA
ATOM      7  N   UNL     1      -4.263  -0.404  25.246  0.00  0.00    -0.184 NA
BRANCH   4   2
ATOM      1  C   UNL     1      -2.674  -2.463  24.669  0.00  0.00    +0.023 C 
ATOM      2  C   UNL     1      -3.480  -2.320  24.555  0.00  0.00    +0.097 C 
ATOM      3  C   UNL     1      -3.895  -2.738  23.980  0.00  0.00    +0.023 C 
ENDBRANCH   4   2
ENDBRANCH   8   7
ENDBRANCH  13  10
TORSDOF 4
ENDMDL
MODEL 3
REMARK VINA RESULT:     -11.2      1.841      2.512
REMARK  Name = 
REMARK  4 active torsions:
REMARK  status: ('A' for Active; 'I' for Inactive)
REMARK    1  A    between atoms: C_2  and  N_4
REMARK    2  A    between atoms: N_7  and  C_8
REMARK    3  A    between atoms: C_10  and  C_13
REMARK    4  A    between atoms: N_16  and  C_20
REMARK                            x       y       z     vdW  Elec       q    Type
REMARK                         _______ _______ _______ _____ _____    ______ ____
ROOT
ATOM     13  C   UNL     1      -1.511  -0.044  25.155  0.00  0.00    +0.010 A 
ATOM     14  C   UNL     1      -2.125  -0.277  24.655  0.00  0.00    +0.058 A 
ATOM     15  C   UNL     1      -2.405   0.142  24.003  0.00  0.00    +0.052 C 
ATOM     16  N   UNL     1      -2.408  -1.005  24.922  0.00  0.00    -0.234 N 
ATOM     17  N   UNL     1      -1.971  -1.221  25.587  0.00  0.00    -0.170 NA
ATOM     18  C   UNL     1      -1.416  -0.627  25.731  0.00  0.00    +0.077 A 
ATOM     19  C   UNL     1      -0.863  -0.617  26.344  0.00  0.00    +0.054 C 
ENDROOT
BRANCH  16  20
ATOM     20  C   UNL     1      -3.022  -1.441  24.584  0.00  0.00    +0.083 A 
ATOM     21  C   UNL     1      -2.923  -2.246  24.437  0.00  0.00    +0.021 A 
ATOM     22  C   UNL     1      -3.536  -2.682  24.099  0.00  0.00    +0.031 A 
ATOM     23  C   UNL     1      -4.249  -2.313  23.908  0.00  0.00    +0.140 A 
ATOM     24  F   UNL     1      -4.862  -2.749  23.570  0.00  0.00    -0.204 F 
ATOM     25  C   UNL     1      -4.348  -1.507  24.056  0.00  0.00    +0.031 A 
ATOM     26  C   UNL     1      -3.734  -1.071  24.394  0.00  0.00    +0.021 A 
ENDBRANCH  16  20
BRANCH  13  10
ATOM      8  C   UNL     1      -0.616   1.889  25.292  0.00  0.00    +0.119 C 
ATOM      9  C   UNL     1      -1.173   1.334  25.541  0.00  0.00    +0.035 C 
ATOM     10  C   UNL     1      -1.071   0.650  25.090  0.00  0.00    +0.048 C 
ATOM     11  C   UNL     1      -0.450   0.783  24.563  0.00  0.00    -0.025 C 
ATOM     12  C   UNL     1      -0.169   1.549  24.688  0.00  0.00    -0.009 C 
BRANCH   8   7
ATOM      4  N   UNL     1      -0.797   4.052  25.526  0.00  0.00    -0.189 NA
ATOM      5  C   UNL     1      -0.890   3.290  25.223  0.00  0.00    +0.339 C 
ATOM      6  O   UNL     1      -1.351   3.167  24.551  0.00  0.00    -0.249 OA
ATOM      7  N   UNL     1      -0.522   2.651  25.594  0.00  0.00    -0.184 NA
BRANCH   4   2
ATOM      1  C   UNL     1      -1.962   4.846  25.299  0.00  0.00    +0.023 C 
ATOM      2  C   UNL     1      -1.164   4.690  25.155  0.00  0.00    +0.097 C 
ATOM      3  C   UNL     1      -0.736   5.172  24.642  0.00  0.00    +0.023 C 
ENDBRANCH   4   2
ENDBRANCH   8   7
ENDBRANCH  13  10
TORSDOF 4
ENDMDL
MODEL 4
REMARK VINA RESULT:     -10.8      2.754      5.810
REMARK  Name = 
REMARK  4 active torsions:
REMARK  status: ('A' for Active; 'I' for Inactive)
REMARK    1  A    between atoms: C_2  and  N_4
REMARK    2  A    between atoms: N_7  and  C_8
REMARK    3  A    between atoms: C_10  and  C_13
REMARK    4  A    between atoms: N_16  and  C_20
REMARK                            x       y       z     vdW  Elec       q    Type
REMARK                         _______ _______ _______ _____ _____    ______ ____
ROOT
ATOM     13  C   UNL     1      -1.357   1.500  24.781  0.00  0.00    +0.010 A 
ATOM     14  C   UNL     1      -1.496   2.220  25.159  0.00  0.00    +0.058 A 
ATOM     15  C   UNL     1      -1.813   2.320  25.913  0.00  0.00    +0.052 C 
ATOM     16  N   UNL     1      -1.261   2.824  24.648  0.00  0.00    -0.234 N 
ATOM     17  N   UNL     1      -0.977   2.478  23.956  0.00  0.00    -0.170 NA
ATOM     18  C   UNL     1      -1.037   1.659  24.038  0.00  0.00    +0.077 A 
ATOM     19  C   UNL     1      -0.815   1.097  23.476  0.00  0.00    +0.054 C 
ENDROOT
BRANCH  16  20
ATOM     20  C   UNL     1      -1.302   3.634  24.802  0.00  0.00    +0.083 A 
ATOM     21  C   UNL     1      -0.613   4.089  24.804  0.00  0.00    +0.021 A 
ATOM     22  C   UNL     1      -0.654   4.898  24.958  0.00  0.00    +0.031 A 
ATOM     23  C   UNL     1      -1.383   5.253  25.110  0.00  0.00    +0.140 A 
ATOM     24  F   UNL     1      -1.424   6.062  25.264  0.00  0.00    -0.204 F 
ATOM     25  C   UNL     1      -2.071   4.798  25.108  0.00  0.00    +0.031 A 
ATOM     26  C   UNL     1      -2.031   3.989  24.954  0.00  0.00    +0.021 A 
ENDBRANCH  16  20
BRANCH  13  10
ATOM      8  C   UNL     1      -2.146  -0.360  25.469  0.00  0.00    +0.119 C 
ATOM      9  C   UNL     1      -2.245   0.374  25.107  0.00  0.00    +0.035 C 
ATOM     10  C   UNL     1      -1.512   0.753  25.093  0.00  0.00    +0.048 C 
ATOM     11  C   UNL     1      -0.960   0.251  25.447  0.00  0.00    -0.025 C 
ATOM     12  C   UNL     1      -1.353  -0.437  25.679  0.00  0.00    -0.009 C 
BRANCH   8   7
ATOM      4  N   UNL     1      -3.509  -2.034  25.141  0.00  0.00    -0.189 NA
ATOM      5  C   UNL     1      -2.917  -1.474  25.012  0.00  0.00    +0.339 C 
ATOM      6  O   UNL     1      -2.504  -1.467  24.299  0.00  0.00    -0.249 OA
ATOM      7  N   UNL     1      -2.739  -0.921  25.598  0.00  0.00    -0.184 NA
BRANCH   4   2
ATOM      1  C   UNL     1      -3.328  -3.330  24.567  0.00  0.00    +0.023 C 
ATOM      2  C   UNL     1      -3.687  -2.587  24.556  0.00  0.00    +0.097 C 
ATOM      3  C   UNL     1      -4.224  -2.399  23.959  0.00  0.00    +0.023 C 
ENDBRANCH   4   2
ENDBRANCH   8   7
ENDBRANCH  13  10
TORSDOF 4
ENDMDL
