MODEL 1
REMARK VINA RESULT:      -9.8      0.000      0.000
REMARK  Name = 
REMARK  6 active torsions:
REMARK  status: ('A' for Active; 'I' for Inactive)
REMARK    1  A    between atoms: O_2  and  C_3
REMARK    2  A    between atoms: C_5  and  N_6
REMARK    3  A    between atoms: N_9  and  C_10
REMARK    4  A    between atoms: C_10  and  C_11
REMARK    5  A    between atoms: C_13  and  C_14
REMARK    6  A    between atoms: C_18  and  N_19
REMARK                            x       y       z     vdW  Elec       q    Type
REMARK                         _______ _______ _______ _____ _____    ______ ____
ROOT
ATOM     11  C   UNL     1      -3.686   2.369  25.002  0.00  0.00    +0.154 C 
ATOM     12  O   UNL     1      -4.455   2.619  25.167  0.00  0.00    -0.350 OA
ATOM     13  C   UNL     1      -4.422   3.411  25.396  0.00  0.00    +0.180 C 
ATOM     16  C   UNL     1      -3.633   3.650  25.374  0.00  0.00    +0.198 C 
ATOM     17  O   UNL     1      -3.349   4.401  25.562  0.00  0.00    -0.219 OA
ATOM     18  C   UNL     1      -3.178   3.006  25.130  0.00  0.00    +0.120 C 
ENDROOT
BRANCH  18  19
ATOM     19  N   UNL     1      -2.359   3.001  25.032  0.00  0.00    -0.267 NA
ATOM     20  C   UNL     1      -1.867   2.875  25.682  0.00  0.00    +0.090 C 
ATOM     21  C   UNL     1      -1.047   2.870  25.583  0.00  0.00    +0.090 C 
ATOM     22  N   UNL     1      -0.721   2.991  24.835  0.00  0.00    -0.269 NA
ATOM     23  C   UNL     1       0.097   2.986  24.736  0.00  0.00    +0.090 C 
ATOM     24  C   UNL     1      -1.214   3.116  24.185  0.00  0.00    +0.090 C 
ATOM     25  C   UNL     1      -2.033   3.121  24.284  0.00  0.00    +0.090 C 
ENDBRANCH  18  19
BRANCH  13  14
ATOM     14  C   UNL     1      -5.066   3.880  25.611  0.00  0.00    +0.214 C 
ATOM     15  O   UNL     1      -5.785   3.527  25.812  0.00  0.00    -0.218 OA
ENDBRANCH  13  14
BRANCH  11  10
ATOM     10  C   UNL     1      -3.464   1.614  24.754  0.00  0.00    +0.148 C 
BRANCH  10   9
ATOM      6  N   UNL     1      -4.130  -0.452  24.976  0.00  0.00    -0.161 NA
ATOM      7  C   UNL     1      -3.717   0.208  24.706  0.00  0.00    +0.344 C 
ATOM      8  O   UNL     1      -3.143   0.125  24.119  0.00  0.00    -0.249 OA
ATOM      9  N   UNL     1      -3.878   0.953  25.023  0.00  0.00    -0.184 NA
BRANCH   6   5
ATOM      3  C   UNL     1      -3.186  -2.392  24.641  0.00  0.00    +0.140 A 
ATOM      4  C   UNL     1      -3.347  -1.647  24.958  0.00  0.00    +0.054 A 
ATOM      5  C   UNL     1      -3.969  -1.197  24.658  0.00  0.00    +0.078 A 
ATOM     26  C   UNL     1      -4.431  -1.491  24.041  0.00  0.00    +0.017 A 
ATOM     27  C   UNL     1      -4.270  -2.235  23.724  0.00  0.00    +0.004 A 
ATOM     28  C   UNL     1      -3.648  -2.686  24.023  0.00  0.00    +0.037 A 
BRANCH   3   2
ATOM      1  C   UNL     1      -1.842  -2.868  24.540  0.00  0.00    +0.252 C 
ATOM      2  O   UNL     1      -2.563  -2.842  24.941  0.00  0.00    -0.471 OA
ENDBRANCH   3   2
ENDBRANCH   6   5
ENDBRANCH  10   9
ENDBRANCH  11  10
TORSDOF 6
ENDMDL
MODEL 2
REMARK VINA RESULT:      -8.8      1.454      2.781
REMARK  Name = 
REMARK  6 active torsions:
REMARK  status: ('A' for Active; 'I' for Inactive)
REMARK    1  A    between atoms: O_2  and  C_3
REMARK    2  A    between atoms: C_5  and  N_6
REMARK    3  A    between atoms: N_9  and  C_10
REMARK    4  A    between atoms: C_10  and  C_11
REMARK    5  A    between atoms: C_13  and  C_14
REMARK    6  A    between atoms: C_18  and  N_19
REMARK                            x       y       z     vdW  Elec       q    Type
REMARK                         _______ _______ _______ _____ _____    ______ ____
ROOT
ATOM     11  C   UNL     1      -2.049   2.379  25.082  0.00  0.00    +0.154 C 
ATOM     12  O   UNL     1      -1.226   2.417  25.049  0.00  0.00    -0.350 OA
ATOM     13  C   UNL     1      -1.006   3.210  25.102  0.00  0.00    +0.180 C 
ATOM     16  C   UNL     1      -1.694   3.661  25.167  0.00  0.00    +0.198 C 
ATOM     17  O   UNL     1      -1.729   4.483  25.234  0.00  0.00    -0.219 OA
ATOM     18  C   UNL     1      -2.339   3.147  25.155  0.00  0.00    +0.120 C 
ENDROOT
BRANCH  18  19
ATOM     19  N   UNL     1      -3.133   3.365  25.206  0.00  0.00    -0.267 NA
ATOM     20  C   UNL     1      -3.572   3.488  24.519  0.00  0.00    +0.090 C 
ATOM     21  C   UNL     1      -4.367   3.706  24.571  0.00  0.00    +0.090 C 
ATOM     22  N   UNL     1      -4.721   3.800  25.310  0.00  0.00    -0.269 NA
ATOM     23  C   UNL     1      -5.514   4.017  25.362  0.00  0.00    +0.090 C 
ATOM     24  C   UNL     1      -4.281   3.676  25.998  0.00  0.00    +0.090 C 
ATOM     25  C   UNL     1      -3.487   3.459  25.945  0.00  0.00    +0.090 C 
ENDBRANCH  18  19
BRANCH  13  14
ATOM     14  C   UNL     1      -0.233   3.500  25.091  0.00  0.00    +0.214 C 
ATOM     15  O   UNL     1       0.397   3.001  25.277  0.00  0.00    -0.218 OA
ENDBRANCH  13  14
BRANCH  11  10
ATOM     10  C   UNL     1      -2.505   1.691  25.047  0.00  0.00    +0.148 C 
BRANCH  10   9
ATOM      6  N   UNL     1      -2.214  -0.470  24.958  0.00  0.00    -0.161 NA
ATOM      7  C   UNL     1      -2.582   0.264  25.032  0.00  0.00    +0.344 C 
ATOM      8  O   UNL     1      -3.395   0.307  25.166  0.00  0.00    -0.249 OA
ATOM      9  N   UNL     1      -2.137   0.956  24.973  0.00  0.00    -0.184 NA
BRANCH   6   5
ATOM      3  C   UNL     1      -3.390  -2.222  24.395  0.00  0.00    +0.140 A 
ATOM      4  C   UNL     1      -2.944  -1.530  24.336  0.00  0.00    +0.054 A 
ATOM      5  C   UNL     1      -2.660  -1.163  25.018  0.00  0.00    +0.078 A 
ATOM     26  C   UNL     1      -2.821  -1.488  25.759  0.00  0.00    +0.017 A 
ATOM     27  C   UNL     1      -3.266  -2.179  25.818  0.00  0.00    +0.004 A 
ATOM     28  C   UNL     1      -3.551  -2.547  25.136  0.00  0.00    +0.037 A 
BRANCH   3   2
ATOM      1  C   UNL     1      -4.487  -2.654  23.589  0.00  0.00    +0.252 C 
ATOM      2  O   UNL     1      -3.674  -2.589  23.713  0.00  0.00    -0.471 OA
ENDBRANCH   3   2
ENDBRANCH   6   5
ENDBRANCH  10   9
ENDBRANCH  11  10
TORSDOF 6
ENDMDL
MODEL 3
REMARK VINA RESULT:      -8.8      1.929      2.256
REMARK  Name = 
REMARK  6 active torsions:
REMARK  status: ('A' for Active; 'I' for Inactive)
REMARK    1  A    between atoms: O_2  and  C_3
REMARK    2  A    between atoms: C_5  and  N_6
REMARK    3  A    between atoms: N_9  and  C_10
REMARK    4  A    between atoms: C_10  and  C_11
REMARK    5  A    between atoms: C_13  and  C_14
REMARK    6  A    between atoms: C_18  and  N_19
REMARK                            x       y       z     vdW  Elec       q    Type
REMARK                         _______ _______ _______ _____ _____    ______ ____
ROOT
ATOM     11  C   UNL     1      -3.885   2.197  25.193  0.00  0.00    +0.154 C 
ATOM     12  O   UNL     1      -4.627   1.838  25.212  0.00  0.00    -0.350 OA
ATOM     13  C   UNL     1      -5.197   2.433  25.269  0.00  0.00    +0.180 C 
ATOM     16  C   UNL     1      -4.805   3.159  25.285  0.00  0.00    +0.198 C 
ATOM     17  O   UNL     1      -5.162   3.901  25.339  0.00  0.00    -0.219 OA
ATOM     18  C   UNL     1      -3.994   3.013  25.239  0.00  0.00    +0.120 C 
ENDROOT
BRANCH  18  19
ATOM     19  N   UNL     1      -3.398   3.583  25.237  0.00  0.00    -0.267 NA
ATOM     20  C   UNL     1      -3.074   3.842  25.951  0.00  0.00    +0.090 C 
ATOM     21  C   UNL     1      -2.478   4.413  25.948  0.00  0.00    +0.090 C 
ATOM     22  N   UNL     1      -2.207   4.725  25.234  0.00  0.00    -0.269 NA
ATOM     23  C   UNL     1      -1.612   5.295  25.232  0.00  0.00    +0.090 C 
ATOM     24  C   UNL     1      -2.532   4.466  24.521  0.00  0.00    +0.090 C 
ATOM     25  C   UNL     1      -3.127   3.895  24.523  0.00  0.00    +0.090 C 
ENDBRANCH  18  19
BRANCH  13  14
ATOM     14  C   UNL     1      -6.013   2.320  25.303  0.00  0.00    +0.214 C 
ATOM     15  O   UNL     1      -6.355   1.668  24.930  0.00  0.00    -0.218 OA
ENDBRANCH  13  14
BRANCH  11  10
ATOM     10  C   UNL     1      -3.159   1.807  25.139  0.00  0.00    +0.148 C 
BRANCH  10   9
ATOM      6  N   UNL     1      -2.395  -0.198  24.738  0.00  0.00    -0.161 NA
ATOM      7  C   UNL     1      -2.420   0.598  24.953  0.00  0.00    +0.344 C 
ATOM      8  O   UNL     1      -1.731   0.982  25.198  0.00  0.00    -0.249 OA
ATOM      9  N   UNL     1      -3.134   1.011  24.923  0.00  0.00    -0.184 NA
BRANCH   6   5
ATOM      3  C   UNL     1      -0.437  -0.978  24.166  0.00  0.00    +0.140 A 
ATOM      4  C   UNL     1      -1.152  -0.565  24.136  0.00  0.00    +0.054 A 
ATOM      5  C   UNL     1      -1.680  -0.610  24.768  0.00  0.00    +0.078 A 
ATOM     26  C   UNL     1      -1.495  -1.068  25.429  0.00  0.00    +0.017 A 
ATOM     27  C   UNL     1      -0.782  -1.480  25.459  0.00  0.00    +0.004 A 
ATOM     28  C   UNL     1      -0.252  -1.435  24.827  0.00  0.00    +0.037 A 
BRANCH   3   2
ATOM      1  C   UNL     1       0.679  -0.353  23.530  0.00  0.00    +0.252 C 
ATOM      2  O   UNL     1       0.091  -0.932  23.534  0.00  0.00    -0.471 OA
ENDBRANCH   3   2
ENDBRANCH   6   5
ENDBRANCH  10   9
ENDBRANCH  11  10
TORSDOF 6
ENDMDL
MODEL 4
REMARK VINA RESULT:      -8.5     16.303     18.867
REMARK  Name = 
REMARK  6 active torsions:
REMARK  status: ('A' for Active; 'I' for Inactive)
REMARK    1  A    between atoms: O_2  and  C_3
REMARK    2  A    between atoms: C_5  and  N_6
REMARK    3  A    between atoms: N_9  and  C_10
REMARK    4  A    between atoms: C_10  and  C_11
REMARK    5  A    between atoms: C_13  and  C_14
REMARK    6  A    between atoms: C_18  and  N_19
REMARK                            x       y       z     vdW  Elec       q    Type
REMARK                         _______ _______ _______ _____ _____    ______ ____
ROOT
ATOM     11  C   UNL     1      12.283   8.079  19.002  0.00  0.00    +0.154 C 
ATOM     12  O   UNL     1      12.209   8.117  18.182  0.00  0.00    -0.350 OA
ATOM     13  C   UNL     1      11.441   8.360  18.005  0.00  0.00    +0.180 C 
ATOM     16  C   UNL     1      11.040   8.473  18.718  0.00  0.00    +0.198 C 
ATOM     17  O   UNL     1      10.256   8.716  18.800  0.00  0.00    -0.219 OA
ATOM     18  C   UNL     1      11.561   8.299  19.334  0.00  0.00    +0.120 C 
ENDROOT
BRANCH  18  19
ATOM     19  N   UNL     1      11.389   8.338  20.140  0.00  0.00    -0.267 NA
ATOM     20  C   UNL     1      11.123   7.666  20.538  0.00  0.00    +0.090 C 
ATOM     21  C   UNL     1      10.951   7.707  21.344  0.00  0.00    +0.090 C 
ATOM     22  N   UNL     1      11.044   8.418  21.752  0.00  0.00    -0.269 NA
ATOM     23  C   UNL     1      10.872   8.458  22.556  0.00  0.00    +0.090 C 
ATOM     24  C   UNL     1      11.310   9.090  21.353  0.00  0.00    +0.090 C 
ATOM     25  C   UNL     1      11.482   9.050  20.547  0.00  0.00    +0.090 C 
ENDBRANCH  18  19
BRANCH  13  14
ATOM     14  C   UNL     1      11.129   8.471  17.250  0.00  0.00    +0.214 C 
ATOM     15  O   UNL     1      11.049   7.828  16.738  0.00  0.00    -0.218 OA
ENDBRANCH  13  14
BRANCH  11  10
ATOM     10  C   UNL     1      12.961   7.860  19.419  0.00  0.00    +0.148 C 
BRANCH  10   9
ATOM      6  N   UNL     1      15.104   7.659  19.054  0.00  0.00    -0.161 NA
ATOM      7  C   UNL     1      14.361   7.571  19.401  0.00  0.00    +0.344 C 
ATOM      8  O   UNL     1      14.273   7.106  20.077  0.00  0.00    -0.249 OA
ATOM      9  N   UNL     1      13.704   7.948  19.071  0.00  0.00    -0.184 NA
BRANCH   6   5
ATOM      3  C   UNL     1      16.683   6.191  19.396  0.00  0.00    +0.140 A 
ATOM      4  C   UNL     1      16.027   6.568  19.066  0.00  0.00    +0.054 A 
ATOM      5  C   UNL     1      15.760   7.282  19.383  0.00  0.00    +0.078 A 
ATOM     26  C   UNL     1      16.148   7.618  20.029  0.00  0.00    +0.017 A 
ATOM     27  C   UNL     1      16.804   7.241  20.357  0.00  0.00    +0.004 A 
ATOM     28  C   UNL     1      17.072   6.527  20.041  0.00  0.00    +0.037 A 
BRANCH   3   2
ATOM      1  C   UNL     1      17.405   5.477  18.389  0.00  0.00    +0.252 C 
ATOM      2  O   UNL     1      16.950   5.478  19.079  0.00  0.00    -0.471 OA
ENDBRANCH   3   2
ENDBRANCH   6   5
ENDBRANCH  10   9
ENDBRANCH  11  10
TORSDOF 6
ENDMDL
MODEL 5
REMARK VINA RESULT:      -8.3      1.750      4.419
REMARK  Name = 
REMARK  6 active torsions:
REMARK  status: ('A' for Active; 'I' for Inactive)
REMARK    1  A    between atoms: O_2  and  C_3
REMARK    2  A    between atoms: C_5  and  N_6
REMARK    3  A    between atoms: N_9  and  C_10
REMARK    4  A    between atoms: C_10  and  C_11
REMARK    5  A    between atoms: C_13  and  C_14
REMARK    6  A    between atoms: C_18  and  N_19
REMARK                            x       y       z     vdW  Elec       q    Type
REMARK                         _______ _______ _______ _____ _____    ______ ____
ROOT
ATOM     11  C   UNL     1      -2.060  -0.378  24.603  0.00  0.00    +0.154 C 
ATOM     12  O   UNL     1      -2.247  -1.180  24.632  0.00  0.00    -0.350 OA
ATOM     13  C   UNL     1      -1.540  -1.606  24.645  0.00  0.00    +0.180 C 
ATOM     16  C   UNL     1      -0.917  -1.065  24.625  0.00  0.00    +0.198 C 
ATOM     17  O   UNL     1      -0.113  -1.251  24.630  0.00  0.00    -0.219 OA
ATOM     18  C   UNL     1      -1.239  -0.306  24.599  0.00  0.00    +0.120 C 
ENDROOT
BRANCH  18  19
ATOM     19  N   UNL     1      -0.813   0.401  24.573  0.00  0.00    -0.267 NA
ATOM     20  C   UNL     1      -0.571   0.710  23.847  0.00  0.00    +0.090 C 
ATOM     21  C   UNL     1      -0.145   1.417  23.823  0.00  0.00    +0.090 C 
ATOM     22  N   UNL     1       0.039   1.813  24.523  0.00  0.00    -0.269 NA
ATOM     23  C   UNL     1       0.464   2.518  24.498  0.00  0.00    +0.090 C 
ATOM     24  C   UNL     1      -0.204   1.503  25.248  0.00  0.00    +0.090 C 
ATOM     25  C   UNL     1      -0.630   0.797  25.273  0.00  0.00    +0.090 C 
ENDBRANCH  18  19
BRANCH  13  14
ATOM     14  C   UNL     1      -1.469  -2.427  24.674  0.00  0.00    +0.214 C 
ATOM     15  O   UNL     1      -2.054  -2.903  24.337  0.00  0.00    -0.218 OA
ENDBRANCH  13  14
BRANCH  11  10
ATOM     10  C   UNL     1      -2.601   0.246  24.582  0.00  0.00    +0.148 C 
BRANCH  10   9
ATOM      6  N   UNL     1      -4.585   0.731  25.352  0.00  0.00    -0.161 NA
ATOM      7  C   UNL     1      -3.878   0.785  24.931  0.00  0.00    +0.344 C 
ATOM      8  O   UNL     1      -3.740   1.432  24.438  0.00  0.00    -0.249 OA
ATOM      9  N   UNL     1      -3.309   0.191  25.003  0.00  0.00    -0.184 NA
BRANCH   6   5
ATOM      3  C   UNL     1      -5.636   2.625  25.622  0.00  0.00    +0.140 A 
ATOM      4  C   UNL     1      -5.066   2.032  25.695  0.00  0.00    +0.054 A 
ATOM      5  C   UNL     1      -5.155   1.324  25.280  0.00  0.00    +0.078 A 
ATOM     26  C   UNL     1      -5.811   1.209  24.794  0.00  0.00    +0.017 A 
ATOM     27  C   UNL     1      -6.379   1.802  24.722  0.00  0.00    +0.004 A 
ATOM     28  C   UNL     1      -6.292   2.510  25.136  0.00  0.00    +0.037 A 
BRANCH   3   2
ATOM      1  C   UNL     1      -5.503   4.048  25.626  0.00  0.00    +0.252 C 
ATOM      2  O   UNL     1      -5.548   3.333  26.037  0.00  0.00    -0.471 OA
ENDBRANCH   3   2
ENDBRANCH   6   5
ENDBRANCH  10   9
ENDBRANCH  11  10
TORSDOF 6
ENDMDL
MODEL 6
REMARK VINA RESULT:      -7.3     15.755     18.750
REMARK  Name = 
REMARK  6 active torsions:
REMARK  status: ('A' for Active; 'I' for Inactive)
REMARK    1  A    between atoms: O_2  and  C_3
REMARK    2  A    between atoms: C_5  and  N_6
REMARK    3  A    between atoms: N_9  and  C_10
REMARK    4  A    between atoms: C_10  and  C_11
REMARK    5  A    between atoms: C_13  and  C_14
REMARK    6  A    between atoms: C_18  and  N_19
REMARK                            x       y       z     vdW  Elec       q    Type
REMARK                         _______ _______ _______ _____ _____    ______ ____
ROOT
ATOM     11  C   UNL     1      13.549   7.709  18.348  0.00  0.00    +0.154 C 
ATOM     12  O   UNL     1      13.118   7.957  17.690  0.00  0.00    -0.350 OA
ATOM     13  C   UNL     1      13.646   8.065  17.066  0.00  0.00    +0.180 C 
ATOM     16  C   UNL     1      14.403   7.884  17.339  0.00  0.00    +0.198 C 
ATOM     17  O   UNL     1      15.099   7.917  16.895  0.00  0.00    -0.219 OA
ATOM     18  C   UNL     1      14.343   7.664  18.131  0.00  0.00    +0.120 C 
ENDROOT
BRANCH  18  19
ATOM     19  N   UNL     1      14.968   7.438  18.620  0.00  0.00    -0.267 NA
ATOM     20  C   UNL     1      15.327   7.994  19.114  0.00  0.00    +0.090 C 
ATOM     21  C   UNL     1      15.952   7.767  19.603  0.00  0.00    +0.090 C 
ATOM     22  N   UNL     1      16.219   6.986  19.598  0.00  0.00    -0.269 NA
ATOM     23  C   UNL     1      16.843   6.760  20.086  0.00  0.00    +0.090 C 
ATOM     24  C   UNL     1      15.859   6.431  19.104  0.00  0.00    +0.090 C 
ATOM     25  C   UNL     1      15.234   6.657  18.615  0.00  0.00    +0.090 C 
ENDBRANCH  18  19
BRANCH  13  14
ATOM     14  C   UNL     1      13.450   8.311  16.303  0.00  0.00    +0.214 C 
ATOM     15  O   UNL     1      12.753   8.733  16.172  0.00  0.00    -0.218 OA
ENDBRANCH  13  14
BRANCH  11  10
ATOM     10  C   UNL     1      13.240   7.536  19.094  0.00  0.00    +0.148 C 
BRANCH  10   9
ATOM      6  N   UNL     1      11.310   7.598  20.112  0.00  0.00    -0.161 NA
ATOM      7  C   UNL     1      12.125   7.570  19.987  0.00  0.00    +0.344 C 
ATOM      8  O   UNL     1      12.640   7.550  20.631  0.00  0.00    -0.249 OA
ATOM      9  N   UNL     1      12.425   7.563  19.218  0.00  0.00    -0.184 NA
BRANCH   6   5
ATOM      3  C   UNL     1      10.604   8.329  22.044  0.00  0.00    +0.140 A 
ATOM      4  C   UNL     1      10.904   8.322  21.275  0.00  0.00    +0.054 A 
ATOM      5  C   UNL     1      11.010   7.605  20.881  0.00  0.00    +0.078 A 
ATOM     26  C   UNL     1      10.817   6.895  21.255  0.00  0.00    +0.017 A 
ATOM     27  C   UNL     1      10.518   6.903  22.023  0.00  0.00    +0.004 A 
ATOM     28  C   UNL     1      10.411   7.619  22.418  0.00  0.00    +0.037 A 
BRANCH   3   2
ATOM      1  C   UNL     1      10.637   9.094  23.251  0.00  0.00    +0.252 C 
ATOM      2  O   UNL     1      10.498   9.045  22.438  0.00  0.00    -0.471 OA
ENDBRANCH   3   2
ENDBRANCH   6   5
ENDBRANCH  10   9
ENDBRANCH  11  10
TORSDOF 6
ENDMDL
MODEL 7
REMARK VINA RESULT:      -7.2     16.258     18.952
REMARK  Name = 
REMARK  6 active torsions:
REMARK  status: ('A' for Active; 'I' for Inactive)
REMARK    1  A    between atoms: O_2  and  C_3
REMARK    2  A    between atoms: C_5  and  N_6
REMARK    3  A    between atoms: N_9  and  C_10
REMARK    4  A    between atoms: C_10  and  C_11
REMARK    5  A    between atoms: C_13  and  C_14
REMARK    6  A    between atoms: C_18  and  N_19
REMARK                            x       y       z     vdW  Elec       q    Type
REMARK                         _______ _______ _______ _____ _____    ______ ____
ROOT
ATOM     11  C   UNL     1      12.371   7.952  20.265  0.00  0.00    +0.154 C 
ATOM     12  O   UNL     1      12.005   7.891  21.002  0.00  0.00    -0.350 OA
ATOM     13  C   UNL     1      11.198   8.024  20.898  0.00  0.00    +0.180 C 
ATOM     16  C   UNL     1      11.065   8.167  20.096  0.00  0.00    +0.198 C 
ATOM     17  O   UNL     1      10.335   8.327  19.746  0.00  0.00    -0.219 OA
ATOM     18  C   UNL     1      11.791   8.123  19.705  0.00  0.00    +0.120 C 
ENDROOT
BRANCH  18  19
ATOM     19  N   UNL     1      11.913   8.230  18.896  0.00  0.00    -0.267 NA
ATOM     20  C   UNL     1      12.050   8.987  18.597  0.00  0.00    +0.090 C 
ATOM     21  C   UNL     1      12.172   9.093  17.787  0.00  0.00    +0.090 C 
ATOM     22  N   UNL     1      12.157   8.444  17.278  0.00  0.00    -0.269 NA
ATOM     23  C   UNL     1      12.279   8.551  16.470  0.00  0.00    +0.090 C 
ATOM     24  C   UNL     1      12.019   7.688  17.578  0.00  0.00    +0.090 C 
ATOM     25  C   UNL     1      11.897   7.581  18.387  0.00  0.00    +0.090 C 
ENDBRANCH  18  19
BRANCH  13  14
ATOM     14  C   UNL     1      10.624   8.016  21.491  0.00  0.00    +0.214 C 
ATOM     15  O   UNL     1      10.796   7.678  22.224  0.00  0.00    -0.218 OA
ENDBRANCH  13  14
BRANCH  11  10
ATOM     10  C   UNL     1      13.177   7.859  20.115  0.00  0.00    +0.148 C 
BRANCH  10   9
ATOM      6  N   UNL     1      14.937   7.018  21.094  0.00  0.00    -0.161 NA
ATOM      7  C   UNL     1      14.469   7.453  20.573  0.00  0.00    +0.344 C 
ATOM      8  O   UNL     1      14.822   7.917  19.990  0.00  0.00    -0.249 OA
ATOM      9  N   UNL     1      13.646   7.423  20.636  0.00  0.00    -0.184 NA
BRANCH   6   5
ATOM      3  C   UNL     1      16.980   6.524  20.502  0.00  0.00    +0.140 A 
ATOM      4  C   UNL     1      16.157   6.495  20.565  0.00  0.00    +0.054 A 
ATOM      5  C   UNL     1      15.760   7.047  21.031  0.00  0.00    +0.078 A 
ATOM     26  C   UNL     1      16.184   7.628  21.435  0.00  0.00    +0.017 A 
ATOM     27  C   UNL     1      17.005   7.657  21.372  0.00  0.00    +0.004 A 
ATOM     28  C   UNL     1      17.404   7.105  20.906  0.00  0.00    +0.037 A 
BRANCH   3   2
ATOM      1  C   UNL     1      17.168   5.875  19.243  0.00  0.00    +0.252 C 
ATOM      2  O   UNL     1      17.377   5.972  20.036  0.00  0.00    -0.471 OA
ENDBRANCH   3   2
ENDBRANCH   6   5
ENDBRANCH  10   9
ENDBRANCH  11  10
TORSDOF 6
ENDMDL
MODEL 8
REMARK VINA RESULT:      -6.7     15.829     18.909
REMARK  Name = 
REMARK  6 active torsions:
REMARK  status: ('A' for Active; 'I' for Inactive)
REMARK    1  A    between atoms: O_2  and  C_3
REMARK    2  A    between atoms: C_5  and  N_6
REMARK    3  A    between atoms: N_9  and  C_10
REMARK    4  A    between atoms: C_10  and  C_11
REMARK    5  A    between atoms: C_13  and  C_14
REMARK    6  A    between atoms: C_18  and  N_19
REMARK                            x       y       z     vdW  Elec       q    Type
REMARK                         _______ _______ _______ _____ _____    ______ ____
ROOT
ATOM     11  C   UNL     1      14.587   7.193  19.909  0.00  0.00    +0.154 C 
ATOM     12  O   UNL     1      15.086   6.762  20.404  0.00  0.00    -0.350 OA
ATOM     13  C   UNL     1      15.758   6.555  19.972  0.00  0.00    +0.180 C 
ATOM     16  C   UNL     1      15.673   6.859  19.210  0.00  0.00    +0.198 C 
ATOM     17  O   UNL     1      16.217   6.782  18.594  0.00  0.00    -0.219 OA
ATOM     18  C   UNL     1      14.949   7.253  19.171  0.00  0.00    +0.120 C 
ENDROOT
BRANCH  18  19
ATOM     19  N   UNL     1      14.642   7.639  18.509  0.00  0.00    -0.267 NA
ATOM     20  C   UNL     1      14.749   8.453  18.421  0.00  0.00    +0.090 C 
ATOM     21  C   UNL     1      14.442   8.838  17.758  0.00  0.00    +0.090 C 
ATOM     22  N   UNL     1      14.028   8.411  17.186  0.00  0.00    -0.269 NA
ATOM     23  C   UNL     1      13.722   8.796  16.526  0.00  0.00    +0.090 C 
ATOM     24  C   UNL     1      13.922   7.597  17.276  0.00  0.00    +0.090 C 
ATOM     25  C   UNL     1      14.229   7.212  17.938  0.00  0.00    +0.090 C 
ENDBRANCH  18  19
BRANCH  13  14
ATOM     14  C   UNL     1      16.401   6.121  20.253  0.00  0.00    +0.214 C 
ATOM     15  O   UNL     1      16.628   6.187  21.044  0.00  0.00    -0.218 OA
ENDBRANCH  13  14
BRANCH  11  10
ATOM     10  C   UNL     1      13.853   7.508  20.116  0.00  0.00    +0.148 C 
BRANCH  10   9
ATOM      6  N   UNL     1      12.550   7.646  21.862  0.00  0.00    -0.161 NA
ATOM      7  C   UNL     1      12.840   7.746  21.096  0.00  0.00    +0.344 C 
ATOM      8  O   UNL     1      12.409   8.182  20.545  0.00  0.00    -0.249 OA
ATOM      9  N   UNL     1      13.563   7.409  20.882  0.00  0.00    -0.184 NA
BRANCH   6   5
ATOM      3  C   UNL     1      10.409   7.885  22.216  0.00  0.00    +0.140 A 
ATOM      4  C   UNL     1      11.132   7.548  22.002  0.00  0.00    +0.054 A 
ATOM      5  C   UNL     1      11.828   7.984  22.076  0.00  0.00    +0.078 A 
ATOM     26  C   UNL     1      11.802   8.756  22.365  0.00  0.00    +0.017 A 
ATOM     27  C   UNL     1      11.081   9.093  22.579  0.00  0.00    +0.004 A 
ATOM     28  C   UNL     1      10.384   8.657  22.505  0.00  0.00    +0.037 A 
BRANCH   3   2
ATOM      1  C   UNL     1       9.696   6.657  22.374  0.00  0.00    +0.252 C 
ATOM      2  O   UNL     1       9.713   7.449  22.141  0.00  0.00    -0.471 OA
ENDBRANCH   3   2
ENDBRANCH   6   5
ENDBRANCH  10   9
ENDBRANCH  11  10
TORSDOF 6
ENDMDL
MODEL 9
REMARK VINA RESULT:      -6.5     15.754     18.278
REMARK  Name = 
REMARK  6 active torsions:
REMARK  status: ('A' for Active; 'I' for Inactive)
REMARK    1  A    between atoms: O_2  and  C_3
REMARK    2  A    between atoms: C_5  and  N_6
REMARK    3  A    between atoms: N_9  and  C_10
REMARK    4  A    between atoms: C_10  and  C_11
REMARK    5  A    between atoms: C_13  and  C_14
REMARK    6  A    between atoms: C_18  and  N_19
REMARK                            x       y       z     vdW  Elec       q    Type
REMARK                         _______ _______ _______ _____ _____    ______ ____
ROOT
ATOM     11  C   UNL     1      12.105   7.214  20.321  0.00  0.00    +0.154 C 
ATOM     12  O   UNL     1      11.458   6.717  20.437  0.00  0.00    -0.350 OA
ATOM     13  C   UNL     1      11.449   6.490  21.230  0.00  0.00    +0.180 C 
ATOM     16  C   UNL     1      12.092   6.848  21.604  0.00  0.00    +0.198 C 
ATOM     17  O   UNL     1      12.293   6.772  22.401  0.00  0.00    -0.219 OA
ATOM     18  C   UNL     1      12.497   7.295  21.042  0.00  0.00    +0.120 C 
ENDROOT
BRANCH  18  19
ATOM     19  N   UNL     1      13.176   7.745  21.178  0.00  0.00    -0.267 NA
ATOM     20  C   UNL     1      13.921   7.414  21.053  0.00  0.00    +0.090 C 
ATOM     21  C   UNL     1      14.600   7.864  21.189  0.00  0.00    +0.090 C 
ATOM     22  N   UNL     1      14.532   8.644  21.450  0.00  0.00    -0.269 NA
ATOM     23  C   UNL     1      15.209   9.093  21.586  0.00  0.00    +0.090 C 
ATOM     24  C   UNL     1      13.786   8.974  21.575  0.00  0.00    +0.090 C 
ATOM     25  C   UNL     1      13.108   8.524  21.439  0.00  0.00    +0.090 C 
ENDBRANCH  18  19
BRANCH  13  14
ATOM     14  C   UNL     1      10.894   5.994  21.587  0.00  0.00    +0.214 C 
ATOM     15  O   UNL     1      10.917   5.181  21.443  0.00  0.00    -0.218 OA
ENDBRANCH  13  14
BRANCH  11  10
ATOM     10  C   UNL     1      12.324   7.568  19.608  0.00  0.00    +0.148 C 
BRANCH  10   9
ATOM      6  N   UNL     1      11.612   7.634  17.546  0.00  0.00    -0.161 NA
ATOM      7  C   UNL     1      11.997   7.844  18.244  0.00  0.00    +0.344 C 
ATOM      8  O   UNL     1      12.439   8.540  18.280  0.00  0.00    -0.249 OA
ATOM      9  N   UNL     1      11.939   7.358  18.909  0.00  0.00    -0.184 NA
BRANCH   6   5
ATOM      3  C   UNL     1      12.433   8.642  15.791  0.00  0.00    +0.140 A 
ATOM      4  C   UNL     1      12.375   8.155  16.456  0.00  0.00    +0.054 A 
ATOM      5  C   UNL     1      11.669   8.121  16.881  0.00  0.00    +0.078 A 
ATOM     26  C   UNL     1      11.021   8.573  16.643  0.00  0.00    +0.017 A 
ATOM     27  C   UNL     1      11.079   9.059  15.980  0.00  0.00    +0.004 A 
ATOM     28  C   UNL     1      11.785   9.093  15.553  0.00  0.00    +0.037 A 
BRANCH   3   2
ATOM      1  C   UNL     1      13.803   9.037  15.697  0.00  0.00    +0.252 C 
ATOM      2  O   UNL     1      13.138   8.675  15.365  0.00  0.00    -0.471 OA
ENDBRANCH   3   2
ENDBRANCH   6   5
ENDBRANCH  10   9
ENDBRANCH  11  10
TORSDOF 6
ENDMDL
