MODEL 1
REMARK VINA RESULT:      -8.4      0.000      0.000
REMARK  Name = 
REMARK  8 active torsions:
REMARK  status: ('A' for Active; 'I' for Inactive)
REMARK    1  A    between atoms: C_2  and  N_4
REMARK    2  A    between atoms: N_7  and  C_8
REMARK    3  A    between atoms: C_8  and  C_9
REMARK    4  A    between atoms: C_11  and  C_12
REMARK    5  A    between atoms: C_12  and  C_13
REMARK    6  A    between atoms: N_15  and  C_16
REMARK    7  A    between atoms: C_16  and  C_17
REMARK    8  A    between atoms: C_17  and  N_18
REMARK                            x       y       z     vdW  Elec       q    Type
REMARK                         _______ _______ _______ _____ _____    ______ ____
ROOT
ATOM      9  C   UNL     1      -4.445   2.785  25.401  0.00  0.00    +0.170 C 
ATOM     10  O   UNL     1      -4.255   2.003  25.217  0.00  0.00    -0.351 OA
ATOM     11  C   UNL     1      -4.960   1.588  25.112  0.00  0.00    +0.157 C 
ATOM     21  C   UNL     1      -5.585   2.112  25.230  0.00  0.00    +0.212 C 
ATOM     22  O   UNL     1      -6.388   1.929  25.179  0.00  0.00    -0.218 OA
ATOM     23  C   UNL     1      -5.268   2.852  25.409  0.00  0.00    +0.213 C 
ATOM     24  O   UNL     1      -5.695   3.539  25.567  0.00  0.00    -0.218 OA
ENDROOT
BRANCH   9   8
ATOM      8  C   UNL     1      -3.907   3.392  25.550  0.00  0.00    +0.149 C 
BRANCH   8   7
ATOM      4  N   UNL     1      -1.965   4.053  24.803  0.00  0.00    -0.189 NA
ATOM      5  C   UNL     1      -2.609   3.939  25.305  0.00  0.00    +0.339 C 
ATOM      6  O   UNL     1      -2.600   4.256  26.066  0.00  0.00    -0.249 OA
ATOM      7  N   UNL     1      -3.263   3.506  25.047  0.00  0.00    -0.185 NA
BRANCH   4   2
ATOM      1  C   UNL     1      -1.330   5.310  25.045  0.00  0.00    +0.023 C 
ATOM      2  C   UNL     1      -1.312   4.485  25.060  0.00  0.00    +0.097 C 
ATOM      3  C   UNL     1      -0.640   4.093  25.334  0.00  0.00    +0.023 C 
ENDBRANCH   4   2
ENDBRANCH   8   7
ENDBRANCH   9   8
BRANCH  11  12
ATOM     12  C   UNL     1      -5.027   0.788  24.922  0.00  0.00    +0.119 C 
BRANCH  12  13
ATOM     13  C   UNL     1      -4.367   0.372  24.652  0.00  0.00    +0.244 C 
ATOM     14  O   UNL     1      -4.009   0.582  23.940  0.00  0.00    -0.273 OA
ATOM     15  N   UNL     1      -4.065  -0.254  25.097  0.00  0.00    -0.204 NA
BRANCH  15  16
ATOM     16  C   UNL     1      -3.405  -0.670  24.828  0.00  0.00    +0.132 C 
BRANCH  16  17
ATOM     17  C   UNL     1      -3.115  -1.308  25.263  0.00  0.00    +0.096 C 
BRANCH  17  18
ATOM     18  N   UNL     1      -2.521  -1.787  24.946  0.00  0.00    -0.269 NA
ATOM     19  C   UNL     1      -1.731  -1.557  25.005  0.00  0.00    +0.090 C 
ATOM     20  C   UNL     1      -2.719  -2.496  24.572  0.00  0.00    +0.090 C 
ENDBRANCH  17  18
ENDBRANCH  16  17
ENDBRANCH  15  16
ENDBRANCH  12  13
ENDBRANCH  11  12
TORSDOF 8
ENDMDL
MODEL 2
REMARK VINA RESULT:      -8.3      0.789      4.492
REMARK  Name = 
REMARK  8 active torsions:
REMARK  status: ('A' for Active; 'I' for Inactive)
REMARK    1  A    between atoms: C_2  and  N_4
REMARK    2  A    between atoms: N_7  and  C_8
REMARK    3  A    between atoms: C_8  and  C_9
REMARK    4  A    between atoms: C_11  and  C_12
REMARK    5  A    between atoms: C_12  and  C_13
REMARK    6  A    between atoms: N_15  and  C_16
REMARK    7  A    between atoms: C_16  and  C_17
REMARK    8  A    between atoms: C_17  and  N_18
REMARK                            x       y       z     vdW  Elec       q    Type
REMARK                         _______ _______ _______ _____ _____    ______ ____
ROOT
ATOM      9  C   UNL     1      -4.912   1.493  25.019  0.00  0.00    +0.170 C 
ATOM     10  O   UNL     1      -4.348   2.079  25.156  0.00  0.00    -0.351 OA
ATOM     11  C   UNL     1      -4.746   2.771  25.366  0.00  0.00    +0.157 C 
ATOM     21  C   UNL     1      -5.555   2.613  25.360  0.00  0.00    +0.212 C 
ATOM     22  O   UNL     1      -6.155   3.150  25.537  0.00  0.00    -0.218 OA
ATOM     23  C   UNL     1      -5.659   1.823  25.145  0.00  0.00    +0.213 C 
ATOM     24  O   UNL     1      -6.380   1.431  25.070  0.00  0.00    -0.218 OA
ENDROOT
BRANCH   9   8
ATOM      8  C   UNL     1      -4.758   0.714  24.796  0.00  0.00    +0.149 C 
BRANCH   8   7
ATOM      4  N   UNL     1      -3.379  -0.896  25.314  0.00  0.00    -0.189 NA
ATOM      5  C   UNL     1      -3.939  -0.452  24.903  0.00  0.00    +0.339 C 
ATOM      6  O   UNL     1      -4.241  -0.730  24.187  0.00  0.00    -0.249 OA
ATOM      7  N   UNL     1      -4.198   0.270  25.207  0.00  0.00    -0.185 NA
BRANCH   4   2
ATOM      1  C   UNL     1      -2.408  -1.660  24.595  0.00  0.00    +0.023 C 
ATOM      2  C   UNL     1      -3.121  -1.618  25.011  0.00  0.00    +0.097 C 
ATOM      3  C   UNL     1      -3.573  -2.298  25.121  0.00  0.00    +0.023 C 
ENDBRANCH   4   2
ENDBRANCH   8   7
ENDBRANCH   9   8
BRANCH  11  12
ATOM     12  C   UNL     1      -4.394   3.494  25.551  0.00  0.00    +0.119 C 
BRANCH  12  13
ATOM     13  C   UNL     1      -3.727   3.747  25.134  0.00  0.00    +0.244 C 
ATOM     14  O   UNL     1      -3.784   3.916  24.329  0.00  0.00    -0.273 OA
ATOM     15  N   UNL     1      -3.005   3.829  25.524  0.00  0.00    -0.204 NA
BRANCH  15  16
ATOM     16  C   UNL     1      -2.338   4.081  25.108  0.00  0.00    +0.132 C 
BRANCH  16  17
ATOM     17  C   UNL     1      -1.624   4.197  25.504  0.00  0.00    +0.096 C 
BRANCH  17  18
ATOM     18  N   UNL     1      -0.927   4.304  25.075  0.00  0.00    -0.269 NA
ATOM     19  C   UNL     1      -0.713   5.058  24.819  0.00  0.00    +0.090 C 
ATOM     20  C   UNL     1      -0.445   3.657  24.904  0.00  0.00    +0.090 C 
ENDBRANCH  17  18
ENDBRANCH  16  17
ENDBRANCH  15  16
ENDBRANCH  12  13
ENDBRANCH  11  12
TORSDOF 8
ENDMDL
MODEL 3
REMARK VINA RESULT:      -7.7      1.988      5.305
REMARK  Name = 
REMARK  8 active torsions:
REMARK  status: ('A' for Active; 'I' for Inactive)
REMARK    1  A    between atoms: C_2  and  N_4
REMARK    2  A    between atoms: N_7  and  C_8
REMARK    3  A    between atoms: C_8  and  C_9
REMARK    4  A    between atoms: C_11  and  C_12
REMARK    5  A    between atoms: C_12  and  C_13
REMARK    6  A    between atoms: N_15  and  C_16
REMARK    7  A    between atoms: C_16  and  C_17
REMARK    8  A    between atoms: C_17  and  N_18
REMARK                            x       y       z     vdW  Elec       q    Type
REMARK                         _______ _______ _______ _____ _____    ______ ____
ROOT
ATOM      9  C   UNL     1      -1.332   0.651  24.578  0.00  0.00    +0.170 C 
ATOM     10  O   UNL     1      -1.836   1.283  24.744  0.00  0.00    -0.351 OA
ATOM     11  C   UNL     1      -1.390   1.977  24.723  0.00  0.00    +0.157 C 
ATOM     21  C   UNL     1      -0.611   1.775  24.546  0.00  0.00    +0.212 C 
ATOM     22  O   UNL     1       0.022   2.299  24.471  0.00  0.00    -0.218 OA
ATOM     23  C   UNL     1      -0.574   0.955  24.455  0.00  0.00    +0.213 C 
ATOM     24  O   UNL     1       0.100   0.516  24.275  0.00  0.00    -0.218 OA
ENDROOT
BRANCH   9   8
ATOM      8  C   UNL     1      -1.547  -0.144  24.541  0.00  0.00    +0.149 C 
BRANCH   8   7
ATOM      4  N   UNL     1      -3.332  -1.379  24.772  0.00  0.00    -0.189 NA
ATOM      5  C   UNL     1      -2.559  -1.152  24.595  0.00  0.00    +0.339 C 
ATOM      6  O   UNL     1      -2.024  -1.705  24.297  0.00  0.00    -0.249 OA
ATOM      7  N   UNL     1      -2.319  -0.371  24.717  0.00  0.00    -0.185 NA
BRANCH   4   2
ATOM      1  C   UNL     1      -3.992  -2.360  23.969  0.00  0.00    +0.023 C 
ATOM      2  C   UNL     1      -3.570  -2.159  24.650  0.00  0.00    +0.097 C 
ATOM      3  C   UNL     1      -3.388  -2.738  25.208  0.00  0.00    +0.023 C 
ENDBRANCH   4   2
ENDBRANCH   8   7
ENDBRANCH   9   8
BRANCH  11  12
ATOM     12  C   UNL     1      -1.675   2.739  24.858  0.00  0.00    +0.119 C 
BRANCH  12  13
ATOM     13  C   UNL     1      -2.465   2.918  24.699  0.00  0.00    +0.244 C 
ATOM     14  O   UNL     1      -2.729   2.962  23.918  0.00  0.00    -0.273 OA
ATOM     15  N   UNL     1      -2.990   3.053  25.320  0.00  0.00    -0.204 NA
BRANCH  15  16
ATOM     16  C   UNL     1      -3.780   3.232  25.161  0.00  0.00    +0.132 C 
BRANCH  16  17
ATOM     17  C   UNL     1      -4.299   3.391  25.782  0.00  0.00    +0.096 C 
BRANCH  17  18
ATOM     18  N   UNL     1      -5.114   3.333  25.663  0.00  0.00    -0.269 NA
ATOM     19  C   UNL     1      -5.493   2.606  25.753  0.00  0.00    +0.090 C 
ATOM     20  C   UNL     1      -5.549   4.002  25.453  0.00  0.00    +0.090 C 
ENDBRANCH  17  18
ENDBRANCH  16  17
ENDBRANCH  15  16
ENDBRANCH  12  13
ENDBRANCH  11  12
TORSDOF 8
ENDMDL
MODEL 4
REMARK VINA RESULT:      -7.6      1.625      3.744
REMARK  Name = 
REMARK  8 active torsions:
REMARK  status: ('A' for Active; 'I' for Inactive)
REMARK    1  A    between atoms: C_2  and  N_4
REMARK    2  A    between atoms: N_7  and  C_8
REMARK    3  A    between atoms: C_8  and  C_9
REMARK    4  A    between atoms: C_11  and  C_12
REMARK    5  A    between atoms: C_12  and  C_13
REMARK    6  A    between atoms: N_15  and  C_16
REMARK    7  A    between atoms: C_16  and  C_17
REMARK    8  A    between atoms: C_17  and  N_18
REMARK                            x       y       z     vdW  Elec       q    Type
REMARK                         _______ _______ _______ _____ _____    ______ ____
ROOT
ATOM      9  C   UNL     1      -2.416   3.518  25.221  0.00  0.00    +0.170 C 
ATOM     10  O   UNL     1      -1.939   2.848  25.158  0.00  0.00    -0.351 OA
ATOM     11  C   UNL     1      -1.154   3.098  25.104  0.00  0.00    +0.157 C 
ATOM     21  C   UNL     1      -1.146   3.922  25.133  0.00  0.00    +0.212 C 
ATOM     22  O   UNL     1      -0.476   4.402  25.096  0.00  0.00    -0.218 OA
ATOM     23  C   UNL     1      -1.926   4.182  25.205  0.00  0.00    +0.213 C 
ATOM     24  O   UNL     1      -2.173   4.967  25.254  0.00  0.00    -0.218 OA
ENDROOT
BRANCH   9   8
ATOM      8  C   UNL     1      -3.238   3.524  25.288  0.00  0.00    +0.149 C 
BRANCH   8   7
ATOM      4  N   UNL     1      -4.894   2.107  25.412  0.00  0.00    -0.189 NA
ATOM      5  C   UNL     1      -4.478   2.818  25.375  0.00  0.00    +0.339 C 
ATOM      6  O   UNL     1      -4.885   3.536  25.386  0.00  0.00    -0.249 OA
ATOM      7  N   UNL     1      -3.654   2.813  25.326  0.00  0.00    -0.185 NA
BRANCH   4   2
ATOM      1  C   UNL     1      -6.171   2.011  24.780  0.00  0.00    +0.023 C 
ATOM      2  C   UNL     1      -5.717   2.113  25.461  0.00  0.00    +0.097 C 
ATOM      3  C   UNL     1      -6.086   2.220  26.191  0.00  0.00    +0.023 C 
ENDBRANCH   4   2
ENDBRANCH   8   7
ENDBRANCH   9   8
BRANCH  11  12
ATOM     12  C   UNL     1      -0.494   2.608  25.032  0.00  0.00    +0.119 C 
BRANCH  12  13
ATOM     13  C   UNL     1      -0.525   1.832  25.312  0.00  0.00    +0.244 C 
ATOM     14  O   UNL     1      -0.497   1.684  26.123  0.00  0.00    -0.273 OA
ATOM     15  N   UNL     1      -0.583   1.205  24.779  0.00  0.00    -0.204 NA
BRANCH  15  16
ATOM     16  C   UNL     1      -0.614   0.428  25.058  0.00  0.00    +0.132 C 
BRANCH  16  17
ATOM     17  C   UNL     1      -0.628  -0.201  24.525  0.00  0.00    +0.096 C 
BRANCH  17  18
ATOM     18  N   UNL     1      -0.912  -0.938  24.764  0.00  0.00    -0.269 NA
ATOM     19  C   UNL     1      -0.397  -1.489  25.099  0.00  0.00    +0.090 C 
ATOM     20  C   UNL     1      -1.710  -1.123  24.669  0.00  0.00    +0.090 C 
ENDBRANCH  17  18
ENDBRANCH  16  17
ENDBRANCH  15  16
ENDBRANCH  12  13
ENDBRANCH  11  12
TORSDOF 8
ENDMDL
