MODEL 1
REMARK VINA RESULT:     -11.3      0.000      0.000
REMARK  Name = 
REMARK  5 active torsions:
REMARK  status: ('A' for Active; 'I' for Inactive)
REMARK    1  A    between atoms: S_2  and  N_4
REMARK    2  A    between atoms: S_2  and  C_29
REMARK    3  A    between atoms: N_4  and  C_5
REMARK    4  A    between atoms: C_9  and  N_13
REMARK    5  A    between atoms: C_16  and  C_20
REMARK                            x       y       z     vdW  Elec       q    Type
REMARK                         _______ _______ _______ _____ _____    ______ ____
ROOT
ATOM      5  C   UNL     1       0.708   0.109  23.225  0.00  0.00    +0.157 C 
ATOM      6  C   UNL     1       0.721   0.935  23.221  0.00  0.00    +0.164 C 
ATOM      7  O   UNL     1       0.054   1.201  23.628  0.00  0.00    -0.350 OA
ATOM      8  C   UNL     1      -0.370   0.541  23.884  0.00  0.00    +0.166 C 
ATOM      9  C   UNL     1      -1.043   0.297  24.292  0.00  0.00    +0.154 C 
ATOM     10  C   UNL     1      -1.056  -0.527  24.296  0.00  0.00    +0.166 C 
ATOM     11  O   UNL     1      -0.389  -0.794  23.890  0.00  0.00    -0.350 OA
ATOM     12  C   UNL     1       0.034  -0.134  23.635  0.00  0.00    +0.164 C 
ENDROOT
BRANCH   9  13
ATOM     13  N   UNL     1      -1.607   0.792  24.637  0.00  0.00    -0.200 NA
ATOM     14  C   UNL     1      -2.403   0.714  24.436  0.00  0.00    +0.237 A 
ATOM     15  N   UNL     1      -2.966   1.209  24.781  0.00  0.00    -0.212 NA
ATOM     16  C   UNL     1      -3.762   1.131  24.580  0.00  0.00    +0.086 A 
ATOM     17  C   UNL     1      -3.995   0.559  24.033  0.00  0.00    +0.040 A 
ATOM     18  C   UNL     1      -3.433   0.065  23.688  0.00  0.00    +0.103 A 
ATOM     19  N   UNL     1      -2.636   0.142  23.889  0.00  0.00    -0.211 NA
BRANCH  16  20
ATOM     20  C   UNL     1      -4.325   1.626  24.925  0.00  0.00    +0.021 A 
ATOM     21  C   UNL     1      -4.237   2.445  24.882  0.00  0.00    +0.042 A 
ATOM     22  C   UNL     1      -4.799   2.940  25.226  0.00  0.00    +0.176 A 
ATOM     23  C   UNL     1      -5.452   2.615  25.614  0.00  0.00    +0.176 A 
ATOM     24  O   UNL     1      -5.913   3.237  25.900  0.00  0.00    -0.435 OA
ATOM     25  C   UNL     1      -5.546   3.945  25.688  0.00  0.00    +0.429 C 
ATOM     26  O   UNL     1      -4.858   3.762  25.272  0.00  0.00    -0.435 OA
ATOM     27  C   UNL     1      -5.541   1.796  25.657  0.00  0.00    +0.040 A 
ATOM     28  C   UNL     1      -4.977   1.302  25.312  0.00  0.00    +0.005 A 
ENDBRANCH  16  20
ENDBRANCH   9  13
BRANCH   5   4
ATOM      4  N   UNL     1       1.271  -0.385  22.881  0.00  0.00    -0.074 NA
BRANCH   4   2
ATOM      1  O   UNL     1       2.049   0.113  22.167  0.00  0.00    -0.152 OA
ATOM      2  S   UNL     1       2.073  -0.197  22.932  0.00  0.00    +0.077 S 
ATOM      3  O   UNL     1       2.097  -0.506  23.697  0.00  0.00    -0.152 OA
BRANCH   2  29
ATOM     29  C   UNL     1       2.875  -0.009  22.983  0.00  0.00    +0.124 A 
ATOM     30  C   UNL     1       3.393  -0.514  23.378  0.00  0.00    +0.020 A 
ATOM     31  C   UNL     1       4.194  -0.326  23.429  0.00  0.00    +0.001 A 
ATOM     32  C   UNL     1       4.713  -0.831  23.825  0.00  0.00    +0.000 A 
ATOM     33  C   UNL     1       5.514  -0.643  23.876  0.00  0.00    +0.000 A 
ATOM     34  C   UNL     1       5.798   0.052  23.530  0.00  0.00    +0.000 A 
ATOM     35  C   UNL     1       5.280   0.557  23.135  0.00  0.00    +0.000 A 
ATOM     36  C   UNL     1       4.478   0.369  23.084  0.00  0.00    +0.000 A 
ATOM     37  C   UNL     1       3.960   0.874  22.689  0.00  0.00    +0.001 A 
ATOM     38  C   UNL     1       3.159   0.686  22.638  0.00  0.00    +0.020 A 
ENDBRANCH   2  29
ENDBRANCH   4   2
ENDBRANCH   5   4
TORSDOF 5
ENDMDL
MODEL 2
REMARK VINA RESULT:     -11.3      1.592      7.727
REMARK  Name = 
REMARK  5 active torsions:
REMARK  status: ('A' for Active; 'I' for Inactive)
REMARK    1  A    between atoms: S_2  and  N_4
REMARK    2  A    between atoms: S_2  and  C_29
REMARK    3  A    between atoms: N_4  and  C_5
REMARK    4  A    between atoms: C_9  and  N_13
REMARK    5  A    between atoms: C_16  and  C_20
REMARK                            x       y       z     vdW  Elec       q    Type
REMARK                         _______ _______ _______ _____ _____    ______ ____
ROOT
ATOM      5  C   UNL     1      -2.204   0.642  23.967  0.00  0.00    +0.157 C 
ATOM      6  C   UNL     1      -1.878   1.391  24.086  0.00  0.00    +0.164 C 
ATOM      7  O   UNL     1      -1.058   1.309  24.122  0.00  0.00    -0.350 OA
ATOM      8  C   UNL     1      -0.876   0.510  24.026  0.00  0.00    +0.166 C 
ATOM      9  C   UNL     1      -0.258  -0.035  23.988  0.00  0.00    +0.154 C 
ATOM     10  C   UNL     1      -0.584  -0.783  23.870  0.00  0.00    +0.166 C 
ATOM     11  O   UNL     1      -1.404  -0.702  23.834  0.00  0.00    -0.350 OA
ATOM     12  C   UNL     1      -1.585   0.097  23.930  0.00  0.00    +0.164 C 
ENDROOT
BRANCH   9  13
ATOM     13  N   UNL     1       0.545   0.138  24.058  0.00  0.00    -0.200 NA
ATOM     14  C   UNL     1       1.052   0.008  23.421  0.00  0.00    +0.237 A 
ATOM     15  N   UNL     1       1.856   0.181  23.490  0.00  0.00    -0.212 NA
ATOM     16  C   UNL     1       2.363   0.050  22.853  0.00  0.00    +0.086 A 
ATOM     17  C   UNL     1       2.066  -0.253  22.145  0.00  0.00    +0.040 A 
ATOM     18  C   UNL     1       1.263  -0.426  22.075  0.00  0.00    +0.103 A 
ATOM     19  N   UNL     1       0.756  -0.296  22.713  0.00  0.00    -0.211 NA
BRANCH  16  20
ATOM     20  C   UNL     1       3.167   0.223  22.922  0.00  0.00    +0.021 A 
ATOM     21  C   UNL     1       3.676  -0.320  23.278  0.00  0.00    +0.042 A 
ATOM     22  C   UNL     1       4.479  -0.148  23.348  0.00  0.00    +0.176 A 
ATOM     23  C   UNL     1       4.774   0.568  23.061  0.00  0.00    +0.176 A 
ATOM     24  O   UNL     1       5.587   0.585  23.206  0.00  0.00    -0.435 OA
ATOM     25  C   UNL     1       5.793  -0.120  23.583  0.00  0.00    +0.429 C 
ATOM     26  O   UNL     1       5.109  -0.572  23.670  0.00  0.00    -0.435 OA
ATOM     27  C   UNL     1       4.265   1.111  22.705  0.00  0.00    +0.040 A 
ATOM     28  C   UNL     1       3.462   0.938  22.636  0.00  0.00    +0.005 A 
ENDBRANCH  16  20
ENDBRANCH   9  13
BRANCH   5   4
ATOM      4  N   UNL     1      -3.007   0.469  23.898  0.00  0.00    -0.074 NA
BRANCH   4   2
ATOM      1  O   UNL     1      -3.514   0.501  24.948  0.00  0.00    -0.152 OA
ATOM      2  S   UNL     1      -3.567   0.954  24.261  0.00  0.00    +0.077 S 
ATOM      3  O   UNL     1      -3.620   1.407  23.573  0.00  0.00    -0.152 OA
BRANCH   2  29
ATOM     29  C   UNL     1      -4.127   1.439  24.624  0.00  0.00    +0.124 A 
ATOM     30  C   UNL     1      -4.016   2.255  24.644  0.00  0.00    +0.020 A 
ATOM     31  C   UNL     1      -4.576   2.740  25.006  0.00  0.00    +0.001 A 
ATOM     32  C   UNL     1      -4.465   3.557  25.026  0.00  0.00    +0.000 A 
ATOM     33  C   UNL     1      -5.025   4.041  25.389  0.00  0.00    +0.000 A 
ATOM     34  C   UNL     1      -5.698   3.708  25.733  0.00  0.00    +0.000 A 
ATOM     35  C   UNL     1      -5.809   2.892  25.713  0.00  0.00    +0.000 A 
ATOM     36  C   UNL     1      -5.249   2.407  25.350  0.00  0.00    +0.000 A 
ATOM     37  C   UNL     1      -5.360   1.590  25.330  0.00  0.00    +0.001 A 
ATOM     38  C   UNL     1      -4.801   1.106  24.968  0.00  0.00    +0.020 A 
ENDBRANCH   2  29
ENDBRANCH   4   2
ENDBRANCH   5   4
TORSDOF 5
ENDMDL
MODEL 3
REMARK VINA RESULT:     -10.4      2.161      7.357
REMARK  Name = 
REMARK  5 active torsions:
REMARK  status: ('A' for Active; 'I' for Inactive)
REMARK    1  A    between atoms: S_2  and  N_4
REMARK    2  A    between atoms: S_2  and  C_29
REMARK    3  A    between atoms: N_4  and  C_5
REMARK    4  A    between atoms: C_9  and  N_13
REMARK    5  A    between atoms: C_16  and  C_20
REMARK                            x       y       z     vdW  Elec       q    Type
REMARK                         _______ _______ _______ _____ _____    ______ ____
ROOT
ATOM      5  C   UNL     1      -1.605   1.085  24.958  0.00  0.00    +0.157 C 
ATOM      6  C   UNL     1      -1.148   0.756  25.562  0.00  0.00    +0.164 C 
ATOM      7  O   UNL     1      -0.354   0.843  25.356  0.00  0.00    -0.350 OA
ATOM      8  C   UNL     1      -0.320   1.225  24.626  0.00  0.00    +0.166 C 
ATOM      9  C   UNL     1       0.191   1.516  24.047  0.00  0.00    +0.154 C 
ATOM     10  C   UNL     1      -0.266   1.844  23.444  0.00  0.00    +0.166 C 
ATOM     11  O   UNL     1      -1.060   1.757  23.650  0.00  0.00    -0.350 OA
ATOM     12  C   UNL     1      -1.094   1.375  24.379  0.00  0.00    +0.164 C 
ENDROOT
BRANCH   9  13
ATOM     13  N   UNL     1       1.015   1.483  24.068  0.00  0.00    -0.200 NA
ATOM     14  C   UNL     1       1.422   0.982  23.554  0.00  0.00    +0.237 A 
ATOM     15  N   UNL     1       2.246   0.950  23.575  0.00  0.00    -0.212 NA
ATOM     16  C   UNL     1       2.652   0.449  23.061  0.00  0.00    +0.086 A 
ATOM     17  C   UNL     1       2.235  -0.020  22.526  0.00  0.00    +0.040 A 
ATOM     18  C   UNL     1       1.411   0.012  22.505  0.00  0.00    +0.103 A 
ATOM     19  N   UNL     1       1.004   0.513  23.019  0.00  0.00    -0.211 NA
BRANCH  16  20
ATOM     20  C   UNL     1       3.477   0.417  23.082  0.00  0.00    +0.021 A 
ATOM     21  C   UNL     1       3.855  -0.185  23.499  0.00  0.00    +0.042 A 
ATOM     22  C   UNL     1       4.679  -0.219  23.521  0.00  0.00    +0.176 A 
ATOM     23  C   UNL     1       5.125   0.351  23.123  0.00  0.00    +0.176 A 
ATOM     24  O   UNL     1       5.923   0.177  23.242  0.00  0.00    -0.435 OA
ATOM     25  C   UNL     1       5.970  -0.499  23.712  0.00  0.00    +0.429 C 
ATOM     26  O   UNL     1       5.202  -0.744  23.884  0.00  0.00    -0.435 OA
ATOM     27  C   UNL     1       4.747   0.953  22.705  0.00  0.00    +0.040 A 
ATOM     28  C   UNL     1       3.922   0.986  22.685  0.00  0.00    +0.005 A 
ENDBRANCH  16  20
ENDBRANCH   9  13
BRANCH   5   4
ATOM      4  N   UNL     1      -2.429   1.117  24.937  0.00  0.00    -0.074 NA
BRANCH   4   2
ATOM      1  O   UNL     1      -2.704   0.120  25.477  0.00  0.00    -0.152 OA
ATOM      2  S   UNL     1      -2.864   0.446  24.736  0.00  0.00    +0.077 S 
ATOM      3  O   UNL     1      -3.024   0.772  23.995  0.00  0.00    -0.152 OA
BRANCH   2  29
ATOM     29  C   UNL     1      -3.300  -0.226  24.535  0.00  0.00    +0.124 A 
ATOM     30  C   UNL     1      -2.976  -0.976  24.643  0.00  0.00    +0.020 A 
ATOM     31  C   UNL     1      -3.411  -1.646  24.442  0.00  0.00    +0.001 A 
ATOM     32  C   UNL     1      -3.087  -2.398  24.551  0.00  0.00    +0.000 A 
ATOM     33  C   UNL     1      -3.522  -3.068  24.349  0.00  0.00    +0.000 A 
ATOM     34  C   UNL     1      -4.283  -2.988  24.038  0.00  0.00    +0.000 A 
ATOM     35  C   UNL     1      -4.607  -2.238  23.930  0.00  0.00    +0.000 A 
ATOM     36  C   UNL     1      -4.172  -1.566  24.131  0.00  0.00    +0.000 A 
ATOM     37  C   UNL     1      -4.496  -0.816  24.022  0.00  0.00    +0.001 A 
ATOM     38  C   UNL     1      -4.061  -0.146  24.224  0.00  0.00    +0.020 A 
ENDBRANCH   2  29
ENDBRANCH   4   2
ENDBRANCH   5   4
TORSDOF 5
ENDMDL
MODEL 4
REMARK VINA RESULT:      -9.5      2.163      7.598
REMARK  Name = 
REMARK  5 active torsions:
REMARK  status: ('A' for Active; 'I' for Inactive)
REMARK    1  A    between atoms: S_2  and  N_4
REMARK    2  A    between atoms: S_2  and  C_29
REMARK    3  A    between atoms: N_4  and  C_5
REMARK    4  A    between atoms: C_9  and  N_13
REMARK    5  A    between atoms: C_16  and  C_20
REMARK                            x       y       z     vdW  Elec       q    Type
REMARK                         _______ _______ _______ _____ _____    ______ ____
ROOT
ATOM      5  C   UNL     1      -1.995   3.908  25.460  0.00  0.00    +0.157 C 
ATOM      6  C   UNL     1      -1.804   4.201  24.712  0.00  0.00    +0.164 C 
ATOM      7  O   UNL     1      -1.102   3.842  24.470  0.00  0.00    -0.350 OA
ATOM      8  C   UNL     1      -0.859   3.327  25.067  0.00  0.00    +0.166 C 
ATOM      9  C   UNL     1      -0.276   2.787  25.286  0.00  0.00    +0.154 C 
ATOM     10  C   UNL     1      -0.466   2.494  26.033  0.00  0.00    +0.166 C 
ATOM     11  O   UNL     1      -1.168   2.853  26.276  0.00  0.00    -0.350 OA
ATOM     12  C   UNL     1      -1.411   3.368  25.680  0.00  0.00    +0.164 C 
ENDROOT
BRANCH   9  13
ATOM     13  N   UNL     1       0.384   2.576  24.837  0.00  0.00    -0.200 NA
ATOM     14  C   UNL     1       0.419   1.835  24.478  0.00  0.00    +0.237 A 
ATOM     15  N   UNL     1       1.079   1.624  24.029  0.00  0.00    -0.212 NA
ATOM     16  C   UNL     1       1.114   0.883  23.670  0.00  0.00    +0.086 A 
ATOM     17  C   UNL     1       0.489   0.351  23.760  0.00  0.00    +0.040 A 
ATOM     18  C   UNL     1      -0.170   0.561  24.208  0.00  0.00    +0.103 A 
ATOM     19  N   UNL     1      -0.205   1.303  24.568  0.00  0.00    -0.211 NA
BRANCH  16  20
ATOM     20  C   UNL     1       1.773   0.672  23.221  0.00  0.00    +0.021 A 
ATOM     21  C   UNL     1       2.513   0.991  23.401  0.00  0.00    +0.042 A 
ATOM     22  C   UNL     1       3.173   0.781  22.953  0.00  0.00    +0.176 A 
ATOM     23  C   UNL     1       3.093   0.251  22.325  0.00  0.00    +0.176 A 
ATOM     24  O   UNL     1       3.837   0.147  21.983  0.00  0.00    -0.435 OA
ATOM     25  C   UNL     1       4.376   0.612  22.400  0.00  0.00    +0.429 C 
ATOM     26  O   UNL     1       3.966   1.004  22.998  0.00  0.00    -0.435 OA
ATOM     27  C   UNL     1       2.353  -0.068  22.145  0.00  0.00    +0.040 A 
ATOM     28  C   UNL     1       1.694   0.143  22.594  0.00  0.00    +0.005 A 
ENDBRANCH  16  20
ENDBRANCH   9  13
BRANCH   5   4
ATOM      4  N   UNL     1      -2.653   4.119  25.909  0.00  0.00    -0.074 NA
BRANCH   4   2
ATOM      1  O   UNL     1      -3.371   4.062  24.991  0.00  0.00    -0.152 OA
ATOM      2  S   UNL     1      -3.384   3.766  25.761  0.00  0.00    +0.077 S 
ATOM      3  O   UNL     1      -3.398   3.470  26.531  0.00  0.00    -0.152 OA
BRANCH   2  29
ATOM     29  C   UNL     1      -4.116   3.413  25.612  0.00  0.00    +0.124 A 
ATOM     30  C   UNL     1      -4.154   2.621  25.388  0.00  0.00    +0.020 A 
ATOM     31  C   UNL     1      -4.884   2.269  25.240  0.00  0.00    +0.001 A 
ATOM     32  C   UNL     1      -4.923   1.476  25.015  0.00  0.00    +0.000 A 
ATOM     33  C   UNL     1      -5.654   1.124  24.867  0.00  0.00    +0.000 A 
ATOM     34  C   UNL     1      -6.348   1.566  24.943  0.00  0.00    +0.000 A 
ATOM     35  C   UNL     1      -6.310   2.358  25.168  0.00  0.00    +0.000 A 
ATOM     36  C   UNL     1      -5.578   2.710  25.316  0.00  0.00    +0.000 A 
ATOM     37  C   UNL     1      -5.540   3.503  25.541  0.00  0.00    +0.001 A 
ATOM     38  C   UNL     1      -4.810   3.855  25.689  0.00  0.00    +0.020 A 
ENDBRANCH   2  29
ENDBRANCH   4   2
ENDBRANCH   5   4
TORSDOF 5
ENDMDL
MODEL 5
REMARK VINA RESULT:      -8.0     16.274     18.382
REMARK  Name = 
REMARK  5 active torsions:
REMARK  status: ('A' for Active; 'I' for Inactive)
REMARK    1  A    between atoms: S_2  and  N_4
REMARK    2  A    between atoms: S_2  and  C_29
REMARK    3  A    between atoms: N_4  and  C_5
REMARK    4  A    between atoms: C_9  and  N_13
REMARK    5  A    between atoms: C_16  and  C_20
REMARK                            x       y       z     vdW  Elec       q    Type
REMARK                         _______ _______ _______ _____ _____    ______ ____
ROOT
ATOM      5  C   UNL     1      -6.273  -8.963   9.687  0.00  0.00    +0.157 C 
ATOM      6  C   UNL     1      -6.514  -8.565  10.369  0.00  0.00    +0.164 C 
ATOM      7  O   UNL     1      -6.083  -8.866  11.005  0.00  0.00    -0.350 OA
ATOM      8  C   UNL     1      -5.576  -9.449  10.717  0.00  0.00    +0.166 C 
ATOM      9  C   UNL     1      -4.996  -9.995  10.930  0.00  0.00    +0.154 C 
ATOM     10  C   UNL     1      -4.755 -10.392  10.249  0.00  0.00    +0.166 C 
ATOM     11  O   UNL     1      -5.185 -10.091   9.613  0.00  0.00    -0.350 OA
ATOM     12  C   UNL     1      -5.692  -9.509   9.901  0.00  0.00    +0.164 C 
ENDROOT
BRANCH   9  13
ATOM     13  N   UNL     1      -4.707 -10.122  11.693  0.00  0.00    -0.200 NA
ATOM     14  C   UNL     1      -3.894 -10.137  11.830  0.00  0.00    +0.237 A 
ATOM     15  N   UNL     1      -3.606 -10.264  12.592  0.00  0.00    -0.212 NA
ATOM     16  C   UNL     1      -2.793 -10.278  12.729  0.00  0.00    +0.086 A 
ATOM     17  C   UNL     1      -2.267 -10.165  12.103  0.00  0.00    +0.040 A 
ATOM     18  C   UNL     1      -2.555 -10.038  11.341  0.00  0.00    +0.103 A 
ATOM     19  N   UNL     1      -3.369 -10.024  11.204  0.00  0.00    -0.211 NA
BRANCH  16  20
ATOM     20  C   UNL     1      -2.504 -10.406  13.491  0.00  0.00    +0.021 A 
ATOM     21  C   UNL     1      -3.028 -10.454  14.127  0.00  0.00    +0.042 A 
ATOM     22  C   UNL     1      -2.740 -10.581  14.890  0.00  0.00    +0.176 A 
ATOM     23  C   UNL     1      -1.928 -10.660  15.017  0.00  0.00    +0.176 A 
ATOM     24  O   UNL     1      -1.808 -10.781  15.824  0.00  0.00    -0.435 OA
ATOM     25  C   UNL     1      -2.544 -10.776  16.196  0.00  0.00    +0.429 C 
ATOM     26  O   UNL     1      -3.120 -10.653  15.619  0.00  0.00    -0.435 OA
ATOM     27  C   UNL     1      -1.405 -10.613  14.381  0.00  0.00    +0.040 A 
ATOM     28  C   UNL     1      -1.694 -10.485  13.618  0.00  0.00    +0.005 A 
ENDBRANCH  16  20
ENDBRANCH   9  13
BRANCH   5   4
ATOM      4  N   UNL     1      -6.561  -8.836   8.925  0.00  0.00    -0.074 NA
BRANCH   4   2
ATOM      1  O   UNL     1      -6.740  -7.770   8.484  0.00  0.00    -0.152 OA
ATOM      2  S   UNL     1      -7.222  -8.356   8.808  0.00  0.00    +0.077 S 
ATOM      3  O   UNL     1      -7.705  -8.943   9.131  0.00  0.00    -0.152 OA
BRANCH   2  29
ATOM     29  C   UNL     1      -7.884  -7.877   8.690  0.00  0.00    +0.124 A 
ATOM     30  C   UNL     1      -7.798  -7.058   8.646  0.00  0.00    +0.020 A 
ATOM     31  C   UNL     1      -8.459  -6.580   8.529  0.00  0.00    +0.001 A 
ATOM     32  C   UNL     1      -8.373  -5.760   8.485  0.00  0.00    +0.000 A 
ATOM     33  C   UNL     1      -9.034  -5.282   8.367  0.00  0.00    +0.000 A 
ATOM     34  C   UNL     1      -9.783  -5.623   8.294  0.00  0.00    +0.000 A 
ATOM     35  C   UNL     1      -9.869  -6.442   8.338  0.00  0.00    +0.000 A 
ATOM     36  C   UNL     1      -9.207  -6.921   8.456  0.00  0.00    +0.000 A 
ATOM     37  C   UNL     1      -9.293  -7.740   8.500  0.00  0.00    +0.001 A 
ATOM     38  C   UNL     1      -8.632  -8.218   8.617  0.00  0.00    +0.020 A 
ENDBRANCH   2  29
ENDBRANCH   4   2
ENDBRANCH   5   4
TORSDOF 5
ENDMDL
MODEL 6
REMARK VINA RESULT:      -7.7     17.127     19.359
REMARK  Name = 
REMARK  5 active torsions:
REMARK  status: ('A' for Active; 'I' for Inactive)
REMARK    1  A    between atoms: S_2  and  N_4
REMARK    2  A    between atoms: S_2  and  C_29
REMARK    3  A    between atoms: N_4  and  C_5
REMARK    4  A    between atoms: C_9  and  N_13
REMARK    5  A    between atoms: C_16  and  C_20
REMARK                            x       y       z     vdW  Elec       q    Type
REMARK                         _______ _______ _______ _____ _____    ______ ____
ROOT
ATOM      5  C   UNL     1      -8.250  -9.233   9.482  0.00  0.00    +0.157 C 
ATOM      6  C   UNL     1      -8.152  -8.820  10.190  0.00  0.00    +0.164 C 
ATOM      7  O   UNL     1      -7.466  -9.098  10.554  0.00  0.00    -0.350 OA
ATOM      8  C   UNL     1      -7.140  -9.683  10.071  0.00  0.00    +0.166 C 
ATOM      9  C   UNL     1      -6.515 -10.216   9.998  0.00  0.00    +0.154 C 
ATOM     10  C   UNL     1      -6.613 -10.628   9.291  0.00  0.00    +0.166 C 
ATOM     11  O   UNL     1      -7.299 -10.350   8.926  0.00  0.00    -0.350 OA
ATOM     12  C   UNL     1      -7.625  -9.766   9.408  0.00  0.00    +0.164 C 
ENDROOT
BRANCH   9  13
ATOM     13  N   UNL     1      -5.899 -10.319  10.537  0.00  0.00    -0.200 NA
ATOM     14  C   UNL     1      -5.142 -10.049  10.356  0.00  0.00    +0.237 A 
ATOM     15  N   UNL     1      -4.526 -10.152  10.895  0.00  0.00    -0.212 NA
ATOM     16  C   UNL     1      -3.769  -9.882  10.714  0.00  0.00    +0.086 A 
ATOM     17  C   UNL     1      -3.626  -9.508   9.992  0.00  0.00    +0.040 A 
ATOM     18  C   UNL     1      -4.241  -9.405   9.452  0.00  0.00    +0.103 A 
ATOM     19  N   UNL     1      -4.999  -9.675   9.634  0.00  0.00    -0.211 NA
BRANCH  16  20
ATOM     20  C   UNL     1      -3.153  -9.985  11.253  0.00  0.00    +0.021 A 
ATOM     21  C   UNL     1      -3.319 -10.195  12.033  0.00  0.00    +0.042 A 
ATOM     22  C   UNL     1      -2.705 -10.299  12.573  0.00  0.00    +0.176 A 
ATOM     23  C   UNL     1      -1.922 -10.192  12.333  0.00  0.00    +0.176 A 
ATOM     24  O   UNL     1      -1.434 -10.331  12.984  0.00  0.00    -0.435 OA
ATOM     25  C   UNL     1      -1.915 -10.524  13.626  0.00  0.00    +0.429 C 
ATOM     26  O   UNL     1      -2.699 -10.504  13.372  0.00  0.00    -0.435 OA
ATOM     27  C   UNL     1      -1.755  -9.981  11.552  0.00  0.00    +0.040 A 
ATOM     28  C   UNL     1      -2.371  -9.878  11.013  0.00  0.00    +0.005 A 
ENDBRANCH  16  20
ENDBRANCH   9  13
BRANCH   5   4
ATOM      4  N   UNL     1      -8.865  -9.130   8.943  0.00  0.00    -0.074 NA
BRANCH   4   2
ATOM      1  O   UNL     1      -8.820  -8.300   8.124  0.00  0.00    -0.152 OA
ATOM      2  S   UNL     1      -9.210  -8.387   8.845  0.00  0.00    +0.077 S 
ATOM      3  O   UNL     1      -9.601  -8.473   9.567  0.00  0.00    -0.152 OA
BRANCH   2  29
ATOM     29  C   UNL     1      -9.555  -7.643   8.748  0.00  0.00    +0.124 A 
ATOM     30  C   UNL     1      -9.082  -6.968   8.728  0.00  0.00    +0.020 A 
ATOM     31  C   UNL     1      -9.427  -6.226   8.631  0.00  0.00    +0.001 A 
ATOM     32  C   UNL     1      -8.954  -5.550   8.610  0.00  0.00    +0.000 A 
ATOM     33  C   UNL     1      -9.299  -4.807   8.513  0.00  0.00    +0.000 A 
ATOM     34  C   UNL     1     -10.119  -4.740   8.436  0.00  0.00    +0.000 A 
ATOM     35  C   UNL     1     -10.591  -5.415   8.457  0.00  0.00    +0.000 A 
ATOM     36  C   UNL     1     -10.247  -6.158   8.554  0.00  0.00    +0.000 A 
ATOM     37  C   UNL     1     -10.719  -6.833   8.575  0.00  0.00    +0.001 A 
ATOM     38  C   UNL     1     -10.375  -7.576   8.672  0.00  0.00    +0.020 A 
ENDBRANCH   2  29
ENDBRANCH   4   2
ENDBRANCH   5   4
TORSDOF 5
ENDMDL
