MODEL 1
REMARK VINA RESULT:      -8.5      0.000      0.000
REMARK  Name = 
REMARK  5 active torsions:
REMARK  status: ('A' for Active; 'I' for Inactive)
REMARK    1  A    between atoms: C_2  and  N_4
REMARK    2  A    between atoms: N_7  and  C_8
REMARK    3  A    between atoms: C_8  and  C_9
REMARK    4  A    between atoms: C_12  and  N_13
REMARK    5  A    between atoms: N_13  and  C_14
REMARK                            x       y       z     vdW  Elec       q    Type
REMARK                         _______ _______ _______ _____ _____    ______ ____
ROOT
ATOM      9  C   UNL     1      -3.138   1.064  24.572  0.00  0.00    +0.169 C 
ATOM     10  O   UNL     1      -2.524   0.517  24.524  0.00  0.00    -0.350 OA
ATOM     11  C   UNL     1      -2.855  -0.239  24.530  0.00  0.00    +0.162 C 
ATOM     12  C   UNL     1      -3.674  -0.157  24.583  0.00  0.00    +0.135 C 
ATOM     18  C   UNL     1      -3.849   0.648  24.609  0.00  0.00    +0.199 C 
ATOM     19  O   UNL     1      -4.604   0.979  24.662  0.00  0.00    -0.219 OA
ENDROOT
BRANCH   9   8
ATOM      8  C   UNL     1      -3.057   1.886  24.583  0.00  0.00    +0.149 C 
BRANCH   8   7
ATOM      4  N   UNL     1      -1.652   3.390  25.308  0.00  0.00    -0.189 NA
ATOM      5  C   UNL     1      -2.291   3.045  24.918  0.00  0.00    +0.339 C 
ATOM      6  O   UNL     1      -2.805   3.513  24.473  0.00  0.00    -0.249 OA
ATOM      7  N   UNL     1      -2.417   2.231  24.973  0.00  0.00    -0.185 NA
BRANCH   4   2
ATOM      1  C   UNL     1      -0.866   4.493  24.850  0.00  0.00    +0.023 C 
ATOM      2  C   UNL     1      -1.526   4.205  25.253  0.00  0.00    +0.097 C 
ATOM      3  C   UNL     1      -2.060   4.729  25.600  0.00  0.00    +0.023 C 
ENDBRANCH   4   2
ENDBRANCH   8   7
ENDBRANCH   9   8
BRANCH  12  13
ATOM     13  N   UNL     1      -4.222  -0.774  24.605  0.00  0.00    -0.216 NA
BRANCH  13  14
ATOM     14  C   UNL     1      -3.970  -1.553  24.499  0.00  0.00    +0.073 C 
ATOM     15  C   UNL     1      -4.006  -2.097  23.880  0.00  0.00    +0.017 C 
ATOM     16  C   UNL     1      -3.614  -2.654  24.348  0.00  0.00    +0.003 C 
ATOM     17  C   UNL     1      -3.580  -2.109  24.966  0.00  0.00    +0.017 C 
ENDBRANCH  13  14
ENDBRANCH  12  13
TORSDOF 5
ENDMDL
MODEL 2
REMARK VINA RESULT:      -8.4      1.008      5.083
REMARK  Name = 
REMARK  5 active torsions:
REMARK  status: ('A' for Active; 'I' for Inactive)
REMARK    1  A    between atoms: C_2  and  N_4
REMARK    2  A    between atoms: N_7  and  C_8
REMARK    3  A    between atoms: C_8  and  C_9
REMARK    4  A    between atoms: C_12  and  N_13
REMARK    5  A    between atoms: N_13  and  C_14
REMARK                            x       y       z     vdW  Elec       q    Type
REMARK                         _______ _______ _______ _____ _____    ______ ____
ROOT
ATOM      9  C   UNL     1      -2.164   1.454  24.948  0.00  0.00    +0.169 C 
ATOM     10  O   UNL     1      -2.741   2.018  24.778  0.00  0.00    -0.350 OA
ATOM     11  C   UNL     1      -2.459   2.753  25.024  0.00  0.00    +0.162 C 
ATOM     12  C   UNL     1      -1.708   2.642  25.347  0.00  0.00    +0.135 C 
ATOM     18  C   UNL     1      -1.526   1.839  25.300  0.00  0.00    +0.199 C 
ATOM     19  O   UNL     1      -0.827   1.485  25.559  0.00  0.00    -0.219 OA
ENDROOT
BRANCH   9   8
ATOM      8  C   UNL     1      -2.217   0.644  24.794  0.00  0.00    +0.149 C 
BRANCH   8   7
ATOM      4  N   UNL     1      -3.715  -0.942  24.828  0.00  0.00    -0.189 NA
ATOM      5  C   UNL     1      -3.007  -0.542  24.692  0.00  0.00    +0.339 C 
ATOM      6  O   UNL     1      -2.380  -0.927  24.318  0.00  0.00    -0.249 OA
ATOM      7  N   UNL     1      -2.925   0.244  24.930  0.00  0.00    -0.185 NA
BRANCH   4   2
ATOM      1  C   UNL     1      -4.194  -1.908  23.890  0.00  0.00    +0.023 C 
ATOM      2  C   UNL     1      -3.796  -1.729  24.590  0.00  0.00    +0.097 C 
ATOM      3  C   UNL     1      -3.480  -2.335  25.052  0.00  0.00    +0.023 C 
ENDBRANCH   4   2
ENDBRANCH   8   7
ENDBRANCH   9   8
BRANCH  12  13
ATOM     13  N   UNL     1      -1.224   3.232  25.662  0.00  0.00    -0.216 NA
BRANCH  13  14
ATOM     14  C   UNL     1      -1.299   4.011  25.399  0.00  0.00    +0.073 C 
ATOM     15  C   UNL     1      -0.840   4.517  24.936  0.00  0.00    +0.017 C 
ATOM     16  C   UNL     1      -1.405   5.112  25.026  0.00  0.00    +0.003 C 
ATOM     17  C   UNL     1      -1.864   4.605  25.489  0.00  0.00    +0.017 C 
ENDBRANCH  13  14
ENDBRANCH  12  13
TORSDOF 5
ENDMDL
