REMARK  Name = 
REMARK  11 active torsions:
REMARK  status: ('A' for Active; 'I' for Inactive)
REMARK    1  A    between atoms: C_2  and  C_3
REMARK    2  A    between atoms: C_3  and  C_4
REMARK    3  A    between atoms: C_3  and  C_6
REMARK    4  A    between atoms: C_8  and  C_18
REMARK    5  A    between atoms: C_10  and  C_12
REMARK    6  A    between atoms: C_25  and  C_26
REMARK    7  A    between atoms: C_26  and  N_27
REMARK    8  A    between atoms: C_28  and  C_30
REMARK    9  A    between atoms: C_30  and  C_31
REMARK   10  A    between atoms: C_31  and  C_32
REMARK   11  A    between atoms: C_32  and  C_33
REMARK                            x       y       z     vdW  Elec       q    Type
REMARK                         _______ _______ _______ _____ _____    ______ ____
ROOT
ATOM     18  C   UNL     1       1.661  -1.343   0.000  0.00  0.00    +0.056 C 
ATOM     19  C   UNL     1       1.814  -2.106   0.000  0.00  0.00    +0.078 C 
ATOM     20  N   UNL     1       1.065  -1.759   0.000  0.00  0.00    -0.272 NA
ATOM     21  C   UNL     1       1.205  -0.720   0.000  0.00  0.00    +0.072 C 
ATOM     22  C   UNL     1       0.961  -0.114   0.000  0.00  0.00    +0.018 C 
ATOM     23  C   UNL     1       0.923  -1.010   0.000  0.00  0.00    +0.010 C 
ATOM     24  C   UNL     1       0.119  -1.362   0.000  0.00  0.00    +0.018 C 
ATOM     25  C   UNL     1       0.226  -2.118   0.000  0.00  0.00    +0.079 C 
ENDROOT
BRANCH  18   8
ATOM      6  C   UNL     1       3.720  -0.616   0.000  0.00  0.00    +0.061 A 
ATOM      7  C   UNL     1       3.075  -1.130   0.000  0.00  0.00    +0.030 A 
ATOM      8  C   UNL     1       2.307  -0.828   0.000  0.00  0.00    +0.063 A 
ATOM      9  N   UNL     1       2.184  -0.013   0.000  0.00  0.00    -0.231 NA
ATOM     10  C   UNL     1       2.829   0.501   0.000  0.00  0.00    +0.162 A 
ATOM     11  N   UNL     1       3.597   0.200   0.000  0.00  0.00    -0.231 NA
BRANCH  10  12
ATOM     12  C   UNL     1       2.707   1.317   0.000  0.00  0.00    +0.039 A 
ATOM     13  C   UNL     1       1.939   1.619   0.000  0.00  0.00    +0.024 A 
ATOM     14  C   UNL     1       1.816   2.435   0.000  0.00  0.00    +0.099 A 
ATOM     15  N   UNL     1       2.462   2.949   0.000  0.00  0.00    -0.242 NA
ATOM     16  C   UNL     1       3.229   2.647   0.000  0.00  0.00    +0.099 A 
ATOM     17  C   UNL     1       3.352   1.831   0.000  0.00  0.00    +0.024 A 
ENDBRANCH  10  12
BRANCH   6   3
ATOM      3  C   UNL     1       4.488  -0.918   0.000  0.00  0.00    +0.040 C 
BRANCH   3   2
ATOM      1  C   UNL     1       5.010   0.412   0.000  0.00  0.00    +0.000 C 
ATOM      2  C   UNL     1       5.133  -0.404   0.000  0.00  0.00    +0.006 C 
ENDBRANCH   3   2
BRANCH   3   4
ATOM      4  C   UNL     1       4.610  -1.734   0.000  0.00  0.00    +0.006 C 
ATOM      5  C   UNL     1       3.965  -2.248   0.000  0.00  0.00    +0.000 C 
ENDBRANCH   3   4
ENDBRANCH   6   3
ENDBRANCH  18   8
BRANCH  25  26
ATOM     26  C   UNL     1      -0.179  -2.836   0.000  0.00  0.00    +0.131 C 
BRANCH  26  27
ATOM     27  N   UNL     1       0.241  -3.546   0.000  0.00  0.00    -0.204 NA
ATOM     28  C   UNL     1      -0.163  -4.265   0.000  0.00  0.00    +0.241 C 
ATOM     29  O   UNL     1      -0.988  -4.274   0.000  0.00  0.00    -0.273 OA
BRANCH  28  30
ATOM     30  C   UNL     1       0.257  -4.975   0.000  0.00  0.00    +0.087 C 
BRANCH  30  31
ATOM     31  C   UNL     1      -0.148  -5.694   0.000  0.00  0.00    +0.021 C 
BRANCH  31  32
ATOM     32  C   UNL     1       0.272  -6.404   0.000  0.00  0.00    +0.115 C 
BRANCH  32  33
ATOM     33  C   UNL     1      -0.133  -7.123   0.000  0.00  0.00    +0.365 C 
ATOM     34  O   UNL     1       0.287  -7.833   0.000  0.00  0.00    -0.246 OA
ATOM     35  O   UNL     1      -0.958  -7.132   0.000  0.00  0.00    -0.246 OA
ENDBRANCH  32  33
ENDBRANCH  31  32
ENDBRANCH  30  31
ENDBRANCH  28  30
ENDBRANCH  26  27
ENDBRANCH  25  26
TORSDOF 11
