MODEL 1
REMARK VINA RESULT:      -9.5      0.000      0.000
REMARK  Name = 
REMARK  8 active torsions:
REMARK  status: ('A' for Active; 'I' for Inactive)
REMARK    1  A    between atoms: C_4  and  C_7
REMARK    2  A    between atoms: C_12  and  N_28
REMARK    3  A    between atoms: C_14  and  C_15
REMARK    4  A    between atoms: N_17  and  C_18
REMARK    5  A    between atoms: C_18  and  C_19
REMARK    6  A    between atoms: C_18  and  C_25
REMARK    7  A    between atoms: C_19  and  C_20
REMARK    8  A    between atoms: C_29  and  C_31
REMARK                            x       y       z     vdW  Elec       q    Type
REMARK                         _______ _______ _______ _____ _____    ______ ____
ROOT
ATOM      7  C   UNL     1       0.035  -0.099  23.793  0.00  0.00    +0.268 C 
ATOM      8  O   UNL     1      -0.215  -0.808  24.134  0.00  0.00    -0.268 OA
ATOM      9  N   UNL     1      -0.356   0.605  23.973  0.00  0.00    -0.268 N 
ATOM     10  C   UNL     1      -0.106   1.314  23.631  0.00  0.00    +0.096 C 
ATOM     11  C   UNL     1      -0.497   2.018  23.811  0.00  0.00    +0.043 C 
ATOM     12  C   UNL     1      -1.137   2.013  24.330  0.00  0.00    +0.100 C 
ATOM     13  C   UNL     1      -1.387   1.305  24.672  0.00  0.00    +0.051 C 
ATOM     14  C   UNL     1      -0.996   0.601  24.492  0.00  0.00    +0.155 C 
ENDROOT
BRANCH   7   4
ATOM      1  C   UNL     1       2.712   0.211  22.711  0.00  0.00    +0.059 C 
ATOM      2  C   UNL     1       1.906   0.048  22.776  0.00  0.00    +0.089 A 
ATOM      3  N   UNL     1       1.448   0.128  23.458  0.00  0.00    -0.238 NA
ATOM      4  C   UNL     1       0.675  -0.095  23.273  0.00  0.00    +0.141 A 
ATOM      5  C   UNL     1       0.655  -0.312  22.478  0.00  0.00    +0.060 A 
ATOM      6  S   UNL     1       1.416  -0.224  22.171  0.00  0.00    -0.070 S 
ENDBRANCH   7   4
BRANCH  14  15
ATOM     15  C   UNL     1      -1.246  -0.108  24.834  0.00  0.00    +0.260 C 
ATOM     16  O   UNL     1      -0.699  -0.608  25.193  0.00  0.00    -0.272 OA
ATOM     17  N   UNL     1      -2.045  -0.315  24.815  0.00  0.00    -0.196 NA
BRANCH  17  18
ATOM     18  C   UNL     1      -2.296  -1.023  25.156  0.00  0.00    +0.179 C 
BRANCH  18  25
ATOM     25  C   UNL     1      -2.465  -1.055  25.963  0.00  0.00    +0.281 C 
ATOM     26  N   UNL     1      -2.044  -1.569  26.453  0.00  0.00    -0.086 NA
ATOM     27  O   UNL     1      -3.054  -0.572  26.280  0.00  0.00    -0.270 OA
ENDBRANCH  18  25
BRANCH  18  19
ATOM     19  C   UNL     1      -2.378  -1.699  24.691  0.00  0.00    +0.064 C 
BRANCH  19  20
ATOM     20  C   UNL     1      -3.112  -1.888  24.364  0.00  0.00    +0.010 A 
ATOM     21  C   UNL     1      -3.634  -1.359  24.006  0.00  0.00    +0.003 A 
ATOM     22  C   UNL     1      -4.296  -1.783  23.758  0.00  0.00    +0.007 A 
ATOM     23  C   UNL     1      -4.184  -2.575  23.963  0.00  0.00    +0.035 A 
ATOM     24  S   UNL     1      -3.451  -2.639  24.337  0.00  0.00    -0.091 S 
ENDBRANCH  19  20
ENDBRANCH  18  19
ENDBRANCH  17  18
ENDBRANCH  14  15
BRANCH  12  28
ATOM     28  N   UNL     1      -1.529   2.718  24.510  0.00  0.00    -0.203 NA
ATOM     29  C   UNL     1      -1.219   3.227  25.080  0.00  0.00    +0.273 C 
ATOM     30  O   UNL     1      -0.519   3.033  25.471  0.00  0.00    -0.268 OA
BRANCH  29  31
ATOM     31  C   UNL     1      -1.610   3.931  25.260  0.00  0.00    +0.119 A 
ATOM     32  C   UNL     1      -1.324   4.693  25.124  0.00  0.00    +0.093 A 
ATOM     33  C   UNL     1      -0.598   4.885  24.784  0.00  0.00    +0.055 C 
ATOM     34  N   UNL     1      -1.893   5.229  25.387  0.00  0.00    -0.145 NA
ATOM     35  N   UNL     1      -2.530   4.799  25.687  0.00  0.00    -0.110 NA
ATOM     36  S   UNL     1      -2.355   3.997  25.608  0.00  0.00    +0.042 S 
ENDBRANCH  29  31
ENDBRANCH  12  28
TORSDOF 8
ENDMDL
MODEL 2
REMARK VINA RESULT:      -9.5      1.301      5.016
REMARK  Name = 
REMARK  8 active torsions:
REMARK  status: ('A' for Active; 'I' for Inactive)
REMARK    1  A    between atoms: C_4  and  C_7
REMARK    2  A    between atoms: C_12  and  N_28
REMARK    3  A    between atoms: C_14  and  C_15
REMARK    4  A    between atoms: N_17  and  C_18
REMARK    5  A    between atoms: C_18  and  C_19
REMARK    6  A    between atoms: C_18  and  C_25
REMARK    7  A    between atoms: C_19  and  C_20
REMARK    8  A    between atoms: C_29  and  C_31
REMARK                            x       y       z     vdW  Elec       q    Type
REMARK                         _______ _______ _______ _____ _____    ______ ____
ROOT
ATOM      7  C   UNL     1      -2.702  -0.223  24.828  0.00  0.00    +0.268 C 
ATOM      8  O   UNL     1      -3.153   0.430  25.056  0.00  0.00    -0.268 OA
ATOM      9  N   UNL     1      -1.912  -0.123  24.613  0.00  0.00    -0.268 N 
ATOM     10  C   UNL     1      -1.461  -0.776  24.386  0.00  0.00    +0.096 C 
ATOM     11  C   UNL     1      -0.671  -0.676  24.171  0.00  0.00    +0.043 C 
ATOM     12  C   UNL     1      -0.331   0.075  24.183  0.00  0.00    +0.100 C 
ATOM     13  C   UNL     1      -0.782   0.728  24.410  0.00  0.00    +0.051 C 
ATOM     14  C   UNL     1      -1.572   0.628  24.625  0.00  0.00    +0.155 C 
ENDROOT
BRANCH   7   4
ATOM      1  C   UNL     1      -4.126  -2.597  23.949  0.00  0.00    +0.059 C 
ATOM      2  C   UNL     1      -3.696  -2.066  24.412  0.00  0.00    +0.089 A 
ATOM      3  N   UNL     1      -3.454  -1.310  24.186  0.00  0.00    -0.238 NA
ATOM      4  C   UNL     1      -3.041  -0.974  24.816  0.00  0.00    +0.141 A 
ATOM      5  C   UNL     1      -3.027  -1.523  25.433  0.00  0.00    +0.060 A 
ATOM      6  S   UNL     1      -3.432  -2.197  25.183  0.00  0.00    -0.070 S 
ENDBRANCH   7   4
BRANCH  14  15
ATOM     15  C   UNL     1      -2.023   1.281  24.853  0.00  0.00    +0.260 C 
ATOM     16  O   UNL     1      -2.494   1.243  25.527  0.00  0.00    -0.272 OA
ATOM     17  N   UNL     1      -2.001   1.973  24.403  0.00  0.00    -0.196 NA
BRANCH  17  18
ATOM     18  C   UNL     1      -2.451   2.627  24.630  0.00  0.00    +0.179 C 
BRANCH  18  25
ATOM     25  C   UNL     1      -3.127   2.830  24.203  0.00  0.00    +0.281 C 
ATOM     26  N   UNL     1      -3.828   3.008  24.599  0.00  0.00    -0.086 NA
ATOM     27  O   UNL     1      -3.102   2.855  23.379  0.00  0.00    -0.270 OA
ENDBRANCH  18  25
BRANCH  18  19
ATOM     19  C   UNL     1      -2.225   3.077  25.283  0.00  0.00    +0.064 C 
BRANCH  19  20
ATOM     20  C   UNL     1      -1.779   3.763  25.178  0.00  0.00    +0.010 A 
ATOM     21  C   UNL     1      -1.012   3.800  24.877  0.00  0.00    +0.003 A 
ATOM     22  C   UNL     1      -0.781   4.592  24.868  0.00  0.00    +0.007 A 
ATOM     23  C   UNL     1      -1.405   5.044  25.163  0.00  0.00    +0.035 A 
ATOM     24  S   UNL     1      -2.022   4.530  25.354  0.00  0.00    -0.091 S 
ENDBRANCH  19  20
ENDBRANCH  18  19
ENDBRANCH  17  18
ENDBRANCH  14  15
BRANCH  12  28
ATOM     28  N   UNL     1       0.459   0.175  23.967  0.00  0.00    -0.203 NA
ATOM     29  C   UNL     1       0.679   0.130  23.174  0.00  0.00    +0.273 C 
ATOM     30  O   UNL     1       0.108  -0.014  22.595  0.00  0.00    -0.268 OA
BRANCH  29  31
ATOM     31  C   UNL     1       1.469   0.230  22.958  0.00  0.00    +0.119 A 
ATOM     32  C   UNL     1       1.834  -0.090  22.291  0.00  0.00    +0.093 A 
ATOM     33  C   UNL     1       1.473  -0.567  21.722  0.00  0.00    +0.055 C 
ATOM     34  N   UNL     1       2.623   0.149  22.292  0.00  0.00    -0.145 NA
ATOM     35  N   UNL     1       2.746   0.618  22.961  0.00  0.00    -0.110 NA
ATOM     36  S   UNL     1       2.033   0.668  23.371  0.00  0.00    +0.042 S 
ENDBRANCH  29  31
ENDBRANCH  12  28
TORSDOF 8
ENDMDL
MODEL 3
REMARK VINA RESULT:      -9.4      2.076      4.355
REMARK  Name = 
REMARK  8 active torsions:
REMARK  status: ('A' for Active; 'I' for Inactive)
REMARK    1  A    between atoms: C_4  and  C_7
REMARK    2  A    between atoms: C_12  and  N_28
REMARK    3  A    between atoms: C_14  and  C_15
REMARK    4  A    between atoms: N_17  and  C_18
REMARK    5  A    between atoms: C_18  and  C_19
REMARK    6  A    between atoms: C_18  and  C_25
REMARK    7  A    between atoms: C_19  and  C_20
REMARK    8  A    between atoms: C_29  and  C_31
REMARK                            x       y       z     vdW  Elec       q    Type
REMARK                         _______ _______ _______ _____ _____    ______ ____
ROOT
ATOM      7  C   UNL     1      -2.730  -1.071  24.641  0.00  0.00    +0.268 C 
ATOM      8  O   UNL     1      -1.910  -1.048  24.545  0.00  0.00    -0.268 OA
ATOM      9  N   UNL     1      -3.137  -0.393  24.873  0.00  0.00    -0.268 N 
ATOM     10  C   UNL     1      -3.957  -0.416  24.969  0.00  0.00    +0.096 C 
ATOM     11  C   UNL     1      -4.364   0.263  25.200  0.00  0.00    +0.043 C 
ATOM     12  C   UNL     1      -3.953   0.965  25.336  0.00  0.00    +0.100 C 
ATOM     13  C   UNL     1      -3.134   0.989  25.240  0.00  0.00    +0.051 C 
ATOM     14  C   UNL     1      -2.726   0.309  25.009  0.00  0.00    +0.155 C 
ENDROOT
BRANCH   7   4
ATOM      1  C   UNL     1      -4.429  -3.085  23.419  0.00  0.00    +0.059 C 
ATOM      2  C   UNL     1      -3.922  -2.699  23.943  0.00  0.00    +0.089 A 
ATOM      3  N   UNL     1      -3.622  -1.935  23.855  0.00  0.00    -0.238 NA
ATOM      4  C   UNL     1      -3.141  -1.773  24.505  0.00  0.00    +0.141 A 
ATOM      5  C   UNL     1      -3.143  -2.437  24.995  0.00  0.00    +0.060 A 
ATOM      6  S   UNL     1      -3.626  -3.009  24.648  0.00  0.00    -0.070 S 
ENDBRANCH   7   4
BRANCH  14  15
ATOM     15  C   UNL     1      -1.907   0.333  24.913  0.00  0.00    +0.260 C 
ATOM     16  O   UNL     1      -1.437  -0.271  25.220  0.00  0.00    -0.272 OA
ATOM     17  N   UNL     1      -1.558   0.963  24.509  0.00  0.00    -0.196 NA
BRANCH  17  18
ATOM     18  C   UNL     1      -0.738   0.987  24.413  0.00  0.00    +0.179 C 
BRANCH  18  25
ATOM     25  C   UNL     1      -0.400   0.759  23.696  0.00  0.00    +0.281 C 
ATOM     26  N   UNL     1       0.265   0.270  23.690  0.00  0.00    -0.086 NA
ATOM     27  O   UNL     1      -0.727   1.018  22.985  0.00  0.00    -0.270 OA
ENDBRANCH  18  25
BRANCH  18  19
ATOM     19  C   UNL     1      -0.258   1.241  25.033  0.00  0.00    +0.064 C 
BRANCH  19  20
ATOM     20  C   UNL     1      -0.205   2.045  25.213  0.00  0.00    +0.010 A 
ATOM     21  C   UNL     1      -0.259   2.666  24.673  0.00  0.00    +0.003 A 
ATOM     22  C   UNL     1      -0.176   3.373  25.089  0.00  0.00    +0.007 A 
ATOM     23  C   UNL     1      -0.071   3.189  25.886  0.00  0.00    +0.035 A 
ATOM     24  S   UNL     1      -0.088   2.367  25.962  0.00  0.00    -0.091 S 
ENDBRANCH  19  20
ENDBRANCH  18  19
ENDBRANCH  17  18
ENDBRANCH  14  15
BRANCH  12  28
ATOM     28  N   UNL     1      -4.361   1.644  25.568  0.00  0.00    -0.203 NA
ATOM     29  C   UNL     1      -4.675   2.150  24.998  0.00  0.00    +0.273 C 
ATOM     30  O   UNL     1      -4.582   1.978  24.196  0.00  0.00    -0.268 OA
BRANCH  29  31
ATOM     31  C   UNL     1      -5.083   2.830  25.229  0.00  0.00    +0.119 A 
ATOM     32  C   UNL     1      -4.840   3.607  25.103  0.00  0.00    +0.093 A 
ATOM     33  C   UNL     1      -4.146   3.844  24.724  0.00  0.00    +0.055 C 
ATOM     34  N   UNL     1      -5.412   4.108  25.422  0.00  0.00    -0.145 NA
ATOM     35  N   UNL     1      -6.009   3.639  25.746  0.00  0.00    -0.110 NA
ATOM     36  S   UNL     1      -5.805   2.849  25.626  0.00  0.00    +0.042 S 
ENDBRANCH  29  31
ENDBRANCH  12  28
TORSDOF 8
ENDMDL
MODEL 4
REMARK VINA RESULT:      -9.1      2.314      4.460
REMARK  Name = 
REMARK  8 active torsions:
REMARK  status: ('A' for Active; 'I' for Inactive)
REMARK    1  A    between atoms: C_4  and  C_7
REMARK    2  A    between atoms: C_12  and  N_28
REMARK    3  A    between atoms: C_14  and  C_15
REMARK    4  A    between atoms: N_17  and  C_18
REMARK    5  A    between atoms: C_18  and  C_19
REMARK    6  A    between atoms: C_18  and  C_25
REMARK    7  A    between atoms: C_19  and  C_20
REMARK    8  A    between atoms: C_29  and  C_31
REMARK                            x       y       z     vdW  Elec       q    Type
REMARK                         _______ _______ _______ _____ _____    ______ ____
ROOT
ATOM      7  C   UNL     1      -1.298  -0.029  24.814  0.00  0.00    +0.268 C 
ATOM      8  O   UNL     1      -0.622   0.442  24.862  0.00  0.00    -0.268 OA
ATOM      9  N   UNL     1      -2.041   0.322  24.746  0.00  0.00    -0.268 N 
ATOM     10  C   UNL     1      -2.717  -0.150  24.699  0.00  0.00    +0.096 C 
ATOM     11  C   UNL     1      -3.460   0.201  24.631  0.00  0.00    +0.043 C 
ATOM     12  C   UNL     1      -3.529   1.022  24.611  0.00  0.00    +0.100 C 
ATOM     13  C   UNL     1      -2.854   1.494  24.658  0.00  0.00    +0.051 C 
ATOM     14  C   UNL     1      -2.110   1.143  24.726  0.00  0.00    +0.155 C 
ENDROOT
BRANCH   7   4
ATOM      1  C   UNL     1      -1.299  -2.821  24.016  0.00  0.00    +0.059 C 
ATOM      2  C   UNL     1      -1.230  -2.135  24.468  0.00  0.00    +0.089 A 
ATOM      3  N   UNL     1      -1.361  -1.364  24.202  0.00  0.00    -0.238 NA
ATOM      4  C   UNL     1      -1.229  -0.851  24.835  0.00  0.00    +0.141 A 
ATOM      5  C   UNL     1      -1.017  -1.304  25.491  0.00  0.00    +0.060 A 
ATOM      6  S   UNL     1      -1.018  -2.097  25.264  0.00  0.00    -0.070 S 
ENDBRANCH   7   4
BRANCH  14  15
ATOM     15  C   UNL     1      -1.435   1.615  24.773  0.00  0.00    +0.260 C 
ATOM     16  O   UNL     1      -0.802   1.483  24.262  0.00  0.00    -0.272 OA
ATOM     17  N   UNL     1      -1.394   2.220  25.333  0.00  0.00    -0.196 NA
BRANCH  17  18
ATOM     18  C   UNL     1      -0.719   2.693  25.381  0.00  0.00    +0.179 C 
BRANCH  18  25
ATOM     25  C   UNL     1      -0.172   2.570  25.986  0.00  0.00    +0.281 C 
ATOM     26  N   UNL     1       0.633   2.511  25.811  0.00  0.00    -0.086 NA
ATOM     27  O   UNL     1      -0.429   2.505  26.768  0.00  0.00    -0.270 OA
ENDBRANCH  18  25
BRANCH  18  19
ATOM     19  C   UNL     1      -0.591   3.287  24.825  0.00  0.00    +0.064 C 
BRANCH  19  20
ATOM     20  C   UNL     1      -0.915   4.038  24.940  0.00  0.00    +0.010 A 
ATOM     21  C   UNL     1      -1.612   4.206  25.348  0.00  0.00    +0.003 A 
ATOM     22  C   UNL     1      -1.728   5.023  25.328  0.00  0.00    +0.007 A 
ATOM     23  C   UNL     1      -1.102   5.359  24.908  0.00  0.00    +0.035 A 
ATOM     24  S   UNL     1      -0.600   4.749  24.668  0.00  0.00    -0.091 S 
ENDBRANCH  19  20
ENDBRANCH  18  19
ENDBRANCH  17  18
ENDBRANCH  14  15
BRANCH  12  28
ATOM     28  N   UNL     1      -4.273   1.373  24.543  0.00  0.00    -0.203 NA
ATOM     29  C   UNL     1      -4.770   1.415  25.199  0.00  0.00    +0.273 C 
ATOM     30  O   UNL     1      -4.524   1.106  25.924  0.00  0.00    -0.268 OA
BRANCH  29  31
ATOM     31  C   UNL     1      -5.514   1.766  25.132  0.00  0.00    +0.119 A 
ATOM     32  C   UNL     1      -5.733   2.501  25.435  0.00  0.00    +0.093 A 
ATOM     33  C   UNL     1      -5.247   3.016  25.858  0.00  0.00    +0.055 C 
ATOM     34  N   UNL     1      -6.524   2.632  25.240  0.00  0.00    -0.145 NA
ATOM     35  N   UNL     1      -6.793   1.977  24.816  0.00  0.00    -0.110 NA
ATOM     36  S   UNL     1      -6.170   1.442  24.750  0.00  0.00    +0.042 S 
ENDBRANCH  29  31
ENDBRANCH  12  28
TORSDOF 8
ENDMDL
MODEL 5
REMARK VINA RESULT:      -9.1      2.432      4.896
REMARK  Name = 
REMARK  8 active torsions:
REMARK  status: ('A' for Active; 'I' for Inactive)
REMARK    1  A    between atoms: C_4  and  C_7
REMARK    2  A    between atoms: C_12  and  N_28
REMARK    3  A    between atoms: C_14  and  C_15
REMARK    4  A    between atoms: N_17  and  C_18
REMARK    5  A    between atoms: C_18  and  C_19
REMARK    6  A    between atoms: C_18  and  C_25
REMARK    7  A    between atoms: C_19  and  C_20
REMARK    8  A    between atoms: C_29  and  C_31
REMARK                            x       y       z     vdW  Elec       q    Type
REMARK                         _______ _______ _______ _____ _____    ______ ____
ROOT
ATOM      7  C   UNL     1      -1.322   2.332  25.302  0.00  0.00    +0.268 C 
ATOM      8  O   UNL     1      -1.768   2.997  25.101  0.00  0.00    -0.268 OA
ATOM      9  N   UNL     1      -1.568   1.582  25.061  0.00  0.00    -0.268 N 
ATOM     10  C   UNL     1      -1.122   0.917  25.261  0.00  0.00    +0.096 C 
ATOM     11  C   UNL     1      -1.367   0.168  25.020  0.00  0.00    +0.043 C 
ATOM     12  C   UNL     1      -2.059   0.082  24.579  0.00  0.00    +0.100 C 
ATOM     13  C   UNL     1      -2.505   0.747  24.378  0.00  0.00    +0.051 C 
ATOM     14  C   UNL     1      -2.259   1.497  24.620  0.00  0.00    +0.155 C 
ENDROOT
BRANCH   7   4
ATOM      1  C   UNL     1       0.522   2.517  27.538  0.00  0.00    +0.059 C 
ATOM      2  C   UNL     1       0.218   2.502  26.771  0.00  0.00    +0.089 A 
ATOM      3  N   UNL     1      -0.574   2.392  26.566  0.00  0.00    -0.238 NA
ATOM      4  C   UNL     1      -0.631   2.417  25.743  0.00  0.00    +0.141 A 
ATOM      5  C   UNL     1       0.126   2.543  25.440  0.00  0.00    +0.060 A 
ATOM      6  S   UNL     1       0.650   2.595  26.075  0.00  0.00    -0.070 S 
ENDBRANCH   7   4
BRANCH  14  15
ATOM     15  C   UNL     1      -2.705   2.161  24.419  0.00  0.00    +0.260 C 
ATOM     16  O   UNL     1      -2.329   2.867  24.223  0.00  0.00    -0.272 OA
ATOM     17  N   UNL     1      -3.530   2.117  24.414  0.00  0.00    -0.196 NA
BRANCH  17  18
ATOM     18  C   UNL     1      -3.977   2.781  24.214  0.00  0.00    +0.179 C 
BRANCH  18  25
ATOM     25  C   UNL     1      -3.984   3.053  23.435  0.00  0.00    +0.281 C 
ATOM     26  N   UNL     1      -3.955   3.864  23.280  0.00  0.00    -0.086 NA
ATOM     27  O   UNL     1      -4.019   2.516  22.810  0.00  0.00    -0.270 OA
ENDBRANCH  18  25
BRANCH  18  19
ATOM     19  C   UNL     1      -4.417   3.172  24.791  0.00  0.00    +0.064 C 
BRANCH  19  20
ATOM     20  C   UNL     1      -5.061   2.796  25.145  0.00  0.00    +0.010 A 
ATOM     21  C   UNL     1      -5.556   2.243  24.784  0.00  0.00    +0.003 A 
ATOM     22  C   UNL     1      -6.124   2.012  25.337  0.00  0.00    +0.007 A 
ATOM     23  C   UNL     1      -5.979   2.421  26.038  0.00  0.00    +0.035 A 
ATOM     24  S   UNL     1      -5.322   2.906  25.919  0.00  0.00    -0.091 S 
ENDBRANCH  19  20
ENDBRANCH  18  19
ENDBRANCH  17  18
ENDBRANCH  14  15
BRANCH  12  28
ATOM     28  N   UNL     1      -2.305  -0.668  24.338  0.00  0.00    -0.203 NA
ATOM     29  C   UNL     1      -2.805  -1.112  24.820  0.00  0.00    +0.273 C 
ATOM     30  O   UNL     1      -3.059  -0.807  25.543  0.00  0.00    -0.268 OA
BRANCH  29  31
ATOM     31  C   UNL     1      -3.051  -1.862  24.579  0.00  0.00    +0.119 A 
ATOM     32  C   UNL     1      -3.783  -2.049  24.248  0.00  0.00    +0.093 A 
ATOM     33  C   UNL     1      -4.398  -1.520  24.098  0.00  0.00    +0.055 C 
ATOM     34  N   UNL     1      -3.793  -2.859  24.092  0.00  0.00    -0.145 NA
ATOM     35  N   UNL     1      -3.066  -3.172  24.328  0.00  0.00    -0.110 NA
ATOM     36  S   UNL     1      -2.608  -2.556  24.628  0.00  0.00    +0.042 S 
ENDBRANCH  29  31
ENDBRANCH  12  28
TORSDOF 8
ENDMDL
MODEL 6
REMARK VINA RESULT:      -8.9      2.064      5.630
REMARK  Name = 
REMARK  8 active torsions:
REMARK  status: ('A' for Active; 'I' for Inactive)
REMARK    1  A    between atoms: C_4  and  C_7
REMARK    2  A    between atoms: C_12  and  N_28
REMARK    3  A    between atoms: C_14  and  C_15
REMARK    4  A    between atoms: N_17  and  C_18
REMARK    5  A    between atoms: C_18  and  C_19
REMARK    6  A    between atoms: C_18  and  C_25
REMARK    7  A    between atoms: C_19  and  C_20
REMARK    8  A    between atoms: C_29  and  C_31
REMARK                            x       y       z     vdW  Elec       q    Type
REMARK                         _______ _______ _______ _____ _____    ______ ____
ROOT
ATOM      7  C   UNL     1      -3.488   2.701  25.096  0.00  0.00    +0.268 C 
ATOM      8  O   UNL     1      -2.753   3.077  25.088  0.00  0.00    -0.268 OA
ATOM      9  N   UNL     1      -3.553   1.918  24.847  0.00  0.00    -0.268 N 
ATOM     10  C   UNL     1      -4.288   1.541  24.855  0.00  0.00    +0.096 C 
ATOM     11  C   UNL     1      -4.353   0.758  24.606  0.00  0.00    +0.043 C 
ATOM     12  C   UNL     1      -3.684   0.350  24.348  0.00  0.00    +0.100 C 
ATOM     13  C   UNL     1      -2.950   0.725  24.339  0.00  0.00    +0.051 C 
ATOM     14  C   UNL     1      -2.885   1.510  24.589  0.00  0.00    +0.155 C 
ENDROOT
BRANCH   7   4
ATOM      1  C   UNL     1      -5.841   4.402  25.135  0.00  0.00    +0.059 C 
ATOM      2  C   UNL     1      -5.239   3.891  25.372  0.00  0.00    +0.089 A 
ATOM      3  N   UNL     1      -4.635   3.598  24.892  0.00  0.00    -0.238 NA
ATOM      4  C   UNL     1      -4.157   3.109  25.354  0.00  0.00    +0.141 A 
ATOM      5  C   UNL     1      -4.465   3.100  26.119  0.00  0.00    +0.060 A 
ATOM      6  S   UNL     1      -5.134   3.583  26.130  0.00  0.00    -0.070 S 
ENDBRANCH   7   4
BRANCH  14  15
ATOM     15  C   UNL     1      -2.150   1.885  24.580  0.00  0.00    +0.260 C 
ATOM     16  O   UNL     1      -2.079   2.646  24.274  0.00  0.00    -0.272 OA
ATOM     17  N   UNL     1      -1.485   1.497  24.879  0.00  0.00    -0.196 NA
BRANCH  17  18
ATOM     18  C   UNL     1      -0.750   1.871  24.871  0.00  0.00    +0.179 C 
BRANCH  18  25
ATOM     25  C   UNL     1      -0.426   2.158  25.573  0.00  0.00    +0.281 C 
ATOM     26  N   UNL     1      -0.112   2.921  25.602  0.00  0.00    -0.086 NA
ATOM     27  O   UNL     1      -0.415   1.682  26.247  0.00  0.00    -0.270 OA
ENDBRANCH  18  25
BRANCH  18  19
ATOM     19  C   UNL     1      -0.340   1.959  24.161  0.00  0.00    +0.064 C 
BRANCH  19  20
ATOM     20  C   UNL     1       0.158   1.356  23.895  0.00  0.00    +0.010 A 
ATOM     21  C   UNL     1      -0.073   0.588  23.701  0.00  0.00    +0.003 A 
ATOM     22  C   UNL     1       0.599   0.174  23.462  0.00  0.00    +0.007 A 
ATOM     23  C   UNL     1       1.245   0.685  23.509  0.00  0.00    +0.035 A 
ATOM     24  S   UNL     1       0.971   1.416  23.776  0.00  0.00    -0.091 S 
ENDBRANCH  19  20
ENDBRANCH  18  19
ENDBRANCH  17  18
ENDBRANCH  14  15
BRANCH  12  28
ATOM     28  N   UNL     1      -3.749  -0.434  24.098  0.00  0.00    -0.203 NA
ATOM     29  C   UNL     1      -3.799  -1.040  24.654  0.00  0.00    +0.273 C 
ATOM     30  O   UNL     1      -3.784  -0.864  25.460  0.00  0.00    -0.268 OA
BRANCH  29  31
ATOM     31  C   UNL     1      -3.864  -1.825  24.405  0.00  0.00    +0.119 A 
ATOM     32  C   UNL     1      -3.430  -2.463  24.695  0.00  0.00    +0.093 A 
ATOM     33  C   UNL     1      -2.854  -2.431  25.284  0.00  0.00    +0.055 C 
ATOM     34  N   UNL     1      -3.673  -3.141  24.292  0.00  0.00    -0.145 NA
ATOM     35  N   UNL     1      -4.258  -2.920  23.753  0.00  0.00    -0.110 NA
ATOM     36  S   UNL     1      -4.376  -2.107  23.823  0.00  0.00    +0.042 S 
ENDBRANCH  29  31
ENDBRANCH  12  28
TORSDOF 8
ENDMDL
