MODEL 1
REMARK VINA RESULT:     -11.2      0.000      0.000
REMARK  Name = 
REMARK  5 active torsions:
REMARK  status: ('A' for Active; 'I' for Inactive)
REMARK    1  A    between atoms: N_2  and  C_3
REMARK    2  A    between atoms: C_6  and  C_9
REMARK    3  A    between atoms: C_12  and  C_14
REMARK    4  A    between atoms: N_18  and  C_19
REMARK    5  A    between atoms: C_19  and  C_20
REMARK                            x       y       z     vdW  Elec       q    Type
REMARK                         _______ _______ _______ _____ _____    ______ ____
ROOT
ATOM      9  C   UNL     1      -4.174   0.342  24.941  0.00  0.00    +0.205 A 
ATOM     10  N   UNL     1      -4.634   0.702  25.524  0.00  0.00    -0.056 NA
ATOM     11  O   UNL     1      -4.682   1.507  25.350  0.00  0.00    -0.336 OA
ATOM     12  C   UNL     1      -4.251   1.644  24.659  0.00  0.00    +0.251 A 
ATOM     13  N   UNL     1      -3.937   0.924  24.407  0.00  0.00    -0.190 NA
ENDROOT
BRANCH   9   6
ATOM      3  C   UNL     1      -3.605  -2.064  24.818  0.00  0.00    +0.148 A 
ATOM      4  C   UNL     1      -4.031  -1.709  24.208  0.00  0.00    +0.036 A 
ATOM      5  C   UNL     1      -4.221  -0.907  24.249  0.00  0.00    +0.008 A 
ATOM      6  C   UNL     1      -3.984  -0.460  24.900  0.00  0.00    +0.058 A 
ATOM      7  C   UNL     1      -3.558  -0.814  25.511  0.00  0.00    +0.103 A 
ATOM      8  N   UNL     1      -3.368  -1.616  25.470  0.00  0.00    -0.228 NA
BRANCH   3   2
ATOM      1  C   UNL     1      -2.704  -3.104  24.432  0.00  0.00    +0.137 C 
ATOM      2  N   UNL     1      -3.415  -2.866  24.777  0.00  0.00    -0.218 NA
ENDBRANCH   3   2
ENDBRANCH   9   6
BRANCH  12  14
ATOM     14  C   UNL     1      -4.151   2.373  24.287  0.00  0.00    +0.138 C 
ATOM     15  C   UNL     1      -4.619   2.674  23.677  0.00  0.00    +0.027 C 
ATOM     16  C   UNL     1      -4.323   3.416  23.471  0.00  0.00    +0.019 C 
ATOM     17  C   UNL     1      -3.672   3.575  23.954  0.00  0.00    +0.073 C 
ATOM     18  N   UNL     1      -3.566   2.930  24.458  0.00  0.00    -0.263 NA
BRANCH  18  19
ATOM     19  C   UNL     1      -2.978   2.855  25.032  0.00  0.00    +0.099 C 
BRANCH  19  20
ATOM     20  C   UNL     1      -2.345   3.382  25.044  0.00  0.00    -0.006 A 
ATOM     21  C   UNL     1      -2.425   4.115  25.413  0.00  0.00    -0.003 A 
ATOM     22  C   UNL     1      -1.790   4.643  25.426  0.00  0.00    -0.005 A 
ATOM     23  C   UNL     1      -1.076   4.436  25.070  0.00  0.00    -0.022 A 
ATOM     24  C   UNL     1      -0.441   4.964  25.083  0.00  0.00    +0.031 C 
ATOM     25  C   UNL     1      -0.995   3.703  24.701  0.00  0.00    -0.005 A 
ATOM     26  C   UNL     1      -1.629   3.176  24.688  0.00  0.00    -0.003 A 
ENDBRANCH  19  20
ENDBRANCH  18  19
ENDBRANCH  12  14
TORSDOF 5
ENDMDL
MODEL 2
REMARK VINA RESULT:     -11.0      1.172      5.141
REMARK  Name = 
REMARK  5 active torsions:
REMARK  status: ('A' for Active; 'I' for Inactive)
REMARK    1  A    between atoms: N_2  and  C_3
REMARK    2  A    between atoms: C_6  and  C_9
REMARK    3  A    between atoms: C_12  and  C_14
REMARK    4  A    between atoms: N_18  and  C_19
REMARK    5  A    between atoms: C_19  and  C_20
REMARK                            x       y       z     vdW  Elec       q    Type
REMARK                         _______ _______ _______ _____ _____    ______ ____
ROOT
ATOM      9  C   UNL     1      -3.248   3.055  24.519  0.00  0.00    +0.205 A 
ATOM     10  N   UNL     1      -3.674   3.057  23.812  0.00  0.00    -0.056 NA
ATOM     11  O   UNL     1      -4.278   2.498  23.877  0.00  0.00    -0.336 OA
ATOM     12  C   UNL     1      -4.225   2.151  24.623  0.00  0.00    +0.251 A 
ATOM     13  N   UNL     1      -3.588   2.495  25.020  0.00  0.00    -0.190 NA
ENDROOT
BRANCH   9   6
ATOM      3  C   UNL     1      -1.292   4.478  25.042  0.00  0.00    +0.148 A 
ATOM      4  C   UNL     1      -2.043   4.697  25.303  0.00  0.00    +0.036 A 
ATOM      5  C   UNL     1      -2.695   4.222  25.129  0.00  0.00    +0.008 A 
ATOM      6  C   UNL     1      -2.596   3.529  24.693  0.00  0.00    +0.058 A 
ATOM      7  C   UNL     1      -1.845   3.310  24.432  0.00  0.00    +0.103 A 
ATOM      8  N   UNL     1      -1.193   3.784  24.606  0.00  0.00    -0.228 NA
BRANCH   3   2
ATOM      1  C   UNL     1      -0.299   5.418  24.626  0.00  0.00    +0.137 C 
ATOM      2  N   UNL     1      -0.640   4.953  25.216  0.00  0.00    -0.218 NA
ENDBRANCH   3   2
ENDBRANCH   9   6
BRANCH  12  14
ATOM     14  C   UNL     1      -4.721   1.564  24.921  0.00  0.00    +0.138 C 
ATOM     15  C   UNL     1      -5.432   1.686  25.323  0.00  0.00    +0.027 C 
ATOM     16  C   UNL     1      -5.744   0.949  25.520  0.00  0.00    +0.019 C 
ATOM     17  C   UNL     1      -5.227   0.370  25.241  0.00  0.00    +0.073 C 
ATOM     18  N   UNL     1      -4.594   0.750  24.871  0.00  0.00    -0.263 NA
BRANCH  18  19
ATOM     19  C   UNL     1      -3.949   0.381  24.513  0.00  0.00    +0.099 C 
BRANCH  19  20
ATOM     20  C   UNL     1      -3.879  -0.440  24.535  0.00  0.00    -0.006 A 
ATOM     21  C   UNL     1      -4.187  -0.898  23.922  0.00  0.00    -0.003 A 
ATOM     22  C   UNL     1      -4.116  -1.720  23.944  0.00  0.00    -0.005 A 
ATOM     23  C   UNL     1      -3.738  -2.084  24.581  0.00  0.00    -0.022 A 
ATOM     24  C   UNL     1      -3.668  -2.906  24.603  0.00  0.00    +0.031 C 
ATOM     25  C   UNL     1      -3.430  -1.626  25.194  0.00  0.00    -0.005 A 
ATOM     26  C   UNL     1      -3.501  -0.805  25.172  0.00  0.00    -0.003 A 
ENDBRANCH  19  20
ENDBRANCH  18  19
ENDBRANCH  12  14
TORSDOF 5
ENDMDL
MODEL 3
REMARK VINA RESULT:     -10.7      2.167      5.652
REMARK  Name = 
REMARK  5 active torsions:
REMARK  status: ('A' for Active; 'I' for Inactive)
REMARK    1  A    between atoms: N_2  and  C_3
REMARK    2  A    between atoms: C_6  and  C_9
REMARK    3  A    between atoms: C_12  and  C_14
REMARK    4  A    between atoms: N_18  and  C_19
REMARK    5  A    between atoms: C_19  and  C_20
REMARK                            x       y       z     vdW  Elec       q    Type
REMARK                         _______ _______ _______ _____ _____    ______ ____
ROOT
ATOM      9  C   UNL     1      -0.987   1.988  25.479  0.00  0.00    +0.205 A 
ATOM     10  N   UNL     1      -0.770   1.601  26.175  0.00  0.00    -0.056 NA
ATOM     11  O   UNL     1      -0.658   0.802  25.998  0.00  0.00    -0.336 OA
ATOM     12  C   UNL     1      -0.806   0.696  25.194  0.00  0.00    +0.251 A 
ATOM     13  N   UNL     1      -1.010   1.429  24.873  0.00  0.00    -0.190 NA
ENDROOT
BRANCH   9   6
ATOM      3  C   UNL     1      -1.485   4.402  25.253  0.00  0.00    +0.148 A 
ATOM      4  C   UNL     1      -2.053   3.890  25.563  0.00  0.00    +0.036 A 
ATOM      5  C   UNL     1      -1.887   3.086  25.638  0.00  0.00    +0.008 A 
ATOM      6  C   UNL     1      -1.153   2.793  25.404  0.00  0.00    +0.058 A 
ATOM      7  C   UNL     1      -0.584   3.303  25.094  0.00  0.00    +0.103 A 
ATOM      8  N   UNL     1      -0.750   4.108  25.018  0.00  0.00    -0.228 NA
BRANCH   3   2
ATOM      1  C   UNL     1      -1.091   5.713  24.844  0.00  0.00    +0.137 C 
ATOM      2  N   UNL     1      -1.651   5.206  25.177  0.00  0.00    -0.218 NA
ENDBRANCH   3   2
ENDBRANCH   9   6
BRANCH  12  14
ATOM     14  C   UNL     1      -0.759  -0.017  24.782  0.00  0.00    +0.138 C 
ATOM     15  C   UNL     1      -0.107  -0.288  24.356  0.00  0.00    +0.027 C 
ATOM     16  C   UNL     1      -0.300  -1.023  24.034  0.00  0.00    +0.019 C 
ATOM     17  C   UNL     1      -1.073  -1.205  24.261  0.00  0.00    +0.073 C 
ATOM     18  N   UNL     1      -1.356  -0.583  24.723  0.00  0.00    -0.263 NA
BRANCH  18  19
ATOM     19  C   UNL     1      -2.105  -0.536  25.066  0.00  0.00    +0.099 C 
BRANCH  19  20
ATOM     20  C   UNL     1      -2.717  -1.013  24.787  0.00  0.00    -0.006 A 
ATOM     21  C   UNL     1      -2.793  -1.788  25.057  0.00  0.00    -0.003 A 
ATOM     22  C   UNL     1      -3.406  -2.265  24.777  0.00  0.00    -0.005 A 
ATOM     23  C   UNL     1      -3.943  -1.966  24.227  0.00  0.00    -0.022 A 
ATOM     24  C   UNL     1      -4.556  -2.443  23.948  0.00  0.00    +0.031 C 
ATOM     25  C   UNL     1      -3.867  -1.190  23.957  0.00  0.00    -0.005 A 
ATOM     26  C   UNL     1      -3.255  -0.714  24.237  0.00  0.00    -0.003 A 
ENDBRANCH  19  20
ENDBRANCH  18  19
ENDBRANCH  12  14
TORSDOF 5
ENDMDL
MODEL 4
REMARK VINA RESULT:     -10.2      1.924      2.672
REMARK  Name = 
REMARK  5 active torsions:
REMARK  status: ('A' for Active; 'I' for Inactive)
REMARK    1  A    between atoms: N_2  and  C_3
REMARK    2  A    between atoms: C_6  and  C_9
REMARK    3  A    between atoms: C_12  and  C_14
REMARK    4  A    between atoms: N_18  and  C_19
REMARK    5  A    between atoms: C_19  and  C_20
REMARK                            x       y       z     vdW  Elec       q    Type
REMARK                         _______ _______ _______ _____ _____    ______ ____
ROOT
ATOM      9  C   UNL     1      -1.643  -0.592  25.158  0.00  0.00    +0.205 A 
ATOM     10  N   UNL     1      -1.270  -0.476  25.885  0.00  0.00    -0.056 NA
ATOM     11  O   UNL     1      -0.746   0.156  25.803  0.00  0.00    -0.336 OA
ATOM     12  C   UNL     1      -0.795   0.430  25.027  0.00  0.00    +0.251 A 
ATOM     13  N   UNL     1      -1.350  -0.032  24.628  0.00  0.00    -0.190 NA
ENDROOT
BRANCH   9   6
ATOM      3  C   UNL     1      -3.345  -2.318  24.657  0.00  0.00    +0.148 A 
ATOM      4  C   UNL     1      -3.566  -1.617  25.030  0.00  0.00    +0.036 A 
ATOM      5  C   UNL     1      -2.999  -1.041  25.197  0.00  0.00    +0.008 A 
ATOM      6  C   UNL     1      -2.211  -1.167  24.991  0.00  0.00    +0.058 A 
ATOM      7  C   UNL     1      -1.989  -1.869  24.617  0.00  0.00    +0.103 A 
ATOM      8  N   UNL     1      -2.556  -2.444  24.450  0.00  0.00    -0.228 NA
BRANCH   3   2
ATOM      1  C   UNL     1      -4.324  -2.871  23.775  0.00  0.00    +0.137 C 
ATOM      2  N   UNL     1      -3.912  -2.893  24.490  0.00  0.00    -0.218 NA
ENDBRANCH   3   2
ENDBRANCH   9   6
BRANCH  12  14
ATOM     14  C   UNL     1      -0.365   1.056  24.705  0.00  0.00    +0.138 C 
ATOM     15  C   UNL     1       0.265   0.991  24.176  0.00  0.00    +0.027 C 
ATOM     16  C   UNL     1       0.530   1.752  24.000  0.00  0.00    +0.019 C 
ATOM     17  C   UNL     1       0.064   2.288  24.420  0.00  0.00    +0.073 C 
ATOM     18  N   UNL     1      -0.489   1.858  24.856  0.00  0.00    -0.263 NA
BRANCH  18  19
ATOM     19  C   UNL     1      -1.065   2.174  25.354  0.00  0.00    +0.099 C 
BRANCH  19  20
ATOM     20  C   UNL     1      -1.263   2.973  25.302  0.00  0.00    -0.006 A 
ATOM     21  C   UNL     1      -1.981   3.199  24.966  0.00  0.00    -0.003 A 
ATOM     22  C   UNL     1      -2.179   3.999  24.914  0.00  0.00    -0.005 A 
ATOM     23  C   UNL     1      -1.657   4.572  25.197  0.00  0.00    -0.022 A 
ATOM     24  C   UNL     1      -1.855   5.372  25.145  0.00  0.00    +0.031 C 
ATOM     25  C   UNL     1      -0.939   4.346  25.532  0.00  0.00    -0.005 A 
ATOM     26  C   UNL     1      -0.741   3.547  25.585  0.00  0.00    -0.003 A 
ENDBRANCH  19  20
ENDBRANCH  18  19
ENDBRANCH  12  14
TORSDOF 5
ENDMDL
MODEL 5
REMARK VINA RESULT:      -9.7      1.828      5.211
REMARK  Name = 
REMARK  5 active torsions:
REMARK  status: ('A' for Active; 'I' for Inactive)
REMARK    1  A    between atoms: N_2  and  C_3
REMARK    2  A    between atoms: C_6  and  C_9
REMARK    3  A    between atoms: C_12  and  C_14
REMARK    4  A    between atoms: N_18  and  C_19
REMARK    5  A    between atoms: C_19  and  C_20
REMARK                            x       y       z     vdW  Elec       q    Type
REMARK                         _______ _______ _______ _____ _____    ______ ____
ROOT
ATOM      9  C   UNL     1      -3.624   2.235  24.461  0.00  0.00    +0.205 A 
ATOM     10  N   UNL     1      -3.406   2.250  23.665  0.00  0.00    -0.056 NA
ATOM     11  O   UNL     1      -2.843   1.659  23.543  0.00  0.00    -0.336 OA
ATOM     12  C   UNL     1      -2.712   1.279  24.263  0.00  0.00    +0.251 A 
ATOM     13  N   UNL     1      -3.195   1.635  24.830  0.00  0.00    -0.190 NA
ENDROOT
BRANCH   9   6
ATOM      3  C   UNL     1      -5.273   3.726  25.547  0.00  0.00    +0.148 A 
ATOM      4  C   UNL     1      -5.505   2.983  25.274  0.00  0.00    +0.036 A 
ATOM      5  C   UNL     1      -4.955   2.486  24.912  0.00  0.00    +0.008 A 
ATOM      6  C   UNL     1      -4.174   2.732  24.823  0.00  0.00    +0.058 A 
ATOM      7  C   UNL     1      -3.940   3.475  25.095  0.00  0.00    +0.103 A 
ATOM      8  N   UNL     1      -4.490   3.972  25.457  0.00  0.00    -0.228 NA
BRANCH   3   2
ATOM      1  C   UNL     1      -6.095   4.894  25.513  0.00  0.00    +0.137 C 
ATOM      2  N   UNL     1      -5.823   4.224  25.909  0.00  0.00    -0.218 NA
ENDBRANCH   3   2
ENDBRANCH   9   6
BRANCH  12  14
ATOM     14  C   UNL     1      -2.191   0.654  24.394  0.00  0.00    +0.138 C 
ATOM     15  C   UNL     1      -1.369   0.683  24.318  0.00  0.00    +0.027 C 
ATOM     16  C   UNL     1      -1.069  -0.063  24.501  0.00  0.00    +0.019 C 
ATOM     17  C   UNL     1      -1.705  -0.554  24.690  0.00  0.00    +0.073 C 
ATOM     18  N   UNL     1      -2.398  -0.111  24.624  0.00  0.00    -0.263 NA
BRANCH  18  19
ATOM     19  C   UNL     1      -3.164  -0.385  24.763  0.00  0.00    +0.099 C 
BRANCH  19  20
ATOM     20  C   UNL     1      -3.342  -1.183  24.658  0.00  0.00    -0.006 A 
ATOM     21  C   UNL     1      -3.161  -1.728  25.249  0.00  0.00    -0.003 A 
ATOM     22  C   UNL     1      -3.340  -2.527  25.144  0.00  0.00    -0.005 A 
ATOM     23  C   UNL     1      -3.700  -2.779  24.446  0.00  0.00    -0.022 A 
ATOM     24  C   UNL     1      -3.879  -3.578  24.340  0.00  0.00    +0.031 C 
ATOM     25  C   UNL     1      -3.881  -2.234  23.854  0.00  0.00    -0.005 A 
ATOM     26  C   UNL     1      -3.703  -1.436  23.960  0.00  0.00    -0.003 A 
ENDBRANCH  19  20
ENDBRANCH  18  19
ENDBRANCH  12  14
TORSDOF 5
ENDMDL
