MODEL 1
REMARK VINA RESULT:      -9.8      0.000      0.000
REMARK  Name = 
REMARK  3 active torsions:
REMARK  status: ('A' for Active; 'I' for Inactive)
REMARK    1  A    between atoms: C_2  and  N_4
REMARK    2  A    between atoms: C_7  and  C_9
REMARK    3  A    between atoms: C_12  and  C_14
REMARK                            x       y       z     vdW  Elec       q    Type
REMARK                         _______ _______ _______ _____ _____    ______ ____
ROOT
ATOM      9  C   UNL     1      -4.074   1.465  24.793  0.00  0.00    +0.227 A 
ATOM     10  N   UNL     1      -4.857   1.279  24.975  0.00  0.00    -0.111 NA
ATOM     11  N   UNL     1      -4.930   0.457  24.978  0.00  0.00    -0.107 NA
ATOM     12  C   UNL     1      -4.191   0.135  24.797  0.00  0.00    +0.250 A 
ATOM     13  O   UNL     1      -3.662   0.758  24.683  0.00  0.00    -0.419 OA
ENDROOT
BRANCH  12  14
ATOM     14  C   UNL     1      -4.013  -0.669  24.740  0.00  0.00    +0.058 A 
ATOM     15  C   UNL     1      -3.647  -1.055  25.370  0.00  0.00    +0.025 A 
ATOM     16  C   UNL     1      -3.469  -1.859  25.314  0.00  0.00    +0.099 A 
ATOM     17  N   UNL     1      -3.657  -2.276  24.627  0.00  0.00    -0.242 NA
ATOM     18  C   UNL     1      -4.023  -1.889  23.997  0.00  0.00    +0.099 A 
ATOM     19  C   UNL     1      -4.202  -1.086  24.054  0.00  0.00    +0.025 A 
ENDBRANCH  12  14
BRANCH   9   7
ATOM      4  N   UNL     1      -3.096   3.349  25.008  0.00  0.00    -0.274 NA
ATOM      5  C   UNL     1      -3.448   3.437  24.267  0.00  0.00    +0.073 C 
ATOM      6  C   UNL     1      -3.858   2.742  24.096  0.00  0.00    +0.028 C 
ATOM      7  C   UNL     1      -3.758   2.225  24.732  0.00  0.00    +0.096 C 
ATOM      8  C   UNL     1      -3.287   2.601  25.295  0.00  0.00    +0.081 C 
BRANCH   4   2
ATOM      1  C   UNL     1      -2.868   4.207  26.129  0.00  0.00    +0.017 C 
ATOM      2  C   UNL     1      -2.633   3.913  25.394  0.00  0.00    +0.058 C 
ATOM      3  C   UNL     1      -1.935   4.182  25.047  0.00  0.00    +0.017 C 
ENDBRANCH   4   2
ENDBRANCH   9   7
TORSDOF 3
ENDMDL
MODEL 2
REMARK VINA RESULT:      -9.6      1.324      4.430
REMARK  Name = 
REMARK  3 active torsions:
REMARK  status: ('A' for Active; 'I' for Inactive)
REMARK    1  A    between atoms: C_2  and  N_4
REMARK    2  A    between atoms: C_7  and  C_9
REMARK    3  A    between atoms: C_12  and  C_14
REMARK                            x       y       z     vdW  Elec       q    Type
REMARK                         _______ _______ _______ _____ _____    ______ ____
ROOT
ATOM      9  C   UNL     1      -3.921   0.378  24.290  0.00  0.00    +0.227 A 
ATOM     10  N   UNL     1      -3.526   0.919  23.807  0.00  0.00    -0.111 NA
ATOM     11  N   UNL     1      -3.758   1.678  24.031  0.00  0.00    -0.107 NA
ATOM     12  C   UNL     1      -4.297   1.607  24.652  0.00  0.00    +0.250 A 
ATOM     13  O   UNL     1      -4.398   0.803  24.812  0.00  0.00    -0.419 OA
ENDROOT
BRANCH  12  14
ATOM     14  C   UNL     1      -4.671   2.230  25.044  0.00  0.00    +0.058 A 
ATOM     15  C   UNL     1      -5.408   2.112  25.395  0.00  0.00    +0.025 A 
ATOM     16  C   UNL     1      -5.781   2.735  25.787  0.00  0.00    +0.099 A 
ATOM     17  N   UNL     1      -5.417   3.475  25.828  0.00  0.00    -0.242 NA
ATOM     18  C   UNL     1      -4.680   3.591  25.476  0.00  0.00    +0.099 A 
ATOM     19  C   UNL     1      -4.307   2.969  25.084  0.00  0.00    +0.025 A 
ENDBRANCH  12  14
BRANCH   9   7
ATOM      4  N   UNL     1      -3.399  -1.686  24.431  0.00  0.00    -0.274 NA
ATOM      5  C   UNL     1      -4.086  -1.727  23.977  0.00  0.00    +0.073 C 
ATOM      6  C   UNL     1      -4.366  -0.958  23.869  0.00  0.00    +0.028 C 
ATOM      7  C   UNL     1      -3.851  -0.443  24.256  0.00  0.00    +0.096 C 
ATOM      8  C   UNL     1      -3.253  -0.894  24.604  0.00  0.00    +0.081 C 
BRANCH   4   2
ATOM      1  C   UNL     1      -2.115  -2.289  24.613  0.00  0.00    +0.017 C 
ATOM      2  C   UNL     1      -2.938  -2.327  24.671  0.00  0.00    +0.058 C 
ATOM      3  C   UNL     1      -3.299  -3.006  24.969  0.00  0.00    +0.017 C 
ENDBRANCH   4   2
ENDBRANCH   9   7
TORSDOF 3
ENDMDL
MODEL 3
REMARK VINA RESULT:      -9.3      1.057      4.493
REMARK  Name = 
REMARK  3 active torsions:
REMARK  status: ('A' for Active; 'I' for Inactive)
REMARK    1  A    between atoms: C_2  and  N_4
REMARK    2  A    between atoms: C_7  and  C_9
REMARK    3  A    between atoms: C_12  and  C_14
REMARK                            x       y       z     vdW  Elec       q    Type
REMARK                         _______ _______ _______ _____ _____    ______ ____
ROOT
ATOM      9  C   UNL     1      -3.519   1.807  24.488  0.00  0.00    +0.227 A 
ATOM     10  N   UNL     1      -3.762   2.321  23.890  0.00  0.00    -0.111 NA
ATOM     11  N   UNL     1      -3.288   2.994  23.922  0.00  0.00    -0.107 NA
ATOM     12  C   UNL     1      -2.750   2.898  24.542  0.00  0.00    +0.250 A 
ATOM     13  O   UNL     1      -2.894   2.164  24.891  0.00  0.00    -0.419 OA
ENDROOT
BRANCH  12  14
ATOM     14  C   UNL     1      -2.172   3.440  24.771  0.00  0.00    +0.058 A 
ATOM     15  C   UNL     1      -1.376   3.282  24.620  0.00  0.00    +0.025 A 
ATOM     16  C   UNL     1      -0.798   3.824  24.849  0.00  0.00    +0.099 A 
ATOM     17  N   UNL     1      -1.015   4.523  25.230  0.00  0.00    -0.242 NA
ATOM     18  C   UNL     1      -1.811   4.680  25.381  0.00  0.00    +0.099 A 
ATOM     19  C   UNL     1      -2.389   4.139  25.152  0.00  0.00    +0.025 A 
ENDBRANCH  12  14
BRANCH   9   7
ATOM      4  N   UNL     1      -4.016  -0.253  24.738  0.00  0.00    -0.274 NA
ATOM      5  C   UNL     1      -4.672   0.111  25.081  0.00  0.00    +0.073 C 
ATOM      6  C   UNL     1      -4.565   0.928  25.029  0.00  0.00    +0.028 C 
ATOM      7  C   UNL     1      -3.844   1.068  24.654  0.00  0.00    +0.096 C 
ATOM      8  C   UNL     1      -3.504   0.337  24.474  0.00  0.00    +0.081 C 
BRANCH   4   2
ATOM      1  C   UNL     1      -3.508  -1.477  25.275  0.00  0.00    +0.017 C 
ATOM      2  C   UNL     1      -3.893  -1.066  24.671  0.00  0.00    +0.058 C 
ATOM      3  C   UNL     1      -4.155  -1.469  24.000  0.00  0.00    +0.017 C 
ENDBRANCH   4   2
ENDBRANCH   9   7
TORSDOF 3
ENDMDL
