MODEL 1
REMARK VINA RESULT:     -10.7      0.000      0.000
REMARK  Name = 
REMARK  3 active torsions:
REMARK  status: ('A' for Active; 'I' for Inactive)
REMARK    1  A    between atoms: C_6  and  C_7
REMARK    2  A    between atoms: C_16  and  N_24
REMARK    3  A    between atoms: C_25  and  C_27
REMARK                            x       y       z     vdW  Elec       q    Type
REMARK                         _______ _______ _______ _____ _____    ______ ____
ROOT
ATOM      7  C   UNL     1      -3.801   2.450  24.736  0.00  0.00    -0.000 A 
ATOM      8  C   UNL     1      -3.608   3.248  24.662  0.00  0.00    +0.001 A 
ATOM      9  C   UNL     1      -2.829   3.471  24.504  0.00  0.00    +0.017 A 
ATOM     10  C   UNL     1      -2.244   2.896  24.420  0.00  0.00    +0.078 A 
ATOM     11  N   UNL     1      -1.509   3.236  24.264  0.00  0.00    -0.178 NA
ATOM     12  C   UNL     1      -0.784   2.860  24.144  0.00  0.00    +0.264 C 
ATOM     13  O   UNL     1      -0.142   3.358  23.999  0.00  0.00    -0.271 OA
ATOM     14  C   UNL     1      -0.616   2.052  24.149  0.00  0.00    +0.156 C 
ATOM     15  C   UNL     1       0.183   1.909  24.004  0.00  0.00    +0.051 C 
ATOM     16  C   UNL     1       0.468   1.135  23.985  0.00  0.00    +0.099 C 
ATOM     17  C   UNL     1      -0.048   0.504  24.112  0.00  0.00    +0.043 C 
ATOM     18  C   UNL     1      -0.847   0.647  24.257  0.00  0.00    +0.096 C 
ATOM     19  N   UNL     1      -1.132   1.421  24.276  0.00  0.00    -0.269 N 
ATOM     20  C   UNL     1      -1.942   1.441  24.429  0.00  0.00    +0.251 C 
ATOM     21  O   UNL     1      -2.305   0.708  24.531  0.00  0.00    -0.270 OA
ATOM     22  C   UNL     1      -2.437   2.098  24.493  0.00  0.00    +0.069 A 
ATOM     23  C   UNL     1      -3.215   1.874  24.651  0.00  0.00    +0.006 A 
ENDROOT
BRANCH   7   6
ATOM      1  C   UNL     1      -6.125   2.575  26.394  0.00  0.00    +0.031 C 
ATOM      2  C   UNL     1      -5.741   2.288  25.723  0.00  0.00    -0.026 A 
ATOM      3  C   UNL     1      -6.136   1.778  25.209  0.00  0.00    -0.005 A 
ATOM      4  C   UNL     1      -5.752   1.491  24.537  0.00  0.00    -0.000 A 
ATOM      5  C   UNL     1      -4.973   1.715  24.379  0.00  0.00    -0.000 A 
ATOM      6  C   UNL     1      -4.578   2.226  24.893  0.00  0.00    -0.004 A 
ATOM     33  C   UNL     1      -4.963   2.513  25.565  0.00  0.00    -0.026 A 
ATOM     34  C   UNL     1      -4.568   3.024  26.079  0.00  0.00    +0.031 C 
ENDBRANCH   7   6
BRANCH  16  24
ATOM     24  N   UNL     1       1.267   0.992  23.840  0.00  0.00    -0.203 NA
ATOM     25  C   UNL     1       1.497   0.591  23.157  0.00  0.00    +0.266 C 
ATOM     26  O   UNL     1       0.927   0.332  22.619  0.00  0.00    -0.268 OA
BRANCH  25  27
ATOM     27  C   UNL     1       2.296   0.448  23.011  0.00  0.00    +0.074 A 
ATOM     28  C   UNL     1       2.575  -0.327  22.968  0.00  0.00    +0.103 A 
ATOM     29  N   UNL     1       3.375  -0.470  22.822  0.00  0.00    -0.242 NA
ATOM     30  C   UNL     1       3.895   0.162  22.721  0.00  0.00    +0.099 A 
ATOM     31  C   UNL     1       3.616   0.937  22.765  0.00  0.00    +0.021 A 
ATOM     32  C   UNL     1       2.816   1.080  22.910  0.00  0.00    +0.008 A 
ENDBRANCH  25  27
ENDBRANCH  16  24
TORSDOF 3
ENDMDL
MODEL 2
REMARK VINA RESULT:     -10.6      1.082      1.909
REMARK  Name = 
REMARK  3 active torsions:
REMARK  status: ('A' for Active; 'I' for Inactive)
REMARK    1  A    between atoms: C_6  and  C_7
REMARK    2  A    between atoms: C_16  and  N_24
REMARK    3  A    between atoms: C_25  and  C_27
REMARK                            x       y       z     vdW  Elec       q    Type
REMARK                         _______ _______ _______ _____ _____    ______ ____
ROOT
ATOM      7  C   UNL     1      -3.694   1.080  25.059  0.00  0.00    -0.000 A 
ATOM      8  C   UNL     1      -3.717   0.324  25.389  0.00  0.00    +0.001 A 
ATOM      9  C   UNL     1      -3.070  -0.181  25.308  0.00  0.00    +0.017 A 
ATOM     10  C   UNL     1      -2.400   0.068  24.897  0.00  0.00    +0.078 A 
ATOM     11  N   UNL     1      -1.821  -0.518  24.881  0.00  0.00    -0.178 NA
ATOM     12  C   UNL     1      -1.074  -0.495  24.530  0.00  0.00    +0.264 C 
ATOM     13  O   UNL     1      -0.619  -1.177  24.611  0.00  0.00    -0.271 OA
ATOM     14  C   UNL     1      -0.723   0.122  24.109  0.00  0.00    +0.156 C 
ATOM     15  C   UNL     1       0.033  -0.082  23.850  0.00  0.00    +0.051 C 
ATOM     16  C   UNL     1       0.481   0.459  23.417  0.00  0.00    +0.099 C 
ATOM     17  C   UNL     1       0.172   1.203  23.242  0.00  0.00    +0.043 C 
ATOM     18  C   UNL     1      -0.584   1.407  23.501  0.00  0.00    +0.096 C 
ATOM     19  N   UNL     1      -1.032   0.866  23.934  0.00  0.00    -0.269 N 
ATOM     20  C   UNL     1      -1.768   1.179  24.138  0.00  0.00    +0.251 C 
ATOM     21  O   UNL     1      -1.914   1.948  23.878  0.00  0.00    -0.270 OA
ATOM     22  C   UNL     1      -2.377   0.823  24.566  0.00  0.00    +0.069 A 
ATOM     23  C   UNL     1      -3.023   1.329  24.647  0.00  0.00    +0.006 A 
ENDROOT
BRANCH   7   6
ATOM      1  C   UNL     1      -6.478   1.616  24.700  0.00  0.00    +0.031 C 
ATOM      2  C   UNL     1      -5.733   1.854  24.960  0.00  0.00    -0.026 A 
ATOM      3  C   UNL     1      -5.633   2.598  25.301  0.00  0.00    -0.005 A 
ATOM      4  C   UNL     1      -4.887   2.837  25.561  0.00  0.00    -0.000 A 
ATOM      5  C   UNL     1      -4.241   2.331  25.480  0.00  0.00    -0.000 A 
ATOM      6  C   UNL     1      -4.340   1.585  25.139  0.00  0.00    -0.004 A 
ATOM     33  C   UNL     1      -5.087   1.348  24.879  0.00  0.00    -0.026 A 
ATOM     34  C   UNL     1      -5.186   0.602  24.538  0.00  0.00    +0.031 C 
ENDBRANCH   7   6
BRANCH  16  24
ATOM     24  N   UNL     1       1.237   0.255  23.158  0.00  0.00    -0.203 NA
ATOM     25  C   UNL     1       1.883   0.730  23.356  0.00  0.00    +0.266 C 
ATOM     26  O   UNL     1       1.772   1.408  23.812  0.00  0.00    -0.268 OA
BRANCH  25  27
ATOM     27  C   UNL     1       2.639   0.526  23.097  0.00  0.00    +0.074 A 
ATOM     28  C   UNL     1       2.881  -0.263  23.109  0.00  0.00    +0.103 A 
ATOM     29  N   UNL     1       3.637  -0.466  22.850  0.00  0.00    -0.242 NA
ATOM     30  C   UNL     1       4.152   0.118  22.579  0.00  0.00    +0.099 A 
ATOM     31  C   UNL     1       3.910   0.907  22.568  0.00  0.00    +0.021 A 
ATOM     32  C   UNL     1       3.154   1.111  22.826  0.00  0.00    +0.008 A 
ENDBRANCH  25  27
ENDBRANCH  16  24
TORSDOF 3
ENDMDL
MODEL 3
REMARK VINA RESULT:      -9.0      1.205      6.726
REMARK  Name = 
REMARK  3 active torsions:
REMARK  status: ('A' for Active; 'I' for Inactive)
REMARK    1  A    between atoms: C_6  and  C_7
REMARK    2  A    between atoms: C_16  and  N_24
REMARK    3  A    between atoms: C_25  and  C_27
REMARK                            x       y       z     vdW  Elec       q    Type
REMARK                         _______ _______ _______ _____ _____    ______ ____
ROOT
ATOM      7  C   UNL     1       2.314   0.376  23.041  0.00  0.00    -0.000 A 
ATOM      8  C   UNL     1       1.944  -0.267  22.680  0.00  0.00    +0.001 A 
ATOM      9  C   UNL     1       1.130  -0.375  22.762  0.00  0.00    +0.017 A 
ATOM     10  C   UNL     1       0.686   0.161  23.204  0.00  0.00    +0.078 A 
ATOM     11  N   UNL     1      -0.112  -0.047  23.215  0.00  0.00    -0.178 NA
ATOM     12  C   UNL     1      -0.739   0.337  23.590  0.00  0.00    +0.264 C 
ATOM     13  O   UNL     1      -1.480  -0.012  23.497  0.00  0.00    -0.271 OA
ATOM     14  C   UNL     1      -0.722   1.025  24.047  0.00  0.00    +0.156 C 
ATOM     15  C   UNL     1      -1.474   1.223  24.321  0.00  0.00    +0.051 C 
ATOM     16  C   UNL     1      -1.578   1.894  24.789  0.00  0.00    +0.099 C 
ATOM     17  C   UNL     1      -0.930   2.366  24.983  0.00  0.00    +0.043 C 
ATOM     18  C   UNL     1      -0.179   2.168  24.708  0.00  0.00    +0.096 C 
ATOM     19  N   UNL     1      -0.074   1.497  24.240  0.00  0.00    -0.269 N 
ATOM     20  C   UNL     1       0.717   1.399  24.026  0.00  0.00    +0.251 C 
ATOM     21  O   UNL     1       1.238   1.972  24.310  0.00  0.00    -0.270 OA
ATOM     22  C   UNL     1       1.055   0.804  23.564  0.00  0.00    +0.069 A 
ATOM     23  C   UNL     1       1.868   0.912  23.483  0.00  0.00    +0.006 A 
ENDROOT
BRANCH   7   6
ATOM      1  C   UNL     1       4.988  -0.529  23.486  0.00  0.00    +0.031 C 
ATOM      2  C   UNL     1       4.465   0.032  23.182  0.00  0.00    -0.026 A 
ATOM      3  C   UNL     1       4.755   0.701  22.797  0.00  0.00    -0.005 A 
ATOM      4  C   UNL     1       4.232   1.262  22.492  0.00  0.00    -0.000 A 
ATOM      5  C   UNL     1       3.418   1.153  22.574  0.00  0.00    -0.000 A 
ATOM      6  C   UNL     1       3.127   0.484  22.960  0.00  0.00    -0.004 A 
ATOM     33  C   UNL     1       3.651  -0.077  23.264  0.00  0.00    -0.026 A 
ATOM     34  C   UNL     1       3.360  -0.746  23.650  0.00  0.00    +0.031 C 
ENDBRANCH   7   6
BRANCH  16  24
ATOM     24  N   UNL     1      -2.330   2.093  25.064  0.00  0.00    -0.203 NA
ATOM     25  C   UNL     1      -2.758   2.696  24.697  0.00  0.00    +0.266 C 
ATOM     26  O   UNL     1      -2.432   3.101  24.056  0.00  0.00    -0.268 OA
BRANCH  25  27
ATOM     27  C   UNL     1      -3.510   2.895  24.971  0.00  0.00    +0.074 A 
ATOM     28  C   UNL     1      -3.601   3.499  25.526  0.00  0.00    +0.103 A 
ATOM     29  N   UNL     1      -4.353   3.697  25.800  0.00  0.00    -0.242 NA
ATOM     30  C   UNL     1      -5.014   3.292  25.520  0.00  0.00    +0.099 A 
ATOM     31  C   UNL     1      -4.923   2.688  24.966  0.00  0.00    +0.021 A 
ATOM     32  C   UNL     1      -4.172   2.489  24.691  0.00  0.00    +0.008 A 
ENDBRANCH  25  27
ENDBRANCH  16  24
TORSDOF 3
ENDMDL
MODEL 4
REMARK VINA RESULT:      -8.9      3.110      4.867
REMARK  Name = 
REMARK  3 active torsions:
REMARK  status: ('A' for Active; 'I' for Inactive)
REMARK    1  A    between atoms: C_6  and  C_7
REMARK    2  A    between atoms: C_16  and  N_24
REMARK    3  A    between atoms: C_25  and  C_27
REMARK                            x       y       z     vdW  Elec       q    Type
REMARK                         _______ _______ _______ _____ _____    ______ ____
ROOT
ATOM      7  C   UNL     1      -0.969   3.607  25.232  0.00  0.00    -0.000 A 
ATOM      8  C   UNL     1      -0.476   3.327  25.831  0.00  0.00    +0.001 A 
ATOM      9  C   UNL     1      -0.456   2.522  26.007  0.00  0.00    +0.017 A 
ATOM     10  C   UNL     1      -0.928   1.995  25.583  0.00  0.00    +0.078 A 
ATOM     11  N   UNL     1      -0.825   1.220  25.845  0.00  0.00    -0.178 NA
ATOM     12  C   UNL     1      -1.189   0.532  25.572  0.00  0.00    +0.264 C 
ATOM     13  O   UNL     1      -0.966  -0.166  25.952  0.00  0.00    -0.271 OA
ATOM     14  C   UNL     1      -1.747   0.449  24.970  0.00  0.00    +0.156 C 
ATOM     15  C   UNL     1      -1.970  -0.339  24.872  0.00  0.00    +0.051 C 
ATOM     16  C   UNL     1      -2.524  -0.542  24.295  0.00  0.00    +0.099 C 
ATOM     17  C   UNL     1      -2.855   0.043  23.817  0.00  0.00    +0.043 C 
ATOM     18  C   UNL     1      -2.632   0.830  23.915  0.00  0.00    +0.096 C 
ATOM     19  N   UNL     1      -2.077   1.034  24.492  0.00  0.00    -0.269 N 
ATOM     20  C   UNL     1      -1.933   1.846  24.497  0.00  0.00    +0.251 C 
ATOM     21  O   UNL     1      -2.355   2.289  23.944  0.00  0.00    -0.270 OA
ATOM     22  C   UNL     1      -1.421   2.274  24.984  0.00  0.00    +0.069 A 
ATOM     23  C   UNL     1      -1.442   3.079  24.808  0.00  0.00    +0.006 A 
ENDROOT
BRANCH   7   6
ATOM      1  C   UNL     1      -2.276   6.143  25.392  0.00  0.00    +0.031 C 
ATOM      2  C   UNL     1      -1.643   5.681  25.135  0.00  0.00    -0.026 A 
ATOM      3  C   UNL     1      -1.030   6.024  24.702  0.00  0.00    -0.005 A 
ATOM      4  C   UNL     1      -0.397   5.561  24.445  0.00  0.00    -0.000 A 
ATOM      5  C   UNL     1      -0.377   4.755  24.622  0.00  0.00    -0.000 A 
ATOM      6  C   UNL     1      -0.990   4.412  25.055  0.00  0.00    -0.004 A 
ATOM     33  C   UNL     1      -1.623   4.875  25.312  0.00  0.00    -0.026 A 
ATOM     34  C   UNL     1      -2.236   4.532  25.745  0.00  0.00    +0.031 C 
ENDBRANCH   7   6
BRANCH  16  24
ATOM     24  N   UNL     1      -2.748  -1.330  24.197  0.00  0.00    -0.203 NA
ATOM     25  C   UNL     1      -3.514  -1.569  24.390  0.00  0.00    +0.266 C 
ATOM     26  O   UNL     1      -4.057  -1.019  24.681  0.00  0.00    -0.268 OA
BRANCH  25  27
ATOM     27  C   UNL     1      -3.738  -2.357  24.292  0.00  0.00    +0.074 A 
ATOM     28  C   UNL     1      -3.405  -2.943  24.768  0.00  0.00    +0.103 A 
ATOM     29  N   UNL     1      -3.628  -3.730  24.670  0.00  0.00    -0.242 NA
ATOM     30  C   UNL     1      -4.185  -3.933  24.096  0.00  0.00    +0.099 A 
ATOM     31  C   UNL     1      -4.518  -3.348  23.620  0.00  0.00    +0.021 A 
ATOM     32  C   UNL     1      -4.295  -2.560  23.718  0.00  0.00    +0.008 A 
ENDBRANCH  25  27
ENDBRANCH  16  24
TORSDOF 3
ENDMDL
