REMARK  Name = 
REMARK  5 active torsions:
REMARK  status: ('A' for Active; 'I' for Inactive)
REMARK    1  A    between atoms: C_1  and  N_2
REMARK    2  A    between atoms: C_1  and  C_24
REMARK    3  A    between atoms: C_6  and  C_7
REMARK    4  A    between atoms: C_9  and  C_12
REMARK    5  A    between atoms: C_15  and  C_18
REMARK                            x       y       z     vdW  Elec       q    Type
REMARK                         _______ _______ _______ _____ _____    ______ ____
ROOT
ATOM      7  C   UNL     1       5.519   3.403   0.000  0.00  0.00    +0.251 A 
ATOM      8  N   UNL     1       6.186   3.888   0.000  0.00  0.00    -0.190 NA
ATOM      9  C   UNL     1       6.854   3.403   0.000  0.00  0.00    +0.205 A 
ATOM     10  N   UNL     1       6.599   2.618   0.000  0.00  0.00    -0.056 NA
ATOM     11  O   UNL     1       5.774   2.618   0.000  0.00  0.00    -0.336 OA
ENDROOT
BRANCH   9  12
ATOM     12  C   UNL     1       7.638   3.658   0.000  0.00  0.00    +0.058 A 
ATOM     13  C   UNL     1       7.810   4.465   0.000  0.00  0.00    +0.006 A 
ATOM     14  C   UNL     1       8.595   4.720   0.000  0.00  0.00    +0.019 A 
ATOM     15  C   UNL     1       9.208   4.168   0.000  0.00  0.00    +0.084 A 
ATOM     16  N   UNL     1       9.036   3.361   0.000  0.00  0.00    -0.244 NA
ATOM     17  C   UNL     1       8.251   3.106   0.000  0.00  0.00    +0.102 A 
BRANCH  15  18
ATOM     18  C   UNL     1       9.992   4.423   0.000  0.00  0.00    +0.056 A 
ATOM     19  C   UNL     1      10.164   5.230   0.000  0.00  0.00    +0.104 A 
ATOM     20  N   UNL     1      10.948   5.485   0.000  0.00  0.00    -0.222 NA
ATOM     21  C   UNL     1      11.561   4.933   0.000  0.00  0.00    +0.199 A 
ATOM     22  N   UNL     1      11.390   4.126   0.000  0.00  0.00    -0.222 NA
ATOM     23  C   UNL     1      10.605   3.871   0.000  0.00  0.00    +0.104 A 
ENDBRANCH  15  18
ENDBRANCH   9  12
BRANCH   7   6
ATOM      2  N   UNL     1       4.067   3.173   0.000  0.00  0.00    -0.263 NA
ATOM      3  C   UNL     1       3.399   3.658   0.000  0.00  0.00    +0.073 C 
ATOM      4  C   UNL     1       3.654   4.442   0.000  0.00  0.00    +0.019 C 
ATOM      5  C   UNL     1       4.479   4.442   0.000  0.00  0.00    +0.027 C 
ATOM      6  C   UNL     1       4.734   3.658   0.000  0.00  0.00    +0.138 C 
BRANCH   2   1
ATOM      1  C   UNL     1       4.067   2.348   0.000  0.00  0.00    +0.100 C 
BRANCH   1  24
ATOM     24  C   UNL     1       3.352   1.935   0.000  0.00  0.00    -0.003 A 
ATOM     25  C   UNL     1       3.352   1.110   0.000  0.00  0.00    +0.000 A 
ATOM     26  C   UNL     1       2.638   0.698   0.000  0.00  0.00    +0.040 A 
ATOM     27  C   UNL     1       1.923   1.110   0.000  0.00  0.00    +0.176 A 
ATOM     28  O   UNL     1       1.139   0.856   0.000  0.00  0.00    -0.435 OA
ATOM     29  C   UNL     1       0.654   1.523   0.000  0.00  0.00    +0.429 C 
ATOM     30  O   UNL     1       1.139   2.190   0.000  0.00  0.00    -0.435 OA
ATOM     31  C   UNL     1       1.923   1.935   0.000  0.00  0.00    +0.176 A 
ATOM     32  C   UNL     1       2.638   2.348   0.000  0.00  0.00    +0.037 A 
ENDBRANCH   1  24
ENDBRANCH   2   1
ENDBRANCH   7   6
TORSDOF 5
