REMARK  Name = 
REMARK  7 active torsions:
REMARK  status: ('A' for Active; 'I' for Inactive)
REMARK    1  A    between atoms: O_2  and  C_3
REMARK    2  A    between atoms: C_3  and  C_4
REMARK    3  A    between atoms: C_4  and  N_5
REMARK    4  A    between atoms: N_5  and  C_6
REMARK    5  A    between atoms: C_10  and  C_21
REMARK    6  A    between atoms: C_21  and  O_23
REMARK    7  A    between atoms: C_25  and  C_27
REMARK                            x       y       z     vdW  Elec       q    Type
REMARK                         _______ _______ _______ _____ _____    ______ ____
ROOT
ATOM      6  C   UNL     1       4.796   1.102   0.000  0.00  0.00    +0.076 C 
ATOM      7  C   UNL     1       3.973   1.149   0.000  0.00  0.00    +0.040 C 
ATOM      8  C   UNL     1       3.520   0.460   0.000  0.00  0.00    +0.100 C 
ATOM      9  N   UNL     1       3.891  -0.277   0.000  0.00  0.00    -0.258 NA
ATOM     10  C   UNL     1       3.438  -0.967   0.000  0.00  0.00    +0.162 C 
ATOM     11  C   UNL     1       2.615  -0.920   0.000  0.00  0.00    +0.055 C 
ATOM     12  C   UNL     1       2.244  -0.183   0.000  0.00  0.00    -0.004 A 
ATOM     13  C   UNL     1       2.696   0.507   0.000  0.00  0.00    +0.070 A 
ATOM     14  N   UNL     1       2.180   1.150   0.000  0.00  0.00    -0.249 NA
ATOM     15  C   UNL     1       1.409   0.859   0.000  0.00  0.00    +0.081 A 
ATOM     16  C   UNL     1       1.448   0.034   0.000  0.00  0.00    +0.015 A 
ATOM     17  C   UNL     1       0.754  -0.412   0.000  0.00  0.00    +0.001 A 
ATOM     18  C   UNL     1       0.020  -0.034   0.000  0.00  0.00    +0.000 A 
ATOM     19  C   UNL     1      -0.019   0.791   0.000  0.00  0.00    +0.002 A 
ATOM     20  C   UNL     1       0.675   1.237   0.000  0.00  0.00    +0.019 A 
ATOM     25  C   UNL     1       4.715  -0.324   0.000  0.00  0.00    +0.082 C 
ATOM     26  C   UNL     1       5.167   0.365   0.000  0.00  0.00    +0.038 C 
ENDROOT
BRANCH  25  27
ATOM     27  C   UNL     1       5.085  -1.061   0.000  0.00  0.00    -0.008 A 
ATOM     28  C   UNL     1       5.909  -1.108   0.000  0.00  0.00    -0.003 A 
ATOM     29  C   UNL     1       6.280  -1.845   0.000  0.00  0.00    -0.000 A 
ATOM     30  C   UNL     1       5.827  -2.535   0.000  0.00  0.00    -0.000 A 
ATOM     31  C   UNL     1       5.004  -2.488   0.000  0.00  0.00    -0.000 A 
ATOM     32  C   UNL     1       4.633  -1.751   0.000  0.00  0.00    -0.003 A 
ENDBRANCH  25  27
BRANCH  10  21
ATOM     21  C   UNL     1       3.809  -1.704   0.000  0.00  0.00    +0.332 C 
ATOM     22  O   UNL     1       4.448  -2.226   0.000  0.00  0.00    -0.249 OA
BRANCH  21  23
ATOM     23  O   UNL     1       3.357  -2.394   0.000  0.00  0.00    -0.443 OA
ATOM     24  C   UNL     1       2.533  -2.346   0.000  0.00  0.00    +0.256 C 
ENDBRANCH  21  23
ENDBRANCH  10  21
BRANCH   6   5
ATOM      5  N   UNL     1       5.249   1.792   0.000  0.00  0.00    -0.217 NA
BRANCH   5   4
ATOM      4  C   UNL     1       6.072   1.745   0.000  0.00  0.00    +0.121 C 
BRANCH   4   3
ATOM      3  C   UNL     1       6.525   2.434   0.000  0.00  0.00    +0.161 C 
BRANCH   3   2
ATOM      1  C   UNL     1       7.801   3.077   0.000  0.00  0.00    +0.174 C 
ATOM      2  O   UNL     1       7.349   2.387   0.000  0.00  0.00    -0.350 OA
ENDBRANCH   3   2
ENDBRANCH   4   3
ENDBRANCH   5   4
ENDBRANCH   6   5
TORSDOF 7
