MODEL 1
REMARK VINA RESULT:     -10.4      0.000      0.000
REMARK  Name = 
REMARK  5 active torsions:
REMARK  status: ('A' for Active; 'I' for Inactive)
REMARK    1  A    between atoms: N_2  and  C_4
REMARK    2  A    between atoms: C_7  and  C_10
REMARK    3  A    between atoms: C_13  and  C_15
REMARK    4  A    between atoms: N_19  and  C_20
REMARK    5  A    between atoms: C_20  and  C_21
REMARK                            x       y       z     vdW  Elec       q    Type
REMARK                         _______ _______ _______ _____ _____    ______ ____
ROOT
ATOM     15  C   UNL     1      -4.419   2.421  24.550  0.00  0.00    +0.138 C 
ATOM     16  C   UNL     1      -4.943   2.745  24.001  0.00  0.00    +0.027 C 
ATOM     17  C   UNL     1      -4.720   3.528  23.866  0.00  0.00    +0.019 C 
ATOM     18  C   UNL     1      -4.059   3.688  24.332  0.00  0.00    +0.073 C 
ATOM     19  N   UNL     1      -3.873   3.004  24.755  0.00  0.00    -0.263 NA
ENDROOT
BRANCH  15  13
ATOM     10  C   UNL     1      -4.216   0.342  24.992  0.00  0.00    +0.205 A 
ATOM     11  N   UNL     1      -4.722   0.585  25.597  0.00  0.00    -0.056 NA
ATOM     12  O   UNL     1      -4.860   1.394  25.504  0.00  0.00    -0.336 OA
ATOM     13  C   UNL     1      -4.439   1.650  24.843  0.00  0.00    +0.251 A 
ATOM     14  N   UNL     1      -4.041   1.000  24.526  0.00  0.00    -0.190 NA
BRANCH  10   7
ATOM      4  C   UNL     1      -3.372  -1.956  24.636  0.00  0.00    +0.132 A 
ATOM      5  C   UNL     1      -3.943  -1.644  24.131  0.00  0.00    +0.034 A 
ATOM      6  C   UNL     1      -4.225  -0.878  24.249  0.00  0.00    +0.008 A 
ATOM      7  C   UNL     1      -3.934  -0.424  24.874  0.00  0.00    +0.058 A 
ATOM      8  C   UNL     1      -3.362  -0.736  25.379  0.00  0.00    +0.103 A 
ATOM      9  N   UNL     1      -3.081  -1.502  25.261  0.00  0.00    -0.229 NA
BRANCH   4   2
ATOM      1  C   UNL     1      -3.595  -3.368  24.617  0.00  0.00    +0.114 C 
ATOM      2  N   UNL     1      -3.090  -2.723  24.518  0.00  0.00    -0.290 N 
ATOM      3  C   UNL     1      -2.303  -2.844  24.302  0.00  0.00    +0.114 C 
ENDBRANCH   4   2
ENDBRANCH  10   7
ENDBRANCH  15  13
BRANCH  19  20
ATOM     20  C   UNL     1      -3.250   2.919  25.289  0.00  0.00    +0.100 C 
BRANCH  20  21
ATOM     21  C   UNL     1      -2.626   3.459  25.286  0.00  0.00    -0.003 A 
ATOM     22  C   UNL     1      -2.666   4.138  25.752  0.00  0.00    +0.000 A 
ATOM     23  C   UNL     1      -2.043   4.678  25.748  0.00  0.00    +0.040 A 
ATOM     24  C   UNL     1      -1.379   4.540  25.278  0.00  0.00    +0.176 A 
ATOM     25  O   UNL     1      -0.685   4.969  25.162  0.00  0.00    -0.435 OA
ATOM     26  C   UNL     1      -0.216   4.556  24.624  0.00  0.00    +0.429 C 
ATOM     27  O   UNL     1      -0.620   3.870  24.408  0.00  0.00    -0.435 OA
ATOM     28  C   UNL     1      -1.339   3.860  24.812  0.00  0.00    +0.176 A 
ATOM     29  C   UNL     1      -1.963   3.320  24.815  0.00  0.00    +0.037 A 
ENDBRANCH  20  21
ENDBRANCH  19  20
TORSDOF 5
ENDMDL
MODEL 2
REMARK VINA RESULT:      -9.6      1.664      5.374
REMARK  Name = 
REMARK  5 active torsions:
REMARK  status: ('A' for Active; 'I' for Inactive)
REMARK    1  A    between atoms: N_2  and  C_4
REMARK    2  A    between atoms: C_7  and  C_10
REMARK    3  A    between atoms: C_13  and  C_15
REMARK    4  A    between atoms: N_19  and  C_20
REMARK    5  A    between atoms: C_20  and  C_21
REMARK                            x       y       z     vdW  Elec       q    Type
REMARK                         _______ _______ _______ _____ _____    ______ ____
ROOT
ATOM     15  C   UNL     1      -4.945   1.630  24.962  0.00  0.00    +0.138 C 
ATOM     16  C   UNL     1      -5.658   1.738  25.361  0.00  0.00    +0.027 C 
ATOM     17  C   UNL     1      -5.950   0.995  25.568  0.00  0.00    +0.019 C 
ATOM     18  C   UNL     1      -5.417   0.427  25.297  0.00  0.00    +0.073 C 
ATOM     19  N   UNL     1      -4.795   0.820  24.923  0.00  0.00    -0.263 NA
ENDROOT
BRANCH  15  13
ATOM     10  C   UNL     1      -3.458   3.091  24.497  0.00  0.00    +0.205 A 
ATOM     11  N   UNL     1      -3.991   3.203  23.877  0.00  0.00    -0.056 NA
ATOM     12  O   UNL     1      -4.613   2.669  23.976  0.00  0.00    -0.336 OA
ATOM     13  C   UNL     1      -4.464   2.228  24.657  0.00  0.00    +0.251 A 
ATOM     14  N   UNL     1      -3.750   2.488  24.979  0.00  0.00    -0.190 NA
BRANCH  10   7
ATOM      4  C   UNL     1      -1.354   4.344  24.849  0.00  0.00    +0.132 A 
ATOM      5  C   UNL     1      -2.057   4.618  25.181  0.00  0.00    +0.034 A 
ATOM      6  C   UNL     1      -2.759   4.200  25.064  0.00  0.00    +0.008 A 
ATOM      7  C   UNL     1      -2.756   3.508  24.614  0.00  0.00    +0.058 A 
ATOM      8  C   UNL     1      -2.053   3.234  24.282  0.00  0.00    +0.103 A 
ATOM      9  N   UNL     1      -1.352   3.652  24.399  0.00  0.00    -0.229 NA
BRANCH   4   2
ATOM      1  C   UNL     1      -0.643   5.583  24.893  0.00  0.00    +0.114 C 
ATOM      2  N   UNL     1      -0.652   4.761  24.966  0.00  0.00    -0.290 N 
ATOM      3  C   UNL     1       0.042   4.357  25.156  0.00  0.00    +0.114 C 
ENDBRANCH   4   2
ENDBRANCH  10   7
ENDBRANCH  15  13
BRANCH  19  20
ATOM     20  C   UNL     1      -4.139   0.465  24.570  0.00  0.00    +0.100 C 
BRANCH  20  21
ATOM     21  C   UNL     1      -3.987  -0.337  24.696  0.00  0.00    -0.003 A 
ATOM     22  C   UNL     1      -3.635  -0.585  25.400  0.00  0.00    +0.000 A 
ATOM     23  C   UNL     1      -3.482  -1.385  25.525  0.00  0.00    +0.040 A 
ATOM     24  C   UNL     1      -3.682  -1.939  24.947  0.00  0.00    +0.176 A 
ATOM     25  O   UNL     1      -3.600  -2.759  24.916  0.00  0.00    -0.435 OA
ATOM     26  C   UNL     1      -3.900  -3.018  24.193  0.00  0.00    +0.429 C 
ATOM     27  O   UNL     1      -4.169  -2.358  23.777  0.00  0.00    -0.435 OA
ATOM     28  C   UNL     1      -4.034  -1.692  24.243  0.00  0.00    +0.176 A 
ATOM     29  C   UNL     1      -4.187  -0.890  24.118  0.00  0.00    +0.037 A 
ENDBRANCH  20  21
ENDBRANCH  19  20
TORSDOF 5
ENDMDL
MODEL 3
REMARK VINA RESULT:      -9.6      2.311      6.031
REMARK  Name = 
REMARK  5 active torsions:
REMARK  status: ('A' for Active; 'I' for Inactive)
REMARK    1  A    between atoms: N_2  and  C_4
REMARK    2  A    between atoms: C_7  and  C_10
REMARK    3  A    between atoms: C_13  and  C_15
REMARK    4  A    between atoms: N_19  and  C_20
REMARK    5  A    between atoms: C_20  and  C_21
REMARK                            x       y       z     vdW  Elec       q    Type
REMARK                         _______ _______ _______ _____ _____    ______ ____
ROOT
ATOM     15  C   UNL     1      -0.639  -0.099  24.749  0.00  0.00    +0.138 C 
ATOM     16  C   UNL     1       0.009  -0.334  24.297  0.00  0.00    +0.027 C 
ATOM     17  C   UNL     1      -0.154  -1.081  23.987  0.00  0.00    +0.019 C 
ATOM     18  C   UNL     1      -0.902  -1.308  24.248  0.00  0.00    +0.073 C 
ATOM     19  N   UNL     1      -1.203  -0.700  24.719  0.00  0.00    -0.263 NA
ENDROOT
BRANCH  15  13
ATOM     10  C   UNL     1      -0.899   1.906  25.436  0.00  0.00    +0.205 A 
ATOM     11  N   UNL     1      -0.748   1.513  26.145  0.00  0.00    -0.056 NA
ATOM     12  O   UNL     1      -0.632   0.714  25.974  0.00  0.00    -0.336 OA
ATOM     13  C   UNL     1      -0.712   0.614  25.159  0.00  0.00    +0.251 A 
ATOM     14  N   UNL     1      -0.877   1.351  24.826  0.00  0.00    -0.190 NA
BRANCH  10   7
ATOM      4  C   UNL     1      -1.343   4.327  25.182  0.00  0.00    +0.132 A 
ATOM      5  C   UNL     1      -1.958   3.813  25.374  0.00  0.00    +0.034 A 
ATOM      6  C   UNL     1      -1.811   3.006  25.459  0.00  0.00    +0.008 A 
ATOM      7  C   UNL     1      -1.047   2.713  25.351  0.00  0.00    +0.058 A 
ATOM      8  C   UNL     1      -0.431   3.227  25.158  0.00  0.00    +0.103 A 
ATOM      9  N   UNL     1      -0.579   4.034  25.074  0.00  0.00    -0.229 NA
BRANCH   4   2
ATOM      1  C   UNL     1      -2.211   5.451  25.345  0.00  0.00    +0.114 C 
ATOM      2  N   UNL     1      -1.490   5.134  25.097  0.00  0.00    -0.290 N 
ATOM      3  C   UNL     1      -0.918   5.626  24.764  0.00  0.00    +0.114 C 
ENDBRANCH   4   2
ENDBRANCH  10   7
ENDBRANCH  15  13
BRANCH  19  20
ATOM     20  C   UNL     1      -1.938  -0.696  25.094  0.00  0.00    +0.100 C 
BRANCH  20  21
ATOM     21  C   UNL     1      -2.506  -1.261  24.896  0.00  0.00    -0.003 A 
ATOM     22  C   UNL     1      -2.503  -1.997  25.268  0.00  0.00    +0.000 A 
ATOM     23  C   UNL     1      -3.071  -2.561  25.070  0.00  0.00    +0.040 A 
ATOM     24  C   UNL     1      -3.642  -2.390  24.499  0.00  0.00    +0.176 A 
ATOM     25  O   UNL     1      -4.266  -2.833  24.192  0.00  0.00    -0.435 OA
ATOM     26  C   UNL     1      -4.654  -2.371  23.630  0.00  0.00    +0.429 C 
ATOM     27  O   UNL     1      -4.270  -1.642  23.590  0.00  0.00    -0.435 OA
ATOM     28  C   UNL     1      -3.644  -1.654  24.127  0.00  0.00    +0.176 A 
ATOM     29  C   UNL     1      -3.076  -1.089  24.325  0.00  0.00    +0.037 A 
ENDBRANCH  20  21
ENDBRANCH  19  20
TORSDOF 5
ENDMDL
MODEL 4
REMARK VINA RESULT:      -9.4      2.869      4.285
REMARK  Name = 
REMARK  5 active torsions:
REMARK  status: ('A' for Active; 'I' for Inactive)
REMARK    1  A    between atoms: N_2  and  C_4
REMARK    2  A    between atoms: C_7  and  C_10
REMARK    3  A    between atoms: C_13  and  C_15
REMARK    4  A    between atoms: N_19  and  C_20
REMARK    5  A    between atoms: C_20  and  C_21
REMARK                            x       y       z     vdW  Elec       q    Type
REMARK                         _______ _______ _______ _____ _____    ______ ____
ROOT
ATOM     15  C   UNL     1      -2.799  -0.273  25.270  0.00  0.00    +0.138 C 
ATOM     16  C   UNL     1      -3.074  -0.975  25.602  0.00  0.00    +0.027 C 
ATOM     17  C   UNL     1      -3.899  -0.951  25.603  0.00  0.00    +0.019 C 
ATOM     18  C   UNL     1      -4.133  -0.233  25.271  0.00  0.00    +0.073 C 
ATOM     19  N   UNL     1      -3.453   0.186  25.065  0.00  0.00    -0.263 NA
ENDROOT
BRANCH  15  13
ATOM     10  C   UNL     1      -0.799   0.090  24.616  0.00  0.00    +0.205 A 
ATOM     11  N   UNL     1      -0.781   0.419  25.373  0.00  0.00    -0.056 NA
ATOM     12  O   UNL     1      -1.529   0.323  25.710  0.00  0.00    -0.336 OA
ATOM     13  C   UNL     1      -2.007  -0.065  25.162  0.00  0.00    +0.251 A 
ATOM     14  N   UNL     1      -1.556  -0.209  24.486  0.00  0.00    -0.190 NA
BRANCH  10   7
ATOM      4  C   UNL     1       1.091   0.016  23.020  0.00  0.00    +0.132 A 
ATOM      5  C   UNL     1       0.805   0.742  23.288  0.00  0.00    +0.034 A 
ATOM      6  C   UNL     1       0.175   0.767  23.820  0.00  0.00    +0.008 A 
ATOM      7  C   UNL     1      -0.169   0.065  24.084  0.00  0.00    +0.058 A 
ATOM      8  C   UNL     1       0.117  -0.661  23.817  0.00  0.00    +0.103 A 
ATOM      9  N   UNL     1       0.747  -0.686  23.285  0.00  0.00    -0.229 NA
BRANCH   4   2
ATOM      1  C   UNL     1       2.460   0.284  22.709  0.00  0.00    +0.114 C 
ATOM      2  N   UNL     1       1.721  -0.009  22.488  0.00  0.00    -0.290 N 
ATOM      3  C   UNL     1       1.612  -0.327  21.735  0.00  0.00    +0.114 C 
ENDBRANCH   4   2
ENDBRANCH  10   7
ENDBRANCH  15  13
BRANCH  19  20
ATOM     20  C   UNL     1      -3.431   0.933  24.715  0.00  0.00    +0.100 C 
BRANCH  20  21
ATOM     21  C   UNL     1      -4.042   1.471  24.851  0.00  0.00    -0.003 A 
ATOM     22  C   UNL     1      -4.806   1.303  24.587  0.00  0.00    +0.000 A 
ATOM     23  C   UNL     1      -5.416   1.840  24.722  0.00  0.00    +0.040 A 
ATOM     24  C   UNL     1      -5.265   2.545  25.122  0.00  0.00    +0.176 A 
ATOM     25  O   UNL     1      -5.751   3.175  25.335  0.00  0.00    -0.435 OA
ATOM     26  C   UNL     1      -5.290   3.733  25.731  0.00  0.00    +0.429 C 
ATOM     27  O   UNL     1      -4.517   3.447  25.762  0.00  0.00    -0.435 OA
ATOM     28  C   UNL     1      -4.501   2.713  25.387  0.00  0.00    +0.176 A 
ATOM     29  C   UNL     1      -3.890   2.176  25.251  0.00  0.00    +0.037 A 
ENDBRANCH  20  21
ENDBRANCH  19  20
TORSDOF 5
ENDMDL
MODEL 5
REMARK VINA RESULT:      -9.3      1.857      3.402
REMARK  Name = 
REMARK  5 active torsions:
REMARK  status: ('A' for Active; 'I' for Inactive)
REMARK    1  A    between atoms: N_2  and  C_4
REMARK    2  A    between atoms: C_7  and  C_10
REMARK    3  A    between atoms: C_13  and  C_15
REMARK    4  A    between atoms: N_19  and  C_20
REMARK    5  A    between atoms: C_20  and  C_21
REMARK                            x       y       z     vdW  Elec       q    Type
REMARK                         _______ _______ _______ _____ _____    ______ ____
ROOT
ATOM     15  C   UNL     1      -1.744   3.291  24.891  0.00  0.00    +0.138 C 
ATOM     16  C   UNL     1      -1.280   3.821  25.319  0.00  0.00    +0.027 C 
ATOM     17  C   UNL     1      -1.760   4.451  25.551  0.00  0.00    +0.019 C 
ATOM     18  C   UNL     1      -2.521   4.310  25.266  0.00  0.00    +0.073 C 
ATOM     19  N   UNL     1      -2.511   3.593  24.858  0.00  0.00    -0.263 NA
ENDROOT
BRANCH  15  13
ATOM     10  C   UNL     1      -1.183   1.294  24.386  0.00  0.00    +0.205 A 
ATOM     11  N   UNL     1      -0.999   1.693  23.687  0.00  0.00    -0.056 NA
ATOM     12  O   UNL     1      -1.187   2.490  23.791  0.00  0.00    -0.336 OA
ATOM     13  C   UNL     1      -1.487   2.583  24.554  0.00  0.00    +0.251 A 
ATOM     14  N   UNL     1      -1.484   1.844  24.922  0.00  0.00    -0.190 NA
BRANCH  10   7
ATOM      4  C   UNL     1      -0.883  -1.127  24.801  0.00  0.00    +0.132 A 
ATOM      5  C   UNL     1      -1.512  -0.724  25.150  0.00  0.00    +0.034 A 
ATOM      6  C   UNL     1      -1.612   0.083  25.012  0.00  0.00    +0.008 A 
ATOM      7  C   UNL     1      -1.083   0.487  24.524  0.00  0.00    +0.058 A 
ATOM      8  C   UNL     1      -0.453   0.084  24.176  0.00  0.00    +0.103 A 
ATOM      9  N   UNL     1      -0.353  -0.723  24.314  0.00  0.00    -0.229 NA
BRANCH   4   2
ATOM      1  C   UNL     1      -1.331  -2.475  24.644  0.00  0.00    +0.114 C 
ATOM      2  N   UNL     1      -0.783  -1.934  24.940  0.00  0.00    -0.290 N 
ATOM      3  C   UNL     1      -0.133  -2.201  25.374  0.00  0.00    +0.114 C 
ENDBRANCH   4   2
ENDBRANCH  10   7
ENDBRANCH  15  13
BRANCH  19  20
ATOM     20  C   UNL     1      -3.156   3.240  24.483  0.00  0.00    +0.100 C 
BRANCH  20  21
ATOM     21  C   UNL     1      -3.902   3.261  24.836  0.00  0.00    -0.003 A 
ATOM     22  C   UNL     1      -4.313   3.975  24.888  0.00  0.00    +0.000 A 
ATOM     23  C   UNL     1      -5.058   3.996  25.241  0.00  0.00    +0.040 A 
ATOM     24  C   UNL     1      -5.393   3.304  25.542  0.00  0.00    +0.176 A 
ATOM     25  O   UNL     1      -6.112   3.156  25.917  0.00  0.00    -0.435 OA
ATOM     26  C   UNL     1      -6.145   2.352  26.096  0.00  0.00    +0.429 C 
ATOM     27  O   UNL     1      -5.447   2.003  25.832  0.00  0.00    -0.435 OA
ATOM     28  C   UNL     1      -4.981   2.591  25.490  0.00  0.00    +0.176 A 
ATOM     29  C   UNL     1      -4.235   2.569  25.137  0.00  0.00    +0.037 A 
ENDBRANCH  20  21
ENDBRANCH  19  20
TORSDOF 5
ENDMDL
MODEL 6
REMARK VINA RESULT:      -9.2      1.863      2.793
REMARK  Name = 
REMARK  5 active torsions:
REMARK  status: ('A' for Active; 'I' for Inactive)
REMARK    1  A    between atoms: N_2  and  C_4
REMARK    2  A    between atoms: C_7  and  C_10
REMARK    3  A    between atoms: C_13  and  C_15
REMARK    4  A    between atoms: N_19  and  C_20
REMARK    5  A    between atoms: C_20  and  C_21
REMARK                            x       y       z     vdW  Elec       q    Type
REMARK                         _______ _______ _______ _____ _____    ______ ____
ROOT
ATOM     15  C   UNL     1      -0.425   1.352  24.881  0.00  0.00    +0.138 C 
ATOM     16  C   UNL     1       0.227   1.431  24.383  0.00  0.00    +0.027 C 
ATOM     17  C   UNL     1       0.383   2.236  24.293  0.00  0.00    +0.019 C 
ATOM     18  C   UNL     1      -0.172   2.655  24.735  0.00  0.00    +0.073 C 
ATOM     19  N   UNL     1      -0.673   2.108  25.099  0.00  0.00    -0.263 NA
ENDROOT
BRANCH  15  13
ATOM     10  C   UNL     1      -1.526  -0.459  25.142  0.00  0.00    +0.205 A 
ATOM     11  N   UNL     1      -1.076  -0.445  25.833  0.00  0.00    -0.056 NA
ATOM     12  O   UNL     1      -0.609   0.236  25.820  0.00  0.00    -0.336 OA
ATOM     13  C   UNL     1      -0.770   0.642  25.120  0.00  0.00    +0.251 A 
ATOM     14  N   UNL     1      -1.337   0.213  24.701  0.00  0.00    -0.190 NA
BRANCH  10   7
ATOM      4  C   UNL     1      -3.158  -2.206  24.503  0.00  0.00    +0.132 A 
ATOM      5  C   UNL     1      -3.420  -1.502  24.844  0.00  0.00    +0.034 A 
ATOM      6  C   UNL     1      -2.876  -0.920  25.057  0.00  0.00    +0.008 A 
ATOM      7  C   UNL     1      -2.070  -1.041  24.929  0.00  0.00    +0.058 A 
ATOM      8  C   UNL     1      -1.808  -1.745  24.588  0.00  0.00    +0.103 A 
ATOM      9  N   UNL     1      -2.351  -2.328  24.375  0.00  0.00    -0.229 NA
BRANCH   4   2
ATOM      1  C   UNL     1      -3.620  -3.556  24.584  0.00  0.00    +0.114 C 
ATOM      2  N   UNL     1      -3.701  -2.789  24.291  0.00  0.00    -0.290 N 
ATOM      3  C   UNL     1      -4.326  -2.605  23.784  0.00  0.00    +0.114 C 
ENDBRANCH   4   2
ENDBRANCH  10   7
ENDBRANCH  15  13
BRANCH  19  20
ATOM     20  C   UNL     1      -1.308   2.287  25.594  0.00  0.00    +0.100 C 
BRANCH  20  21
ATOM     21  C   UNL     1      -1.800   2.927  25.420  0.00  0.00    -0.003 A 
ATOM     22  C   UNL     1      -1.626   3.675  25.721  0.00  0.00    +0.000 A 
ATOM     23  C   UNL     1      -2.117   4.314  25.547  0.00  0.00    +0.040 A 
ATOM     24  C   UNL     1      -2.782   4.206  25.071  0.00  0.00    +0.176 A 
ATOM     25  O   UNL     1      -3.363   4.728  24.808  0.00  0.00    -0.435 OA
ATOM     26  C   UNL     1      -3.897   4.303  24.343  0.00  0.00    +0.429 C 
ATOM     27  O   UNL     1      -3.645   3.518  24.320  0.00  0.00    -0.435 OA
ATOM     28  C   UNL     1      -2.956   3.458  24.770  0.00  0.00    +0.176 A 
ATOM     29  C   UNL     1      -2.465   2.818  24.944  0.00  0.00    +0.037 A 
ENDBRANCH  20  21
ENDBRANCH  19  20
TORSDOF 5
ENDMDL
MODEL 7
REMARK VINA RESULT:      -9.1      2.953      4.406
REMARK  Name = 
REMARK  5 active torsions:
REMARK  status: ('A' for Active; 'I' for Inactive)
REMARK    1  A    between atoms: N_2  and  C_4
REMARK    2  A    between atoms: C_7  and  C_10
REMARK    3  A    between atoms: C_13  and  C_15
REMARK    4  A    between atoms: N_19  and  C_20
REMARK    5  A    between atoms: C_20  and  C_21
REMARK                            x       y       z     vdW  Elec       q    Type
REMARK                         _______ _______ _______ _____ _____    ______ ____
ROOT
ATOM     15  C   UNL     1      -1.649   2.929  25.316  0.00  0.00    +0.138 C 
ATOM     16  C   UNL     1      -1.468   3.644  25.684  0.00  0.00    +0.027 C 
ATOM     17  C   UNL     1      -2.145   4.116  25.669  0.00  0.00    +0.019 C 
ATOM     18  C   UNL     1      -2.744   3.692  25.293  0.00  0.00    +0.073 C 
ATOM     19  N   UNL     1      -2.437   2.958  25.075  0.00  0.00    -0.263 NA
ENDROOT
BRANCH  15  13
ATOM     10  C   UNL     1      -0.254   1.451  24.662  0.00  0.00    +0.205 A 
ATOM     11  N   UNL     1      -0.419   1.186  25.426  0.00  0.00    -0.056 NA
ATOM     12  O   UNL     1      -0.962   1.708  25.764  0.00  0.00    -0.336 OA
ATOM     13  C   UNL     1      -1.132   2.294  25.209  0.00  0.00    +0.251 A 
ATOM     14  N   UNL     1      -0.694   2.135  24.528  0.00  0.00    -0.190 NA
BRANCH  10   7
ATOM      4  C   UNL     1       1.291   0.376  23.055  0.00  0.00    +0.132 A 
ATOM      5  C   UNL     1       0.576   0.012  23.245  0.00  0.00    +0.034 A 
ATOM      6  C   UNL     1       0.061   0.370  23.781  0.00  0.00    +0.008 A 
ATOM      7  C   UNL     1       0.262   1.093  24.126  0.00  0.00    +0.058 A 
ATOM      8  C   UNL     1       0.977   1.456  23.936  0.00  0.00    +0.103 A 
ATOM      9  N   UNL     1       1.492   1.098  23.401  0.00  0.00    -0.229 NA
BRANCH   4   2
ATOM      1  C   UNL     1       2.622   0.066  22.636  0.00  0.00    +0.114 C 
ATOM      2  N   UNL     1       1.806   0.018  22.520  0.00  0.00    -0.290 N 
ATOM      3  C   UNL     1       1.507  -0.388  21.867  0.00  0.00    +0.114 C 
ENDBRANCH   4   2
ENDBRANCH  10   7
ENDBRANCH  15  13
BRANCH  19  20
ATOM     20  C   UNL     1      -2.847   2.358  24.683  0.00  0.00    +0.100 C 
BRANCH  20  21
ATOM     21  C   UNL     1      -3.672   2.352  24.686  0.00  0.00    -0.003 A 
ATOM     22  C   UNL     1      -4.090   2.788  24.123  0.00  0.00    +0.000 A 
ATOM     23  C   UNL     1      -4.914   2.782  24.126  0.00  0.00    +0.040 A 
ATOM     24  C   UNL     1      -5.322   2.341  24.692  0.00  0.00    +0.176 A 
ATOM     25  O   UNL     1      -6.127   2.230  24.830  0.00  0.00    -0.435 OA
ATOM     26  C   UNL     1      -6.208   1.726  25.478  0.00  0.00    +0.429 C 
ATOM     27  O   UNL     1      -5.452   1.525  25.740  0.00  0.00    -0.435 OA
ATOM     28  C   UNL     1      -4.905   1.905  25.254  0.00  0.00    +0.176 A 
ATOM     29  C   UNL     1      -4.079   1.911  25.251  0.00  0.00    +0.037 A 
ENDBRANCH  20  21
ENDBRANCH  19  20
TORSDOF 5
ENDMDL
MODEL 8
REMARK VINA RESULT:      -8.9      2.888      4.644
REMARK  Name = 
REMARK  5 active torsions:
REMARK  status: ('A' for Active; 'I' for Inactive)
REMARK    1  A    between atoms: N_2  and  C_4
REMARK    2  A    between atoms: C_7  and  C_10
REMARK    3  A    between atoms: C_13  and  C_15
REMARK    4  A    between atoms: N_19  and  C_20
REMARK    5  A    between atoms: C_20  and  C_21
REMARK                            x       y       z     vdW  Elec       q    Type
REMARK                         _______ _______ _______ _____ _____    ______ ____
ROOT
ATOM     15  C   UNL     1      -1.643  -0.668  24.776  0.00  0.00    +0.138 C 
ATOM     16  C   UNL     1      -1.532  -1.265  25.333  0.00  0.00    +0.027 C 
ATOM     17  C   UNL     1      -0.733  -1.471  25.331  0.00  0.00    +0.019 C 
ATOM     18  C   UNL     1      -0.350  -1.000  24.773  0.00  0.00    +0.073 C 
ATOM     19  N   UNL     1      -0.913  -0.503  24.429  0.00  0.00    -0.263 NA
ENDROOT
BRANCH  15  13
ATOM     10  C   UNL     1      -3.402   0.534  24.631  0.00  0.00    +0.205 A 
ATOM     11  N   UNL     1      -3.519   0.005  24.008  0.00  0.00    -0.056 NA
ATOM     12  O   UNL     1      -2.874  -0.510  23.987  0.00  0.00    -0.336 OA
ATOM     13  C   UNL     1      -2.359  -0.299  24.596  0.00  0.00    +0.251 A 
ATOM     14  N   UNL     1      -2.686   0.347  24.994  0.00  0.00    -0.190 NA
BRANCH  10   7
ATOM      4  C   UNL     1      -4.935   2.361  25.291  0.00  0.00    +0.132 A 
ATOM      5  C   UNL     1      -5.209   1.584  25.260  0.00  0.00    +0.034 A 
ATOM      6  C   UNL     1      -4.699   0.974  25.040  0.00  0.00    +0.008 A 
ATOM      7  C   UNL     1      -3.913   1.143  24.851  0.00  0.00    +0.058 A 
ATOM      8  C   UNL     1      -3.639   1.920  24.882  0.00  0.00    +0.103 A 
ATOM      9  N   UNL     1      -4.150   2.529  25.102  0.00  0.00    -0.229 NA
BRANCH   4   2
ATOM      1  C   UNL     1      -5.230   3.756  25.384  0.00  0.00    +0.114 C 
ATOM      2  N   UNL     1      -5.446   2.970  25.511  0.00  0.00    -0.290 N 
ATOM      3  C   UNL     1      -6.173   2.794  25.859  0.00  0.00    +0.114 C 
ENDBRANCH   4   2
ENDBRANCH  10   7
ENDBRANCH  15  13
BRANCH  19  20
ATOM     20  C   UNL     1      -0.770   0.058  23.843  0.00  0.00    +0.100 C 
BRANCH  20  21
ATOM     21  C   UNL     1       0.005   0.284  23.667  0.00  0.00    -0.003 A 
ATOM     22  C   UNL     1       0.331   0.952  24.023  0.00  0.00    +0.000 A 
ATOM     23  C   UNL     1       1.105   1.177  23.847  0.00  0.00    +0.040 A 
ATOM     24  C   UNL     1       1.553   0.733  23.315  0.00  0.00    +0.176 A 
ATOM     25  O   UNL     1       2.324   0.819  23.036  0.00  0.00    -0.435 OA
ATOM     26  C   UNL     1       2.474   0.204  22.507  0.00  0.00    +0.429 C 
ATOM     27  O   UNL     1       1.796  -0.262  22.460  0.00  0.00    -0.435 OA
ATOM     28  C   UNL     1       1.227   0.064  22.958  0.00  0.00    +0.176 A 
ATOM     29  C   UNL     1       0.452  -0.161  23.134  0.00  0.00    +0.037 A 
ENDBRANCH  20  21
ENDBRANCH  19  20
TORSDOF 5
ENDMDL
