MODEL 1
REMARK VINA RESULT:     -10.4      0.000      0.000
REMARK  Name = 
REMARK  2 active torsions:
REMARK  status: ('A' for Active; 'I' for Inactive)
REMARK    1  A    between atoms: C_4  and  C_5
REMARK    2  A    between atoms: C_5  and  N_6
REMARK                            x       y       z     vdW  Elec       q    Type
REMARK                         _______ _______ _______ _____ _____    ______ ____
ROOT
ATOM      1  C   UNL     1      -2.142  -0.803  25.813  0.00  0.00    +0.130 C 
ATOM      2  N   UNL     1      -2.759  -0.707  25.274  0.00  0.00    -0.324 N 
ATOM      3  C   UNL     1      -3.073   0.012  25.019  0.00  0.00    +0.073 A 
ATOM      4  C   UNL     1      -3.679  -0.150  24.484  0.00  0.00    +0.012 A 
ATOM     14  C   UNL     1      -3.739  -0.969  24.408  0.00  0.00    +0.015 A 
ATOM     15  C   UNL     1      -3.171  -1.313  24.896  0.00  0.00    +0.060 A 
ATOM     16  C   UNL     1      -3.102  -2.134  24.933  0.00  0.00    +0.017 A 
ATOM     17  C   UNL     1      -3.601  -2.611  24.482  0.00  0.00    +0.001 A 
ATOM     18  C   UNL     1      -4.170  -2.267  23.994  0.00  0.00    +0.000 A 
ATOM     19  C   UNL     1      -4.239  -1.446  23.956  0.00  0.00    +0.001 A 
ENDROOT
BRANCH   4   5
ATOM      5  C   UNL     1      -4.144   0.409  24.093  0.00  0.00    +0.101 C 
BRANCH   5   6
ATOM      6  N   UNL     1      -4.248   1.160  24.420  0.00  0.00    -0.265 NA
ATOM      7  C   UNL     1      -3.683   1.724  24.207  0.00  0.00    +0.105 C 
ATOM      8  C   UNL     1      -3.634   2.515  24.439  0.00  0.00    +0.160 C 
ATOM      9  O   UNL     1      -4.136   2.936  24.939  0.00  0.00    -0.350 OA
ATOM     10  C   UNL     1      -4.811   2.672  25.332  0.00  0.00    +0.176 C 
ATOM     11  C   UNL     1      -5.152   1.921  25.321  0.00  0.00    +0.197 C 
ATOM     12  O   UNL     1      -5.834   1.830  25.778  0.00  0.00    -0.219 OA
ATOM     13  C   UNL     1      -4.901   1.248  24.916  0.00  0.00    +0.108 C 
ENDBRANCH   5   6
ENDBRANCH   4   5
TORSDOF 2
ENDMDL
MODEL 2
REMARK VINA RESULT:     -10.2      0.817      1.425
REMARK  Name = 
REMARK  2 active torsions:
REMARK  status: ('A' for Active; 'I' for Inactive)
REMARK    1  A    between atoms: C_4  and  C_5
REMARK    2  A    between atoms: C_5  and  N_6
REMARK                            x       y       z     vdW  Elec       q    Type
REMARK                         _______ _______ _______ _____ _____    ______ ____
ROOT
ATOM      1  C   UNL     1      -2.494  -1.057  26.125  0.00  0.00    +0.130 C 
ATOM      2  N   UNL     1      -3.029  -0.928  25.511  0.00  0.00    -0.324 N 
ATOM      3  C   UNL     1      -3.335  -0.197  25.280  0.00  0.00    +0.073 A 
ATOM      4  C   UNL     1      -3.847  -0.324  24.646  0.00  0.00    +0.012 A 
ATOM     14  C   UNL     1      -3.858  -1.133  24.486  0.00  0.00    +0.015 A 
ATOM     15  C   UNL     1      -3.353  -1.506  25.020  0.00  0.00    +0.060 A 
ATOM     16  C   UNL     1      -3.253  -2.325  24.991  0.00  0.00    +0.017 A 
ATOM     17  C   UNL     1      -3.658  -2.770  24.427  0.00  0.00    +0.001 A 
ATOM     18  C   UNL     1      -4.164  -2.397  23.892  0.00  0.00    +0.000 A 
ATOM     19  C   UNL     1      -4.264  -1.578  23.921  0.00  0.00    +0.001 A 
ENDROOT
BRANCH   4   5
ATOM      5  C   UNL     1      -4.274   0.256  24.243  0.00  0.00    +0.101 C 
BRANCH   5   6
ATOM      6  N   UNL     1      -3.998   1.034  24.228  0.00  0.00    -0.265 NA
ATOM      7  C   UNL     1      -4.297   1.531  24.816  0.00  0.00    +0.105 C 
ATOM      8  C   UNL     1      -4.132   2.329  24.948  0.00  0.00    +0.160 C 
ATOM      9  O   UNL     1      -3.628   2.826  24.526  0.00  0.00    -0.350 OA
ATOM     10  C   UNL     1      -3.164   2.650  23.867  0.00  0.00    +0.176 C 
ATOM     11  C   UNL     1      -3.090   1.932  23.468  0.00  0.00    +0.197 C 
ATOM     12  O   UNL     1      -2.576   1.933  22.822  0.00  0.00    -0.219 OA
ATOM     13  C   UNL     1      -3.461   1.213  23.628  0.00  0.00    +0.108 C 
ENDBRANCH   5   6
ENDBRANCH   4   5
TORSDOF 2
ENDMDL
MODEL 3
REMARK VINA RESULT:      -9.9      1.754      3.795
REMARK  Name = 
REMARK  2 active torsions:
REMARK  status: ('A' for Active; 'I' for Inactive)
REMARK    1  A    between atoms: C_4  and  C_5
REMARK    2  A    between atoms: C_5  and  N_6
REMARK                            x       y       z     vdW  Elec       q    Type
REMARK                         _______ _______ _______ _____ _____    ______ ____
ROOT
ATOM      1  C   UNL     1      -2.638   1.793  23.233  0.00  0.00    +0.130 C 
ATOM      2  N   UNL     1      -3.261   1.575  23.728  0.00  0.00    -0.324 N 
ATOM      3  C   UNL     1      -3.483   0.803  23.917  0.00  0.00    +0.073 A 
ATOM      4  C   UNL     1      -4.130   0.841  24.427  0.00  0.00    +0.012 A 
ATOM     14  C   UNL     1      -4.308   1.637  24.553  0.00  0.00    +0.015 A 
ATOM     15  C   UNL     1      -3.771   2.090  24.121  0.00  0.00    +0.060 A 
ATOM     16  C   UNL     1      -3.816   2.913  24.142  0.00  0.00    +0.017 A 
ATOM     17  C   UNL     1      -4.398   3.284  24.593  0.00  0.00    +0.001 A 
ATOM     18  C   UNL     1      -4.935   2.830  25.025  0.00  0.00    +0.000 A 
ATOM     19  C   UNL     1      -4.891   2.007  25.005  0.00  0.00    +0.001 A 
ENDROOT
BRANCH   4   5
ATOM      5  C   UNL     1      -4.530   0.197  24.753  0.00  0.00    +0.101 C 
BRANCH   5   6
ATOM      6  N   UNL     1      -4.147  -0.530  24.828  0.00  0.00    -0.265 NA
ATOM      7  C   UNL     1      -3.651  -0.607  25.483  0.00  0.00    +0.105 C 
ATOM      8  C   UNL     1      -3.196  -1.258  25.711  0.00  0.00    +0.160 C 
ATOM      9  O   UNL     1      -3.125  -1.990  25.339  0.00  0.00    -0.350 OA
ATOM     10  C   UNL     1      -3.491  -2.255  24.649  0.00  0.00    +0.176 C 
ATOM     11  C   UNL     1      -4.018  -1.851  24.159  0.00  0.00    +0.197 C 
ATOM     12  O   UNL     1      -4.290  -2.271  23.503  0.00  0.00    -0.219 OA
ATOM     13  C   UNL     1      -4.310  -1.084  24.239  0.00  0.00    +0.108 C 
ENDBRANCH   5   6
ENDBRANCH   4   5
TORSDOF 2
ENDMDL
MODEL 4
REMARK VINA RESULT:      -9.5      2.167      3.237
REMARK  Name = 
REMARK  2 active torsions:
REMARK  status: ('A' for Active; 'I' for Inactive)
REMARK    1  A    between atoms: C_4  and  C_5
REMARK    2  A    between atoms: C_5  and  N_6
REMARK                            x       y       z     vdW  Elec       q    Type
REMARK                         _______ _______ _______ _____ _____    ______ ____
ROOT
ATOM      1  C   UNL     1      -4.245   0.390  24.279  0.00  0.00    +0.130 C 
ATOM      2  N   UNL     1      -3.619  -0.109  24.477  0.00  0.00    -0.324 N 
ATOM      3  C   UNL     1      -2.882   0.127  24.764  0.00  0.00    +0.073 A 
ATOM      4  C   UNL     1      -2.427  -0.549  24.887  0.00  0.00    +0.012 A 
ATOM     14  C   UNL     1      -2.882  -1.204  24.676  0.00  0.00    +0.015 A 
ATOM     15  C   UNL     1      -3.618  -0.932  24.423  0.00  0.00    +0.060 A 
ATOM     16  C   UNL     1      -4.193  -1.470  24.176  0.00  0.00    +0.017 A 
ATOM     17  C   UNL     1      -4.033  -2.278  24.182  0.00  0.00    +0.001 A 
ATOM     18  C   UNL     1      -3.296  -2.550  24.435  0.00  0.00    +0.000 A 
ATOM     19  C   UNL     1      -2.720  -2.014  24.682  0.00  0.00    +0.001 A 
ENDROOT
BRANCH   4   5
ATOM      5  C   UNL     1      -1.652  -0.568  25.171  0.00  0.00    +0.101 C 
BRANCH   5   6
ATOM      6  N   UNL     1      -1.138   0.056  25.007  0.00  0.00    -0.265 NA
ATOM      7  C   UNL     1      -1.134   0.671  25.558  0.00  0.00    +0.105 C 
ATOM      8  C   UNL     1      -0.687   1.365  25.552  0.00  0.00    +0.160 C 
ATOM      9  O   UNL     1      -0.134   1.614  24.994  0.00  0.00    -0.350 OA
ATOM     10  C   UNL     1       0.110   1.234  24.304  0.00  0.00    +0.176 C 
ATOM     11  C   UNL     1      -0.140   0.508  24.002  0.00  0.00    +0.197 C 
ATOM     12  O   UNL     1       0.211   0.275  23.292  0.00  0.00    -0.219 OA
ATOM     13  C   UNL     1      -0.696  -0.016  24.315  0.00  0.00    +0.108 C 
ENDBRANCH   5   6
ENDBRANCH   4   5
TORSDOF 2
ENDMDL
MODEL 5
REMARK VINA RESULT:      -9.2      2.331      3.791
REMARK  Name = 
REMARK  2 active torsions:
REMARK  status: ('A' for Active; 'I' for Inactive)
REMARK    1  A    between atoms: C_4  and  C_5
REMARK    2  A    between atoms: C_5  and  N_6
REMARK                            x       y       z     vdW  Elec       q    Type
REMARK                         _______ _______ _______ _____ _____    ______ ____
ROOT
ATOM      1  C   UNL     1      -3.253   3.758  25.463  0.00  0.00    +0.130 C 
ATOM      2  N   UNL     1      -3.472   3.019  25.173  0.00  0.00    -0.324 N 
ATOM      3  C   UNL     1      -2.967   2.461  24.833  0.00  0.00    +0.073 A 
ATOM      4  C   UNL     1      -3.418   1.804  24.621  0.00  0.00    +0.012 A 
ATOM     14  C   UNL     1      -4.201   1.955  24.830  0.00  0.00    +0.015 A 
ATOM     15  C   UNL     1      -4.235   2.705  25.171  0.00  0.00    +0.060 A 
ATOM     16  C   UNL     1      -4.956   3.006  25.436  0.00  0.00    +0.017 A 
ATOM     17  C   UNL     1      -5.643   2.557  25.360  0.00  0.00    +0.001 A 
ATOM     18  C   UNL     1      -5.610   1.806  25.019  0.00  0.00    +0.000 A 
ATOM     19  C   UNL     1      -4.889   1.505  24.754  0.00  0.00    +0.001 A 
ENDROOT
BRANCH   4   5
ATOM      5  C   UNL     1      -3.135   1.117  24.263  0.00  0.00    +0.101 C 
BRANCH   5   6
ATOM      6  N   UNL     1      -2.350   0.887  24.375  0.00  0.00    -0.265 NA
ATOM      7  C   UNL     1      -1.806   1.195  23.835  0.00  0.00    +0.105 C 
ATOM      8  C   UNL     1      -0.991   1.071  23.799  0.00  0.00    +0.160 C 
ATOM      9  O   UNL     1      -0.519   0.610  24.293  0.00  0.00    -0.350 OA
ATOM     10  C   UNL     1      -0.744   0.158  24.945  0.00  0.00    +0.176 C 
ATOM     11  C   UNL     1      -1.497   0.056  25.264  0.00  0.00    +0.197 C 
ATOM     12  O   UNL     1      -1.543  -0.437  25.926  0.00  0.00    -0.219 OA
ATOM     13  C   UNL     1      -2.212   0.380  25.011  0.00  0.00    +0.108 C 
ENDBRANCH   5   6
ENDBRANCH   4   5
TORSDOF 2
ENDMDL
