REMARK  Name = 
REMARK  9 active torsions:
REMARK  status: ('A' for Active; 'I' for Inactive)
REMARK    1  A    between atoms: O_2  and  C_3
REMARK    2  A    between atoms: C_3  and  C_4
REMARK    3  A    between atoms: C_11  and  C_12
REMARK    4  A    between atoms: N_14  and  C_15
REMARK    5  A    between atoms: C_15  and  C_16
REMARK    6  A    between atoms: C_15  and  C_23
REMARK    7  A    between atoms: C_16  and  C_17
REMARK    8  A    between atoms: C_23  and  O_25
REMARK    9  A    between atoms: C_27  and  C_29
REMARK                            x       y       z     vdW  Elec       q    Type
REMARK                         _______ _______ _______ _____ _____    ______ ____
ROOT
ATOM      4  C   UNL     1      -2.143  -4.537   0.000  0.00  0.00    +0.256 C 
ATOM      5  O   UNL     1      -2.858  -4.950   0.000  0.00  0.00    -0.272 OA
ATOM      6  N   UNL     1      -2.143  -3.712   0.000  0.00  0.00    -0.268 N 
ATOM      7  C   UNL     1      -2.858  -3.300   0.000  0.00  0.00    +0.115 C 
ATOM      8  C   UNL     1      -2.858  -2.475   0.000  0.00  0.00    +0.115 C 
ATOM      9  N   UNL     1      -2.143  -2.062   0.000  0.00  0.00    -0.272 N 
ATOM     10  C   UNL     1      -1.429  -2.475   0.000  0.00  0.00    +0.123 C 
ATOM     11  C   UNL     1      -1.429  -3.300   0.000  0.00  0.00    +0.174 C 
ATOM     27  C   UNL     1      -2.143  -1.238   0.000  0.00  0.00    +0.249 C 
ATOM     28  O   UNL     1      -1.429  -0.825   0.000  0.00  0.00    -0.270 OA
ENDROOT
BRANCH  27  29
ATOM     29  C   UNL     1      -2.858  -0.825   0.000  0.00  0.00    +0.056 A 
ATOM     30  C   UNL     1      -3.572  -1.238   0.000  0.00  0.00    +0.005 A 
ATOM     31  C   UNL     1      -4.287  -0.825   0.000  0.00  0.00    +0.002 A 
ATOM     32  C   UNL     1      -4.287   0.000   0.000  0.00  0.00    +0.030 A 
ATOM     33  C   UNL     1      -3.572   0.412   0.000  0.00  0.00    +0.140 A 
ATOM     34  F   UNL     1      -3.572   1.238   0.000  0.00  0.00    -0.204 F 
ATOM     35  C   UNL     1      -2.858   0.000   0.000  0.00  0.00    +0.034 A 
ENDBRANCH  27  29
BRANCH  11  12
ATOM     12  C   UNL     1      -0.715  -3.712   0.000  0.00  0.00    +0.262 C 
ATOM     13  O   UNL     1       0.000  -3.300   0.000  0.00  0.00    -0.271 OA
ATOM     14  N   UNL     1      -0.715  -4.537   0.000  0.00  0.00    -0.194 NA
BRANCH  14  15
ATOM     15  C   UNL     1       0.000  -4.950   0.000  0.00  0.00    +0.198 C 
BRANCH  15  23
ATOM     23  C   UNL     1       0.715  -4.537   0.000  0.00  0.00    +0.337 C 
ATOM     24  O   UNL     1       1.429  -4.950   0.000  0.00  0.00    -0.248 OA
BRANCH  23  25
ATOM     25  O   UNL     1       0.715  -3.712   0.000  0.00  0.00    -0.443 OA
ATOM     26  C   UNL     1       1.429  -3.300   0.000  0.00  0.00    +0.256 C 
ENDBRANCH  23  25
ENDBRANCH  15  23
BRANCH  15  16
ATOM     16  C   UNL     1       0.000  -5.775   0.000  0.00  0.00    +0.061 C 
BRANCH  16  17
ATOM     17  C   UNL     1       0.715  -6.188   0.000  0.00  0.00    -0.001 A 
ATOM     18  C   UNL     1       1.429  -5.775   0.000  0.00  0.00    -0.001 A 
ATOM     19  C   UNL     1       2.143  -6.188   0.000  0.00  0.00    +0.020 A 
ATOM     20  C   UNL     1       2.143  -7.013   0.000  0.00  0.00    +0.099 A 
ATOM     21  N   UNL     1       1.429  -7.425   0.000  0.00  0.00    -0.243 NA
ATOM     22  C   UNL     1       0.715  -7.013   0.000  0.00  0.00    +0.095 A 
ENDBRANCH  16  17
ENDBRANCH  15  16
ENDBRANCH  14  15
ENDBRANCH  11  12
BRANCH   4   3
ATOM      3  C   UNL     1      -1.429  -4.950   0.000  0.00  0.00    +0.227 C 
BRANCH   3   2
ATOM      1  C   UNL     1      -0.715  -6.188   0.000  0.00  0.00    +0.175 C 
ATOM      2  O   UNL     1      -1.429  -5.775   0.000  0.00  0.00    -0.342 OA
ENDBRANCH   3   2
ENDBRANCH   4   3
TORSDOF 9
