REMARK  Name = 
REMARK  6 active torsions:
REMARK  status: ('A' for Active; 'I' for Inactive)
REMARK    1  A    between atoms: O_2  and  C_3
REMARK    2  A    between atoms: C_6  and  S_9
REMARK    3  A    between atoms: S_9  and  N_12
REMARK    4  A    between atoms: N_19  and  C_23
REMARK    5  A    between atoms: C_26  and  O_27
REMARK    6  A    between atoms: O_27  and  C_28
REMARK                            x       y       z     vdW  Elec       q    Type
REMARK                         _______ _______ _______ _____ _____    ______ ____
ROOT
ATOM     12  N   UNL     1       1.139  -1.365   0.000  0.00  0.00    -0.146 NA
ATOM     13  C   UNL     1       0.654  -0.698   0.000  0.00  0.00    +0.098 C 
ATOM     14  C   UNL     1       1.139  -0.030   0.000  0.00  0.00    +0.043 C 
ATOM     15  C   UNL     1       1.923  -0.285   0.000  0.00  0.00    +0.123 C 
ATOM     16  N   UNL     1       2.638   0.127   0.000  0.00  0.00    -0.188 NA
ATOM     17  C   UNL     1       3.352  -0.285   0.000  0.00  0.00    +0.333 C 
ATOM     18  O   UNL     1       4.067   0.127   0.000  0.00  0.00    -0.250 OA
ATOM     19  N   UNL     1       3.352  -1.110   0.000  0.00  0.00    -0.190 N 
ATOM     20  C   UNL     1       2.638  -1.523   0.000  0.00  0.00    +0.254 C 
ATOM     21  O   UNL     1       2.638  -2.348   0.000  0.00  0.00    -0.273 OA
ATOM     22  C   UNL     1       1.923  -1.110   0.000  0.00  0.00    +0.176 C 
ENDROOT
BRANCH  19  23
ATOM     23  C   UNL     1       4.067  -1.523   0.000  0.00  0.00    +0.062 A 
ATOM     24  C   UNL     1       4.781  -1.110   0.000  0.00  0.00    +0.018 A 
ATOM     25  C   UNL     1       5.496  -1.523   0.000  0.00  0.00    +0.039 A 
ATOM     26  C   UNL     1       5.496  -2.348   0.000  0.00  0.00    +0.145 A 
ATOM     34  C   UNL     1       4.781  -2.760   0.000  0.00  0.00    +0.039 A 
ATOM     35  C   UNL     1       4.067  -2.348   0.000  0.00  0.00    +0.018 A 
BRANCH  26  27
ATOM     27  O   UNL     1       6.210  -2.760   0.000  0.00  0.00    -0.453 OA
BRANCH  27  28
ATOM     28  C   UNL     1       6.210  -3.585   0.000  0.00  0.00    +0.145 A 
ATOM     29  C   UNL     1       6.925  -3.998   0.000  0.00  0.00    +0.037 A 
ATOM     30  C   UNL     1       6.925  -4.823   0.000  0.00  0.00    +0.003 A 
ATOM     31  C   UNL     1       6.210  -5.235   0.000  0.00  0.00    +0.000 A 
ATOM     32  C   UNL     1       5.496  -4.823   0.000  0.00  0.00    +0.003 A 
ATOM     33  C   UNL     1       5.496  -3.998   0.000  0.00  0.00    +0.037 A 
ENDBRANCH  27  28
ENDBRANCH  26  27
ENDBRANCH  19  23
BRANCH  12   9
ATOM      9  S   UNL     1       0.884  -2.150   0.000  0.00  0.00    +0.064 S 
ATOM     10  O   UNL     1       1.668  -2.405   0.000  0.00  0.00    -0.153 OA
ATOM     11  O   UNL     1       0.099  -1.895   0.000  0.00  0.00    -0.153 OA
BRANCH   9   6
ATOM      3  C   UNL     1       0.119  -4.504   0.000  0.00  0.00    +0.139 A 
ATOM      4  C   UNL     1      -0.433  -3.891   0.000  0.00  0.00    +0.038 A 
ATOM      5  C   UNL     1      -0.178  -3.106   0.000  0.00  0.00    +0.023 A 
ATOM      6  C   UNL     1       0.629  -2.935   0.000  0.00  0.00    +0.122 A 
ATOM      7  C   UNL     1       1.181  -3.548   0.000  0.00  0.00    +0.023 A 
ATOM      8  C   UNL     1       0.926  -4.332   0.000  0.00  0.00    +0.038 A 
BRANCH   3   2
ATOM      1  C   UNL     1       0.416  -5.902   0.000  0.00  0.00    +0.252 C 
ATOM      2  O   UNL     1      -0.136  -5.288   0.000  0.00  0.00    -0.471 OA
ENDBRANCH   3   2
ENDBRANCH   9   6
ENDBRANCH  12   9
TORSDOF 6
