MODEL 1
REMARK VINA RESULT:     -11.3      0.000      0.000
REMARK  Name = 
REMARK  6 active torsions:
REMARK  status: ('A' for Active; 'I' for Inactive)
REMARK    1  A    between atoms: O_2  and  C_3
REMARK    2  A    between atoms: C_3  and  C_4
REMARK    3  A    between atoms: C_9  and  C_11
REMARK    4  A    between atoms: C_11  and  C_13
REMARK    5  A    between atoms: C_20  and  N_21
REMARK    6  A    between atoms: C_22  and  C_24
REMARK                            x       y       z     vdW  Elec       q    Type
REMARK                         _______ _______ _______ _____ _____    ______ ____
ROOT
ATOM     13  C   UNL     1      -4.054   0.289  24.354  0.00  0.00    +0.039 C 
ATOM     14  C   UNL     1      -4.708   0.393  24.848  0.00  0.00    +0.003 C 
ATOM     15  C   UNL     1      -4.845   1.125  25.202  0.00  0.00    +0.000 C 
ATOM     16  C   UNL     1      -4.329   1.753  25.063  0.00  0.00    +0.002 C 
ATOM     17  C   UNL     1      -4.981   1.857  25.556  0.00  0.00    +0.000 C 
ATOM     18  C   UNL     1      -4.465   2.486  25.417  0.00  0.00    +0.002 C 
ATOM     19  C   UNL     1      -3.949   3.114  25.279  0.00  0.00    +0.022 C 
ATOM     20  C   UNL     1      -3.295   3.009  24.786  0.00  0.00    +0.096 C 
ATOM     30  C   UNL     1      -3.158   2.278  24.432  0.00  0.00    +0.022 C 
ATOM     31  C   UNL     1      -2.505   2.174  23.939  0.00  0.00    +0.002 C 
ATOM     32  C   UNL     1      -3.675   1.649  24.570  0.00  0.00    +0.032 C 
ATOM     33  C   UNL     1      -3.538   0.917  24.216  0.00  0.00    +0.152 C 
ATOM     34  O   UNL     1      -2.884   0.813  23.723  0.00  0.00    -0.223 OA
ENDROOT
BRANCH  20  21
ATOM     21  N   UNL     1      -2.779   3.638  24.648  0.00  0.00    -0.203 NA
ATOM     22  C   UNL     1      -2.350   3.965  25.271  0.00  0.00    +0.268 C 
ATOM     23  O   UNL     1      -2.436   3.662  26.035  0.00  0.00    -0.268 OA
BRANCH  22  24
ATOM     24  C   UNL     1      -1.833   4.594  25.133  0.00  0.00    +0.093 A 
ATOM     25  C   UNL     1      -2.113   5.369  25.150  0.00  0.00    +0.107 A 
ATOM     26  N   UNL     1      -1.597   5.998  25.012  0.00  0.00    -0.222 NA
ATOM     27  C   UNL     1      -0.800   5.850  24.857  0.00  0.00    +0.199 A 
ATOM     28  N   UNL     1      -0.520   5.074  24.840  0.00  0.00    -0.222 NA
ATOM     29  C   UNL     1      -1.037   4.446  24.978  0.00  0.00    +0.107 A 
ENDBRANCH  22  24
ENDBRANCH  20  21
BRANCH  13  11
ATOM     11  C   UNL     1      -3.917  -0.444  24.000  0.00  0.00    +0.079 C 
ATOM     12  C   UNL     1      -4.317  -0.647  23.308  0.00  0.00    +0.010 C 
BRANCH  11   9
ATOM      4  C   UNL     1      -3.042  -2.377  24.609  0.00  0.00    +0.105 C 
ATOM      5  C   UNL     1      -3.395  -3.105  24.444  0.00  0.00    +0.024 C 
ATOM      6  C   UNL     1      -4.096  -2.962  24.033  0.00  0.00    +0.023 C 
ATOM      7  C   UNL     1      -4.176  -2.146  23.942  0.00  0.00    +0.093 C 
ATOM      8  N   UNL     1      -3.525  -1.786  24.299  0.00  0.00    -0.279 N 
ATOM      9  C   UNL     1      -3.382  -0.973  24.337  0.00  0.00    +0.225 C 
ATOM     10  O   UNL     1      -2.704  -0.692  24.713  0.00  0.00    -0.275 OA
BRANCH   4   3
ATOM      3  C   UNL     1      -2.332  -2.264  25.012  0.00  0.00    +0.162 C 
BRANCH   3   2
ATOM      1  C   UNL     1      -0.956  -2.605  25.185  0.00  0.00    +0.174 C 
ATOM      2  O   UNL     1      -1.710  -2.795  24.912  0.00  0.00    -0.349 OA
ENDBRANCH   3   2
ENDBRANCH   4   3
ENDBRANCH  11   9
ENDBRANCH  13  11
TORSDOF 6
ENDMDL
MODEL 2
REMARK VINA RESULT:     -11.0      2.922      4.823
REMARK  Name = 
REMARK  6 active torsions:
REMARK  status: ('A' for Active; 'I' for Inactive)
REMARK    1  A    between atoms: O_2  and  C_3
REMARK    2  A    between atoms: C_3  and  C_4
REMARK    3  A    between atoms: C_9  and  C_11
REMARK    4  A    between atoms: C_11  and  C_13
REMARK    5  A    between atoms: C_20  and  N_21
REMARK    6  A    between atoms: C_22  and  C_24
REMARK                            x       y       z     vdW  Elec       q    Type
REMARK                         _______ _______ _______ _____ _____    ______ ____
ROOT
ATOM     13  C   UNL     1      -3.163   1.293  24.242  0.00  0.00    +0.039 C 
ATOM     14  C   UNL     1      -3.300   0.613  24.690  0.00  0.00    +0.003 C 
ATOM     15  C   UNL     1      -2.684   0.085  24.837  0.00  0.00    +0.000 C 
ATOM     16  C   UNL     1      -1.931   0.235  24.535  0.00  0.00    +0.002 C 
ATOM     17  C   UNL     1      -2.068  -0.443  24.983  0.00  0.00    +0.000 C 
ATOM     18  C   UNL     1      -1.315  -0.293  24.682  0.00  0.00    +0.002 C 
ATOM     19  C   UNL     1      -0.562  -0.143  24.380  0.00  0.00    +0.022 C 
ATOM     20  C   UNL     1      -0.425   0.537  23.932  0.00  0.00    +0.096 C 
ATOM     30  C   UNL     1      -1.041   1.065  23.785  0.00  0.00    +0.022 C 
ATOM     31  C   UNL     1      -0.904   1.744  23.337  0.00  0.00    +0.002 C 
ATOM     32  C   UNL     1      -1.794   0.915  24.087  0.00  0.00    +0.032 C 
ATOM     33  C   UNL     1      -2.410   1.443  23.940  0.00  0.00    +0.152 C 
ATOM     34  O   UNL     1      -2.273   2.122  23.492  0.00  0.00    -0.223 OA
ENDROOT
BRANCH  20  21
ATOM     21  N   UNL     1       0.328   0.686  23.630  0.00  0.00    -0.203 NA
ATOM     22  C   UNL     1       0.792   0.065  23.349  0.00  0.00    +0.268 C 
ATOM     23  O   UNL     1       0.501  -0.708  23.368  0.00  0.00    -0.268 OA
BRANCH  22  24
ATOM     24  C   UNL     1       1.545   0.215  23.047  0.00  0.00    +0.093 A 
ATOM     25  C   UNL     1       2.060   0.714  23.453  0.00  0.00    +0.107 A 
ATOM     26  N   UNL     1       2.814   0.864  23.152  0.00  0.00    -0.222 NA
ATOM     27  C   UNL     1       3.051   0.514  22.444  0.00  0.00    +0.199 A 
ATOM     28  N   UNL     1       2.535   0.014  22.037  0.00  0.00    -0.222 NA
ATOM     29  C   UNL     1       1.782  -0.135  22.339  0.00  0.00    +0.107 A 
ENDBRANCH  22  24
ENDBRANCH  20  21
BRANCH  13  11
ATOM     11  C   UNL     1      -3.779   1.822  24.095  0.00  0.00    +0.079 C 
ATOM     12  C   UNL     1      -3.766   2.293  23.419  0.00  0.00    +0.010 C 
BRANCH  11   9
ATOM      4  C   UNL     1      -5.194   2.745  25.517  0.00  0.00    +0.105 C 
ATOM      5  C   UNL     1      -5.167   3.543  25.729  0.00  0.00    +0.024 C 
ATOM      6  C   UNL     1      -4.541   3.894  25.321  0.00  0.00    +0.023 C 
ATOM      7  C   UNL     1      -4.181   3.313  24.858  0.00  0.00    +0.093 C 
ATOM      8  N   UNL     1      -4.585   2.604  24.980  0.00  0.00    -0.279 N 
ATOM      9  C   UNL     1      -4.409   1.879  24.625  0.00  0.00    +0.225 C 
ATOM     10  O   UNL     1      -4.863   1.214  24.801  0.00  0.00    -0.275 OA
BRANCH   4   3
ATOM      3  C   UNL     1      -5.735   2.189  25.796  0.00  0.00    +0.162 C 
BRANCH   3   2
ATOM      1  C   UNL     1      -6.647   1.762  26.809  0.00  0.00    +0.174 C 
ATOM      2  O   UNL     1      -6.198   2.357  26.456  0.00  0.00    -0.349 OA
ENDBRANCH   3   2
ENDBRANCH   4   3
ENDBRANCH  11   9
ENDBRANCH  13  11
TORSDOF 6
ENDMDL
MODEL 3
REMARK VINA RESULT:     -10.4      3.011      4.941
REMARK  Name = 
REMARK  6 active torsions:
REMARK  status: ('A' for Active; 'I' for Inactive)
REMARK    1  A    between atoms: O_2  and  C_3
REMARK    2  A    between atoms: C_3  and  C_4
REMARK    3  A    between atoms: C_9  and  C_11
REMARK    4  A    between atoms: C_11  and  C_13
REMARK    5  A    between atoms: C_20  and  N_21
REMARK    6  A    between atoms: C_22  and  C_24
REMARK                            x       y       z     vdW  Elec       q    Type
REMARK                         _______ _______ _______ _____ _____    ______ ____
ROOT
ATOM     13  C   UNL     1      -2.690   2.850  24.756  0.00  0.00    +0.039 C 
ATOM     14  C   UNL     1      -2.392   3.190  25.448  0.00  0.00    +0.003 C 
ATOM     15  C   UNL     1      -1.619   3.031  25.685  0.00  0.00    +0.000 C 
ATOM     16  C   UNL     1      -1.142   2.533  25.232  0.00  0.00    +0.002 C 
ATOM     17  C   UNL     1      -0.845   2.872  25.922  0.00  0.00    +0.000 C 
ATOM     18  C   UNL     1      -0.368   2.373  25.469  0.00  0.00    +0.002 C 
ATOM     19  C   UNL     1       0.108   1.876  25.017  0.00  0.00    +0.022 C 
ATOM     20  C   UNL     1      -0.190   1.536  24.325  0.00  0.00    +0.096 C 
ATOM     30  C   UNL     1      -0.963   1.695  24.088  0.00  0.00    +0.022 C 
ATOM     31  C   UNL     1      -1.261   1.356  23.397  0.00  0.00    +0.002 C 
ATOM     32  C   UNL     1      -1.440   2.194  24.541  0.00  0.00    +0.032 C 
ATOM     33  C   UNL     1      -2.214   2.353  24.304  0.00  0.00    +0.152 C 
ATOM     34  O   UNL     1      -2.511   2.014  23.613  0.00  0.00    -0.223 OA
ENDROOT
BRANCH  20  21
ATOM     21  N   UNL     1       0.287   1.038  23.872  0.00  0.00    -0.203 NA
ATOM     22  C   UNL     1       1.061   1.258  23.692  0.00  0.00    +0.268 C 
ATOM     23  O   UNL     1       1.359   1.978  23.966  0.00  0.00    -0.268 OA
BRANCH  22  24
ATOM     24  C   UNL     1       1.538   0.760  23.239  0.00  0.00    +0.093 A 
ATOM     25  C   UNL     1       1.203   0.127  22.831  0.00  0.00    +0.107 A 
ATOM     26  N   UNL     1       1.680  -0.371  22.378  0.00  0.00    -0.222 NA
ATOM     27  C   UNL     1       2.493  -0.235  22.334  0.00  0.00    +0.199 A 
ATOM     28  N   UNL     1       2.828   0.399  22.743  0.00  0.00    -0.222 NA
ATOM     29  C   UNL     1       2.350   0.896  23.195  0.00  0.00    +0.107 A 
ENDBRANCH  22  24
ENDBRANCH  20  21
BRANCH  13  11
ATOM     11  C   UNL     1      -3.464   3.010  24.520  0.00  0.00    +0.079 C 
ATOM     12  C   UNL     1      -3.603   3.479  23.855  0.00  0.00    +0.010 C 
BRANCH  11   9
ATOM      4  C   UNL     1      -5.377   2.971  25.621  0.00  0.00    +0.105 C 
ATOM      5  C   UNL     1      -5.840   3.642  25.748  0.00  0.00    +0.024 C 
ATOM      6  C   UNL     1      -5.459   4.285  25.398  0.00  0.00    +0.023 C 
ATOM      7  C   UNL     1      -4.760   4.010  25.055  0.00  0.00    +0.093 C 
ATOM      8  N   UNL     1      -4.711   3.199  25.193  0.00  0.00    -0.279 N 
ATOM      9  C   UNL     1      -4.099   2.701  24.946  0.00  0.00    +0.225 C 
ATOM     10  O   UNL     1      -4.124   1.897  25.126  0.00  0.00    -0.275 OA
BRANCH   4   3
ATOM      3  C   UNL     1      -5.552   2.207  25.878  0.00  0.00    +0.162 C 
BRANCH   3   2
ATOM      1  C   UNL     1      -6.405   1.303  26.582  0.00  0.00    +0.174 C 
ATOM      2  O   UNL     1      -6.216   2.070  26.347  0.00  0.00    -0.349 OA
ENDBRANCH   3   2
ENDBRANCH   4   3
ENDBRANCH  11   9
ENDBRANCH  13  11
TORSDOF 6
ENDMDL
MODEL 4
REMARK VINA RESULT:     -10.2      3.296      4.575
REMARK  Name = 
REMARK  6 active torsions:
REMARK  status: ('A' for Active; 'I' for Inactive)
REMARK    1  A    between atoms: O_2  and  C_3
REMARK    2  A    between atoms: C_3  and  C_4
REMARK    3  A    between atoms: C_9  and  C_11
REMARK    4  A    between atoms: C_11  and  C_13
REMARK    5  A    between atoms: C_20  and  N_21
REMARK    6  A    between atoms: C_22  and  C_24
REMARK                            x       y       z     vdW  Elec       q    Type
REMARK                         _______ _______ _______ _____ _____    ______ ____
ROOT
ATOM     13  C   UNL     1      -0.054   1.149  24.050  0.00  0.00    +0.039 C 
ATOM     14  C   UNL     1       0.293   1.899  24.042  0.00  0.00    +0.003 C 
ATOM     15  C   UNL     1      -0.149   2.559  24.261  0.00  0.00    +0.000 C 
ATOM     16  C   UNL     1      -0.936   2.472  24.489  0.00  0.00    +0.002 C 
ATOM     17  C   UNL     1      -0.590   3.220  24.481  0.00  0.00    +0.000 C 
ATOM     18  C   UNL     1      -1.379   3.133  24.709  0.00  0.00    +0.002 C 
ATOM     19  C   UNL     1      -2.166   3.046  24.936  0.00  0.00    +0.022 C 
ATOM     20  C   UNL     1      -2.513   2.296  24.944  0.00  0.00    +0.096 C 
ATOM     30  C   UNL     1      -2.071   1.635  24.725  0.00  0.00    +0.022 C 
ATOM     31  C   UNL     1      -2.417   0.887  24.733  0.00  0.00    +0.002 C 
ATOM     32  C   UNL     1      -1.283   1.722  24.497  0.00  0.00    +0.032 C 
ATOM     33  C   UNL     1      -0.841   1.062  24.277  0.00  0.00    +0.152 C 
ATOM     34  O   UNL     1      -1.188   0.313  24.285  0.00  0.00    -0.223 OA
ENDROOT
BRANCH  20  21
ATOM     21  N   UNL     1      -3.301   2.209  25.172  0.00  0.00    -0.203 NA
ATOM     22  C   UNL     1      -3.867   2.751  24.917  0.00  0.00    +0.268 C 
ATOM     23  O   UNL     1      -3.645   3.383  24.433  0.00  0.00    -0.268 OA
BRANCH  22  24
ATOM     24  C   UNL     1      -4.655   2.664  25.145  0.00  0.00    +0.093 A 
ATOM     25  C   UNL     1      -5.158   2.172  24.715  0.00  0.00    +0.107 A 
ATOM     26  N   UNL     1      -5.946   2.085  24.943  0.00  0.00    -0.222 NA
ATOM     27  C   UNL     1      -6.231   2.492  25.602  0.00  0.00    +0.199 A 
ATOM     28  N   UNL     1      -5.729   2.985  26.032  0.00  0.00    -0.222 NA
ATOM     29  C   UNL     1      -4.941   3.071  25.804  0.00  0.00    +0.107 A 
ENDBRANCH  22  24
ENDBRANCH  20  21
BRANCH  13  11
ATOM     11  C   UNL     1       0.389   0.488  23.830  0.00  0.00    +0.079 C 
ATOM     12  C   UNL     1       0.053  -0.264  23.870  0.00  0.00    +0.010 C 
BRANCH  11   9
ATOM      4  C   UNL     1       2.170   0.245  22.548  0.00  0.00    +0.105 C 
ATOM      5  C   UNL     1       2.174  -0.209  21.859  0.00  0.00    +0.024 C 
ATOM      6  C   UNL     1       1.419  -0.529  21.761  0.00  0.00    +0.023 C 
ATOM      7  C   UNL     1       0.950  -0.273  22.390  0.00  0.00    +0.093 C 
ATOM      8  N   UNL     1       1.415   0.205  22.875  0.00  0.00    -0.279 N 
ATOM      9  C   UNL     1       1.166   0.579  23.569  0.00  0.00    +0.225 C 
ATOM     10  O   UNL     1       1.695   1.042  24.000  0.00  0.00    -0.275 OA
BRANCH   4   3
ATOM      3  C   UNL     1       2.812   0.664  22.855  0.00  0.00    +0.162 C 
BRANCH   3   2
ATOM      1  C   UNL     1       4.214   0.933  22.856  0.00  0.00    +0.174 C 
ATOM      2  O   UNL     1       3.546   0.626  22.484  0.00  0.00    -0.349 OA
ENDBRANCH   3   2
ENDBRANCH   4   3
ENDBRANCH  11   9
ENDBRANCH  13  11
TORSDOF 6
ENDMDL
MODEL 5
REMARK VINA RESULT:      -9.8      1.113      5.536
REMARK  Name = 
REMARK  6 active torsions:
REMARK  status: ('A' for Active; 'I' for Inactive)
REMARK    1  A    between atoms: O_2  and  C_3
REMARK    2  A    between atoms: C_3  and  C_4
REMARK    3  A    between atoms: C_9  and  C_11
REMARK    4  A    between atoms: C_11  and  C_13
REMARK    5  A    between atoms: C_20  and  N_21
REMARK    6  A    between atoms: C_22  and  C_24
REMARK                            x       y       z     vdW  Elec       q    Type
REMARK                         _______ _______ _______ _____ _____    ______ ____
ROOT
ATOM     13  C   UNL     1      -3.627   2.890  24.431  0.00  0.00    +0.039 C 
ATOM     14  C   UNL     1      -4.231   3.064  24.968  0.00  0.00    +0.003 C 
ATOM     15  C   UNL     1      -4.719   2.461  25.248  0.00  0.00    +0.000 C 
ATOM     16  C   UNL     1      -4.604   1.685  24.994  0.00  0.00    +0.002 C 
ATOM     17  C   UNL     1      -5.207   1.859  25.529  0.00  0.00    +0.000 C 
ATOM     18  C   UNL     1      -5.093   1.082  25.274  0.00  0.00    +0.002 C 
ATOM     19  C   UNL     1      -4.978   0.306  25.020  0.00  0.00    +0.022 C 
ATOM     20  C   UNL     1      -4.374   0.133  24.484  0.00  0.00    +0.096 C 
ATOM     30  C   UNL     1      -3.886   0.735  24.203  0.00  0.00    +0.022 C 
ATOM     31  C   UNL     1      -3.283   0.561  23.668  0.00  0.00    +0.002 C 
ATOM     32  C   UNL     1      -4.001   1.512  24.458  0.00  0.00    +0.032 C 
ATOM     33  C   UNL     1      -3.513   2.114  24.177  0.00  0.00    +0.152 C 
ATOM     34  O   UNL     1      -2.910   1.940  23.642  0.00  0.00    -0.223 OA
ENDROOT
BRANCH  20  21
ATOM     21  N   UNL     1      -4.260  -0.644  24.229  0.00  0.00    -0.203 NA
ATOM     22  C   UNL     1      -4.050  -1.229  24.771  0.00  0.00    +0.268 C 
ATOM     23  O   UNL     1      -3.954  -1.038  25.569  0.00  0.00    -0.268 OA
BRANCH  22  24
ATOM     24  C   UNL     1      -3.936  -2.006  24.516  0.00  0.00    +0.093 A 
ATOM     25  C   UNL     1      -4.375  -2.302  23.885  0.00  0.00    +0.107 A 
ATOM     26  N   UNL     1      -4.261  -3.079  23.631  0.00  0.00    -0.222 NA
ATOM     27  C   UNL     1      -3.707  -3.559  24.009  0.00  0.00    +0.199 A 
ATOM     28  N   UNL     1      -3.267  -3.262  24.642  0.00  0.00    -0.222 NA
ATOM     29  C   UNL     1      -3.382  -2.486  24.895  0.00  0.00    +0.107 A 
ENDBRANCH  22  24
ENDBRANCH  20  21
BRANCH  13  11
ATOM     11  C   UNL     1      -3.139   3.493  24.151  0.00  0.00    +0.079 C 
ATOM     12  C   UNL     1      -3.434   4.046  23.615  0.00  0.00    +0.010 C 
BRANCH  11   9
ATOM      4  C   UNL     1      -1.314   4.374  25.028  0.00  0.00    +0.105 C 
ATOM      5  C   UNL     1      -1.281   5.144  25.324  0.00  0.00    +0.024 C 
ATOM      6  C   UNL     1      -2.025   5.487  25.227  0.00  0.00    +0.023 C 
ATOM      7  C   UNL     1      -2.518   4.930  24.871  0.00  0.00    +0.093 C 
ATOM      8  N   UNL     1      -2.078   4.242  24.749  0.00  0.00    -0.279 N 
ATOM      9  C   UNL     1      -2.356   3.544  24.406  0.00  0.00    +0.225 C 
ATOM     10  O   UNL     1      -1.850   2.899  24.319  0.00  0.00    -0.275 OA
BRANCH   4   3
ATOM      3  C   UNL     1      -0.692   3.833  25.015  0.00  0.00    +0.162 C 
BRANCH   3   2
ATOM      1  C   UNL     1       0.267   3.109  25.787  0.00  0.00    +0.174 C 
ATOM      2  O   UNL     1      -0.160   3.799  25.644  0.00  0.00    -0.349 OA
ENDBRANCH   3   2
ENDBRANCH   4   3
ENDBRANCH  11   9
ENDBRANCH  13  11
TORSDOF 6
ENDMDL
MODEL 6
REMARK VINA RESULT:      -9.0     17.322     18.610
REMARK  Name = 
REMARK  6 active torsions:
REMARK  status: ('A' for Active; 'I' for Inactive)
REMARK    1  A    between atoms: O_2  and  C_3
REMARK    2  A    between atoms: C_3  and  C_4
REMARK    3  A    between atoms: C_9  and  C_11
REMARK    4  A    between atoms: C_11  and  C_13
REMARK    5  A    between atoms: C_20  and  N_21
REMARK    6  A    between atoms: C_22  and  C_24
REMARK                            x       y       z     vdW  Elec       q    Type
REMARK                         _______ _______ _______ _____ _____    ______ ____
ROOT
ATOM     13  C   UNL     1      -4.257  -9.853  10.246  0.00  0.00    +0.039 C 
ATOM     14  C   UNL     1      -4.104 -10.298   9.567  0.00  0.00    +0.003 C 
ATOM     15  C   UNL     1      -4.555 -10.181   8.888  0.00  0.00    +0.000 C 
ATOM     16  C   UNL     1      -5.159  -9.619   8.885  0.00  0.00    +0.002 C 
ATOM     17  C   UNL     1      -5.007 -10.063   8.208  0.00  0.00    +0.000 C 
ATOM     18  C   UNL     1      -5.611  -9.501   8.205  0.00  0.00    +0.002 C 
ATOM     19  C   UNL     1      -6.214  -8.940   8.202  0.00  0.00    +0.022 C 
ATOM     20  C   UNL     1      -6.367  -8.495   8.881  0.00  0.00    +0.096 C 
ATOM     30  C   UNL     1      -5.916  -8.612   9.561  0.00  0.00    +0.022 C 
ATOM     31  C   UNL     1      -6.068  -8.168  10.239  0.00  0.00    +0.002 C 
ATOM     32  C   UNL     1      -5.312  -9.174   9.564  0.00  0.00    +0.032 C 
ATOM     33  C   UNL     1      -4.860  -9.292  10.244  0.00  0.00    +0.152 C 
ATOM     34  O   UNL     1      -5.013  -8.848  10.922  0.00  0.00    -0.223 OA
ENDROOT
BRANCH  20  21
ATOM     21  N   UNL     1      -6.971  -7.933   8.879  0.00  0.00    -0.203 NA
ATOM     22  C   UNL     1      -7.685  -8.096   8.500  0.00  0.00    +0.268 C 
ATOM     23  O   UNL     1      -7.796  -8.823   8.124  0.00  0.00    -0.268 OA
BRANCH  22  24
ATOM     24  C   UNL     1      -8.290  -7.534   8.497  0.00  0.00    +0.093 A 
ATOM     25  C   UNL     1      -9.009  -7.700   8.864  0.00  0.00    +0.107 A 
ATOM     26  N   UNL     1      -9.614  -7.138   8.861  0.00  0.00    -0.222 NA
ATOM     27  C   UNL     1      -9.497  -6.410   8.491  0.00  0.00    +0.199 A 
ATOM     28  N   UNL     1      -8.777  -6.244   8.124  0.00  0.00    -0.222 NA
ATOM     29  C   UNL     1      -8.173  -6.806   8.127  0.00  0.00    +0.107 A 
ENDBRANCH  22  24
ENDBRANCH  20  21
BRANCH  13  11
ATOM     11  C   UNL     1      -3.805  -9.971  10.927  0.00  0.00    +0.079 C 
ATOM     12  C   UNL     1      -4.143 -10.328  11.589  0.00  0.00    +0.010 C 
BRANCH  11   9
ATOM      4  C   UNL     1      -1.701  -9.872  11.590  0.00  0.00    +0.105 C 
ATOM      5  C   UNL     1      -1.402 -10.320  12.215  0.00  0.00    +0.024 C 
ATOM      6  C   UNL     1      -2.017 -10.781  12.515  0.00  0.00    +0.023 C 
ATOM      7  C   UNL     1      -2.696 -10.617  12.076  0.00  0.00    +0.093 C 
ATOM      8  N   UNL     1      -2.500 -10.055  11.505  0.00  0.00    -0.279 N 
ATOM      9  C   UNL     1      -3.015  -9.733  10.945  0.00  0.00    +0.225 C 
ATOM     10  O   UNL     1      -2.740  -9.174  10.406  0.00  0.00    -0.275 OA
BRANCH   4   3
ATOM      3  C   UNL     1      -1.274  -9.334  11.132  0.00  0.00    +0.162 C 
BRANCH   3   2
ATOM      1  C   UNL     1      -0.051  -8.600  11.085  0.00  0.00    +0.174 C 
ATOM      2  O   UNL     1      -0.452  -9.313  11.178  0.00  0.00    -0.349 OA
ENDBRANCH   3   2
ENDBRANCH   4   3
ENDBRANCH  11   9
ENDBRANCH  13  11
TORSDOF 6
ENDMDL
MODEL 7
REMARK VINA RESULT:      -8.7      1.672      6.104
REMARK  Name = 
REMARK  6 active torsions:
REMARK  status: ('A' for Active; 'I' for Inactive)
REMARK    1  A    between atoms: O_2  and  C_3
REMARK    2  A    between atoms: C_3  and  C_4
REMARK    3  A    between atoms: C_9  and  C_11
REMARK    4  A    between atoms: C_11  and  C_13
REMARK    5  A    between atoms: C_20  and  N_21
REMARK    6  A    between atoms: C_22  and  C_24
REMARK                            x       y       z     vdW  Elec       q    Type
REMARK                         _______ _______ _______ _____ _____    ______ ____
ROOT
ATOM     13  C   UNL     1      -1.036   1.875  25.059  0.00  0.00    +0.039 C 
ATOM     14  C   UNL     1      -0.598   1.635  25.717  0.00  0.00    +0.003 C 
ATOM     15  C   UNL     1      -0.634   0.853  25.974  0.00  0.00    +0.000 C 
ATOM     16  C   UNL     1      -1.109   0.310  25.575  0.00  0.00    +0.002 C 
ATOM     17  C   UNL     1      -0.671   0.070  26.230  0.00  0.00    +0.000 C 
ATOM     18  C   UNL     1      -1.146  -0.474  25.831  0.00  0.00    +0.002 C 
ATOM     19  C   UNL     1      -1.621  -1.017  25.432  0.00  0.00    +0.022 C 
ATOM     20  C   UNL     1      -2.060  -0.777  24.775  0.00  0.00    +0.096 C 
ATOM     30  C   UNL     1      -2.023   0.005  24.518  0.00  0.00    +0.022 C 
ATOM     31  C   UNL     1      -2.461   0.245  23.862  0.00  0.00    +0.002 C 
ATOM     32  C   UNL     1      -1.548   0.550  24.917  0.00  0.00    +0.032 C 
ATOM     33  C   UNL     1      -1.511   1.332  24.660  0.00  0.00    +0.152 C 
ATOM     34  O   UNL     1      -1.949   1.572  24.004  0.00  0.00    -0.223 OA
ENDROOT
BRANCH  20  21
ATOM     21  N   UNL     1      -2.535  -1.321  24.376  0.00  0.00    -0.203 NA
ATOM     22  C   UNL     1      -3.128  -1.727  24.780  0.00  0.00    +0.268 C 
ATOM     23  O   UNL     1      -3.246  -1.589  25.586  0.00  0.00    -0.268 OA
BRANCH  22  24
ATOM     24  C   UNL     1      -3.603  -2.271  24.381  0.00  0.00    +0.093 A 
ATOM     25  C   UNL     1      -4.263  -2.012  23.962  0.00  0.00    +0.107 A 
ATOM     26  N   UNL     1      -4.738  -2.557  23.562  0.00  0.00    -0.222 NA
ATOM     27  C   UNL     1      -4.552  -3.360  23.584  0.00  0.00    +0.199 A 
ATOM     28  N   UNL     1      -3.890  -3.619  24.004  0.00  0.00    -0.222 NA
ATOM     29  C   UNL     1      -3.416  -3.074  24.403  0.00  0.00    +0.107 A 
ENDBRANCH  22  24
ENDBRANCH  20  21
BRANCH  13  11
ATOM     11  C   UNL     1      -0.999   2.659  24.803  0.00  0.00    +0.079 C 
ATOM     12  C   UNL     1      -0.469   2.872  24.208  0.00  0.00    +0.010 C 
BRANCH  11   9
ATOM      4  C   UNL     1      -1.750   4.659  25.360  0.00  0.00    +0.105 C 
ATOM      5  C   UNL     1      -1.372   5.360  25.144  0.00  0.00    +0.024 C 
ATOM      6  C   UNL     1      -0.701   5.164  24.706  0.00  0.00    +0.023 C 
ATOM      7  C   UNL     1      -0.664   4.341  24.651  0.00  0.00    +0.093 C 
ATOM      8  N   UNL     1      -1.312   4.030  25.056  0.00  0.00    -0.279 N 
ATOM      9  C   UNL     1      -1.491   3.228  25.140  0.00  0.00    +0.225 C 
ATOM     10  O   UNL     1      -2.161   2.998  25.562  0.00  0.00    -0.275 OA
BRANCH   4   3
ATOM      3  C   UNL     1      -2.443   4.599  25.803  0.00  0.00    +0.162 C 
BRANCH   3   2
ATOM      1  C   UNL     1      -3.604   5.208  26.370  0.00  0.00    +0.174 C 
ATOM      2  O   UNL     1      -2.881   5.274  25.980  0.00  0.00    -0.349 OA
ENDBRANCH   3   2
ENDBRANCH   4   3
ENDBRANCH  11   9
ENDBRANCH  13  11
TORSDOF 6
ENDMDL
