MODEL 1
REMARK VINA RESULT:     -11.7      0.000      0.000
REMARK  Name = 
REMARK  4 active torsions:
REMARK  status: ('A' for Active; 'I' for Inactive)
REMARK    1  A    between atoms: C_4  and  N_18
REMARK    2  A    between atoms: C_6  and  C_7
REMARK    3  A    between atoms: C_9  and  C_12
REMARK    4  A    between atoms: N_21  and  C_22
REMARK                            x       y       z     vdW  Elec       q    Type
REMARK                         _______ _______ _______ _____ _____    ______ ____
ROOT
ATOM      1  C   UNL     1       0.072  -0.229  23.594  0.00  0.00    +0.090 C 
ATOM      2  N   UNL     1      -0.186   0.233  24.227  0.00  0.00    -0.264 NA
ATOM      3  C   UNL     1       0.101   0.979  24.432  0.00  0.00    +0.094 C 
ATOM      4  C   UNL     1      -0.312   1.236  25.098  0.00  0.00    +0.115 C 
ATOM      5  C   UNL     1      -0.854   0.649  25.304  0.00  0.00    +0.049 C 
ATOM      6  C   UNL     1      -0.776   0.030  24.766  0.00  0.00    +0.139 C 
ENDROOT
BRANCH   6   7
ATOM      7  C   UNL     1      -1.212  -0.671  24.767  0.00  0.00    +0.251 A 
ATOM      8  N   UNL     1      -1.985  -0.761  24.494  0.00  0.00    -0.190 NA
ATOM      9  C   UNL     1      -2.202  -1.551  24.599  0.00  0.00    +0.203 A 
ATOM     10  N   UNL     1      -1.563  -1.948  24.937  0.00  0.00    -0.056 NA
ATOM     11  O   UNL     1      -0.951  -1.405  25.040  0.00  0.00    -0.336 OA
BRANCH   9  12
ATOM     12  C   UNL     1      -2.930  -1.884  24.401  0.00  0.00    +0.042 A 
ATOM     13  C   UNL     1      -3.047  -2.697  24.477  0.00  0.00    +0.024 A 
ATOM     14  C   UNL     1      -3.775  -3.029  24.279  0.00  0.00    +0.099 A 
ATOM     15  N   UNL     1      -4.388  -2.548  24.005  0.00  0.00    -0.242 NA
ATOM     16  C   UNL     1      -4.271  -1.735  23.929  0.00  0.00    +0.099 A 
ATOM     17  C   UNL     1      -3.542  -1.403  24.127  0.00  0.00    +0.024 A 
ENDBRANCH   9  12
ENDBRANCH   6   7
BRANCH   4  18
ATOM     18  N   UNL     1      -0.203   1.955  25.489  0.00  0.00    -0.187 NA
ATOM     19  C   UNL     1      -0.670   2.605  25.295  0.00  0.00    +0.343 C 
ATOM     20  O   UNL     1      -1.248   2.539  24.710  0.00  0.00    -0.249 OA
ATOM     21  N   UNL     1      -0.561   3.324  25.686  0.00  0.00    -0.161 NA
BRANCH  21  22
ATOM     22  C   UNL     1      -1.029   3.974  25.492  0.00  0.00    +0.075 A 
ATOM     23  C   UNL     1      -0.721   4.577  25.018  0.00  0.00    +0.017 A 
ATOM     24  C   UNL     1      -1.188   5.227  24.823  0.00  0.00    +0.001 A 
ATOM     25  C   UNL     1      -1.964   5.277  25.101  0.00  0.00    +0.000 A 
ATOM     26  C   UNL     1      -2.271   4.675  25.575  0.00  0.00    +0.001 A 
ATOM     27  C   UNL     1      -1.804   4.024  25.769  0.00  0.00    +0.017 A 
ENDBRANCH  21  22
ENDBRANCH   4  18
TORSDOF 4
ENDMDL
MODEL 2
REMARK VINA RESULT:     -11.5      0.846      5.510
REMARK  Name = 
REMARK  4 active torsions:
REMARK  status: ('A' for Active; 'I' for Inactive)
REMARK    1  A    between atoms: C_4  and  N_18
REMARK    2  A    between atoms: C_6  and  C_7
REMARK    3  A    between atoms: C_9  and  C_12
REMARK    4  A    between atoms: N_21  and  C_22
REMARK                            x       y       z     vdW  Elec       q    Type
REMARK                         _______ _______ _______ _____ _____    ______ ____
ROOT
ATOM      1  C   UNL     1       0.412   1.002  24.010  0.00  0.00    +0.090 C 
ATOM      2  N   UNL     1      -0.154   0.674  24.512  0.00  0.00    -0.264 NA
ATOM      3  C   UNL     1      -0.410  -0.111  24.508  0.00  0.00    +0.094 C 
ATOM      4  C   UNL     1      -0.978  -0.196  25.099  0.00  0.00    +0.115 C 
ATOM      5  C   UNL     1      -1.074   0.535  25.469  0.00  0.00    +0.049 C 
ATOM      6  C   UNL     1      -0.565   1.073  25.106  0.00  0.00    +0.139 C 
ENDROOT
BRANCH   6   7
ATOM      7  C   UNL     1      -0.481   1.870  25.303  0.00  0.00    +0.251 A 
ATOM      8  N   UNL     1      -0.991   2.479  25.084  0.00  0.00    -0.190 NA
ATOM      9  C   UNL     1      -0.697   3.184  25.399  0.00  0.00    +0.203 A 
ATOM     10  N   UNL     1      -0.005   3.009  25.812  0.00  0.00    -0.056 NA
ATOM     11  O   UNL     1       0.129   2.197  25.752  0.00  0.00    -0.336 OA
BRANCH   9  12
ATOM     12  C   UNL     1      -1.036   3.931  25.315  0.00  0.00    +0.042 A 
ATOM     13  C   UNL     1      -0.611   4.539  24.953  0.00  0.00    +0.024 A 
ATOM     14  C   UNL     1      -0.951   5.285  24.870  0.00  0.00    +0.099 A 
ATOM     15  N   UNL     1      -1.716   5.425  25.148  0.00  0.00    -0.242 NA
ATOM     16  C   UNL     1      -2.140   4.817  25.509  0.00  0.00    +0.099 A 
ATOM     17  C   UNL     1      -1.800   4.070  25.592  0.00  0.00    +0.024 A 
ENDBRANCH   9  12
ENDBRANCH   6   7
BRANCH   4  18
ATOM     18  N   UNL     1      -1.381  -0.891  25.289  0.00  0.00    -0.187 NA
ATOM     19  C   UNL     1      -2.057  -1.104  24.866  0.00  0.00    +0.343 C 
ATOM     20  O   UNL     1      -2.331  -0.623  24.255  0.00  0.00    -0.249 OA
ATOM     21  N   UNL     1      -2.460  -1.799  25.055  0.00  0.00    -0.161 NA
BRANCH  21  22
ATOM     22  C   UNL     1      -3.135  -2.012  24.633  0.00  0.00    +0.075 A 
ATOM     23  C   UNL     1      -3.179  -2.752  24.271  0.00  0.00    +0.017 A 
ATOM     24  C   UNL     1      -3.854  -2.966  23.848  0.00  0.00    +0.001 A 
ATOM     25  C   UNL     1      -4.487  -2.439  23.788  0.00  0.00    +0.000 A 
ATOM     26  C   UNL     1      -4.443  -1.699  24.150  0.00  0.00    +0.001 A 
ATOM     27  C   UNL     1      -3.767  -1.486  24.572  0.00  0.00    +0.017 A 
ENDBRANCH  21  22
ENDBRANCH   4  18
TORSDOF 4
ENDMDL
MODEL 3
REMARK VINA RESULT:     -11.2      2.173      6.170
REMARK  Name = 
REMARK  4 active torsions:
REMARK  status: ('A' for Active; 'I' for Inactive)
REMARK    1  A    between atoms: C_4  and  N_18
REMARK    2  A    between atoms: C_6  and  C_7
REMARK    3  A    between atoms: C_9  and  C_12
REMARK    4  A    between atoms: N_21  and  C_22
REMARK                            x       y       z     vdW  Elec       q    Type
REMARK                         _______ _______ _______ _____ _____    ______ ____
ROOT
ATOM      1  C   UNL     1      -5.425   2.584  25.823  0.00  0.00    +0.090 C 
ATOM      2  N   UNL     1      -4.949   2.106  25.349  0.00  0.00    -0.264 NA
ATOM      3  C   UNL     1      -5.170   1.387  25.009  0.00  0.00    +0.094 C 
ATOM      4  C   UNL     1      -4.526   1.099  24.581  0.00  0.00    +0.115 C 
ATOM      5  C   UNL     1      -3.908   1.640  24.657  0.00  0.00    +0.049 C 
ATOM      6  C   UNL     1      -4.169   2.262  25.131  0.00  0.00    +0.139 C 
ENDROOT
BRANCH   6   7
ATOM      7  C   UNL     1      -3.728   2.924  25.349  0.00  0.00    +0.251 A 
ATOM      8  N   UNL     1      -3.001   3.148  25.031  0.00  0.00    -0.190 NA
ATOM      9  C   UNL     1      -2.760   3.842  25.409  0.00  0.00    +0.203 A 
ATOM     10  N   UNL     1      -3.339   4.046  25.960  0.00  0.00    -0.056 NA
ATOM     11  O   UNL     1      -3.938   3.479  25.923  0.00  0.00    -0.336 OA
BRANCH   9  12
ATOM     12  C   UNL     1      -2.063   4.257  25.262  0.00  0.00    +0.042 A 
ATOM     13  C   UNL     1      -2.080   5.079  25.187  0.00  0.00    +0.024 A 
ATOM     14  C   UNL     1      -1.383   5.493  25.039  0.00  0.00    +0.099 A 
ATOM     15  N   UNL     1      -0.668   5.087  24.966  0.00  0.00    -0.242 NA
ATOM     16  C   UNL     1      -0.651   4.266  25.041  0.00  0.00    +0.099 A 
ATOM     17  C   UNL     1      -1.349   3.851  25.189  0.00  0.00    +0.024 A 
ENDBRANCH   9  12
ENDBRANCH   6   7
BRANCH   4  18
ATOM     18  N   UNL     1      -4.504   0.394  24.153  0.00  0.00    -0.187 NA
ATOM     19  C   UNL     1      -4.059  -0.243  24.430  0.00  0.00    +0.343 C 
ATOM     20  O   UNL     1      -3.636  -0.176  25.134  0.00  0.00    -0.249 OA
ATOM     21  N   UNL     1      -4.037  -0.948  24.002  0.00  0.00    -0.161 NA
BRANCH  21  22
ATOM     22  C   UNL     1      -3.592  -1.584  24.279  0.00  0.00    +0.075 A 
ATOM     23  C   UNL     1      -3.970  -2.241  24.606  0.00  0.00    +0.017 A 
ATOM     24  C   UNL     1      -3.526  -2.878  24.883  0.00  0.00    +0.001 A 
ATOM     25  C   UNL     1      -2.702  -2.859  24.834  0.00  0.00    +0.000 A 
ATOM     26  C   UNL     1      -2.324  -2.202  24.507  0.00  0.00    +0.001 A 
ATOM     27  C   UNL     1      -2.769  -1.566  24.230  0.00  0.00    +0.017 A 
ENDBRANCH  21  22
ENDBRANCH   4  18
TORSDOF 4
ENDMDL
MODEL 4
REMARK VINA RESULT:     -11.0      2.206      2.836
REMARK  Name = 
REMARK  4 active torsions:
REMARK  status: ('A' for Active; 'I' for Inactive)
REMARK    1  A    between atoms: C_4  and  N_18
REMARK    2  A    between atoms: C_6  and  C_7
REMARK    3  A    between atoms: C_9  and  C_12
REMARK    4  A    between atoms: N_21  and  C_22
REMARK                            x       y       z     vdW  Elec       q    Type
REMARK                         _______ _______ _______ _____ _____    ______ ____
ROOT
ATOM      1  C   UNL     1      -5.668   1.584  24.702  0.00  0.00    +0.090 C 
ATOM      2  N   UNL     1      -4.925   1.849  24.945  0.00  0.00    -0.264 NA
ATOM      3  C   UNL     1      -4.766   2.567  25.321  0.00  0.00    +0.094 C 
ATOM      4  C   UNL     1      -3.955   2.605  25.462  0.00  0.00    +0.115 C 
ATOM      5  C   UNL     1      -3.613   1.912  25.174  0.00  0.00    +0.049 C 
ATOM      6  C   UNL     1      -4.212   1.445  24.854  0.00  0.00    +0.139 C 
ENDROOT
BRANCH   6   7
ATOM      7  C   UNL     1      -4.116   0.704  24.505  0.00  0.00    +0.251 A 
ATOM      8  N   UNL     1      -4.013  -0.010  24.905  0.00  0.00    -0.190 NA
ATOM      9  C   UNL     1      -3.939  -0.609  24.342  0.00  0.00    +0.203 A 
ATOM     10  N   UNL     1      -3.996  -0.265  23.594  0.00  0.00    -0.056 NA
ATOM     11  O   UNL     1      -4.105   0.547  23.695  0.00  0.00    -0.336 OA
BRANCH   9  12
ATOM     12  C   UNL     1      -3.828  -1.411  24.499  0.00  0.00    +0.042 A 
ATOM     13  C   UNL     1      -3.443  -1.647  25.189  0.00  0.00    +0.024 A 
ATOM     14  C   UNL     1      -3.332  -2.449  25.346  0.00  0.00    +0.099 A 
ATOM     15  N   UNL     1      -3.606  -3.016  24.812  0.00  0.00    -0.242 NA
ATOM     16  C   UNL     1      -3.991  -2.780  24.121  0.00  0.00    +0.099 A 
ATOM     17  C   UNL     1      -4.101  -1.978  23.965  0.00  0.00    +0.024 A 
ENDBRANCH   9  12
ENDBRANCH   6   7
BRANCH   4  18
ATOM     18  N   UNL     1      -3.555   3.228  25.828  0.00  0.00    -0.187 NA
ATOM     19  C   UNL     1      -2.909   3.578  25.455  0.00  0.00    +0.343 C 
ATOM     20  O   UNL     1      -2.661   3.308  24.717  0.00  0.00    -0.249 OA
ATOM     21  N   UNL     1      -2.509   4.201  25.821  0.00  0.00    -0.161 NA
BRANCH  21  22
ATOM     22  C   UNL     1      -1.863   4.551  25.448  0.00  0.00    +0.075 A 
ATOM     23  C   UNL     1      -1.917   5.327  25.172  0.00  0.00    +0.017 A 
ATOM     24  C   UNL     1      -1.271   5.678  24.799  0.00  0.00    +0.001 A 
ATOM     25  C   UNL     1      -0.570   5.254  24.701  0.00  0.00    +0.000 A 
ATOM     26  C   UNL     1      -0.515   4.479  24.978  0.00  0.00    +0.001 A 
ATOM     27  C   UNL     1      -1.162   4.128  25.351  0.00  0.00    +0.017 A 
ENDBRANCH  21  22
ENDBRANCH   4  18
TORSDOF 4
ENDMDL
MODEL 5
REMARK VINA RESULT:      -8.5     15.732     17.723
REMARK  Name = 
REMARK  4 active torsions:
REMARK  status: ('A' for Active; 'I' for Inactive)
REMARK    1  A    between atoms: C_4  and  N_18
REMARK    2  A    between atoms: C_6  and  C_7
REMARK    3  A    between atoms: C_9  and  C_12
REMARK    4  A    between atoms: N_21  and  C_22
REMARK                            x       y       z     vdW  Elec       q    Type
REMARK                         _______ _______ _______ _____ _____    ______ ____
ROOT
ATOM      1  C   UNL     1      11.291   6.872  20.792  0.00  0.00    +0.090 C 
ATOM      2  N   UNL     1      11.992   7.307  20.768  0.00  0.00    -0.264 NA
ATOM      3  C   UNL     1      12.626   7.234  21.291  0.00  0.00    +0.094 C 
ATOM      4  C   UNL     1      13.207   7.772  21.062  0.00  0.00    +0.115 C 
ATOM      5  C   UNL     1      12.932   8.178  20.399  0.00  0.00    +0.049 C 
ATOM      6  C   UNL     1      12.181   7.890  20.217  0.00  0.00    +0.139 C 
ENDROOT
BRANCH   6   7
ATOM      7  C   UNL     1      11.703   8.142  19.593  0.00  0.00    +0.251 A 
ATOM      8  N   UNL     1      11.929   8.198  18.802  0.00  0.00    -0.190 NA
ATOM      9  C   UNL     1      11.281   8.473  18.370  0.00  0.00    +0.203 A 
ATOM     10  N   UNL     1      10.655   8.586  18.896  0.00  0.00    -0.056 NA
ATOM     11  O   UNL     1      10.916   8.382  19.651  0.00  0.00    -0.336 OA
BRANCH   9  12
ATOM     12  C   UNL     1      11.262   8.609  17.558  0.00  0.00    +0.042 A 
ATOM     13  C   UNL     1      10.580   8.441  17.126  0.00  0.00    +0.024 A 
ATOM     14  C   UNL     1      10.562   8.578  16.313  0.00  0.00    +0.099 A 
ATOM     15  N   UNL     1      11.227   8.884  15.930  0.00  0.00    -0.242 NA
ATOM     16  C   UNL     1      11.910   9.052  16.362  0.00  0.00    +0.099 A 
ATOM     17  C   UNL     1      11.927   8.915  17.176  0.00  0.00    +0.024 A 
ENDBRANCH   9  12
ENDBRANCH   6   7
BRANCH   4  18
ATOM     18  N   UNL     1      13.936   7.886  21.433  0.00  0.00    -0.187 NA
ATOM     19  C   UNL     1      14.620   7.566  21.102  0.00  0.00    +0.343 C 
ATOM     20  O   UNL     1      14.578   7.132  20.402  0.00  0.00    -0.249 OA
ATOM     21  N   UNL     1      15.349   7.679  21.473  0.00  0.00    -0.161 NA
BRANCH  21  22
ATOM     22  C   UNL     1      16.034   7.359  21.142  0.00  0.00    +0.075 A 
ATOM     23  C   UNL     1      16.481   7.803  20.609  0.00  0.00    +0.017 A 
ATOM     24  C   UNL     1      17.165   7.484  20.278  0.00  0.00    +0.001 A 
ATOM     25  C   UNL     1      17.403   6.720  20.479  0.00  0.00    +0.000 A 
ATOM     26  C   UNL     1      16.956   6.276  21.012  0.00  0.00    +0.001 A 
ATOM     27  C   UNL     1      16.272   6.596  21.343  0.00  0.00    +0.017 A 
ENDBRANCH  21  22
ENDBRANCH   4  18
TORSDOF 4
ENDMDL
MODEL 6
REMARK VINA RESULT:      -8.0     15.769     17.755
REMARK  Name = 
REMARK  4 active torsions:
REMARK  status: ('A' for Active; 'I' for Inactive)
REMARK    1  A    between atoms: C_4  and  N_18
REMARK    2  A    between atoms: C_6  and  C_7
REMARK    3  A    between atoms: C_9  and  C_12
REMARK    4  A    between atoms: N_21  and  C_22
REMARK                            x       y       z     vdW  Elec       q    Type
REMARK                         _______ _______ _______ _____ _____    ______ ____
ROOT
ATOM      1  C   UNL     1      13.622   8.332  17.177  0.00  0.00    +0.090 C 
ATOM      2  N   UNL     1      13.198   8.067  17.833  0.00  0.00    -0.264 NA
ATOM      3  C   UNL     1      12.413   8.253  18.010  0.00  0.00    +0.094 C 
ATOM      4  C   UNL     1      12.214   7.872  18.713  0.00  0.00    +0.115 C 
ATOM      5  C   UNL     1      12.875   7.451  18.971  0.00  0.00    +0.049 C 
ATOM      6  C   UNL     1      13.483   7.572  18.427  0.00  0.00    +0.139 C 
ENDROOT
BRANCH   6   7
ATOM      7  C   UNL     1      14.243   7.253  18.470  0.00  0.00    +0.251 A 
ATOM      8  N   UNL     1      14.741   7.274  19.127  0.00  0.00    -0.190 NA
ATOM      9  C   UNL     1      15.444   6.891  18.926  0.00  0.00    +0.203 A 
ATOM     10  N   UNL     1      15.380   6.634  18.145  0.00  0.00    -0.056 NA
ATOM     11  O   UNL     1      14.638   6.857  17.863  0.00  0.00    -0.336 OA
BRANCH   9  12
ATOM     12  C   UNL     1      16.096   6.785  19.420  0.00  0.00    +0.042 A 
ATOM     13  C   UNL     1      16.303   7.371  19.962  0.00  0.00    +0.024 A 
ATOM     14  C   UNL     1      16.955   7.264  20.455  0.00  0.00    +0.099 A 
ATOM     15  N   UNL     1      17.401   6.571  20.407  0.00  0.00    -0.242 NA
ATOM     16  C   UNL     1      17.194   5.985  19.864  0.00  0.00    +0.099 A 
ATOM     17  C   UNL     1      16.541   6.092  19.371  0.00  0.00    +0.024 A 
ENDBRANCH   9  12
ENDBRANCH   6   7
BRANCH   4  18
ATOM     18  N   UNL     1      11.482   7.905  19.093  0.00  0.00    -0.187 NA
ATOM     19  C   UNL     1      11.445   8.036  19.906  0.00  0.00    +0.343 C 
ATOM     20  O   UNL     1      12.139   8.132  20.341  0.00  0.00    -0.249 OA
ATOM     21  N   UNL     1      10.713   8.069  20.286  0.00  0.00    -0.161 NA
BRANCH  21  22
ATOM     22  C   UNL     1      10.676   8.199  21.099  0.00  0.00    +0.075 A 
ATOM     23  C   UNL     1      10.563   7.564  21.614  0.00  0.00    +0.017 A 
ATOM     24  C   UNL     1      10.527   7.693  22.427  0.00  0.00    +0.001 A 
ATOM     25  C   UNL     1      10.603   8.458  22.728  0.00  0.00    +0.000 A 
ATOM     26  C   UNL     1      10.716   9.094  22.213  0.00  0.00    +0.001 A 
ATOM     27  C   UNL     1      10.752   8.963  21.400  0.00  0.00    +0.017 A 
ENDBRANCH  21  22
ENDBRANCH   4  18
TORSDOF 4
ENDMDL
