MODEL 1
REMARK VINA RESULT:     -11.1      0.000      0.000
REMARK  Name = 
REMARK  4 active torsions:
REMARK  status: ('A' for Active; 'I' for Inactive)
REMARK    1  A    between atoms: C_5  and  S_8
REMARK    2  A    between atoms: S_8  and  N_11
REMARK    3  A    between atoms: C_16  and  O_18
REMARK    4  A    between atoms: O_18  and  C_19
REMARK                            x       y       z     vdW  Elec       q    Type
REMARK                         _______ _______ _______ _____ _____    ______ ____
ROOT
ATOM     11  N   UNL     1      -4.326   0.966  24.708  0.00  0.00    -0.149 NA
ATOM     12  C   UNL     1      -5.093   1.160  24.945  0.00  0.00    +0.128 C 
ATOM     13  C   UNL     1      -5.441   1.906  25.000  0.00  0.00    +0.161 C 
ATOM     14  O   UNL     1      -5.109   2.643  24.832  0.00  0.00    -0.348 OA
ATOM     15  C   UNL     1      -4.347   2.815  24.567  0.00  0.00    +0.187 C 
ATOM     16  C   UNL     1      -3.728   2.293  24.405  0.00  0.00    +0.215 C 
ATOM     17  C   UNL     1      -3.719   1.470  24.468  0.00  0.00    +0.142 C 
ENDROOT
BRANCH  11   8
ATOM      8  S   UNL     1      -4.143   0.161  24.712  0.00  0.00    +0.063 S 
ATOM      9  O   UNL     1      -4.054   0.178  23.892  0.00  0.00    -0.153 OA
ATOM     10  O   UNL     1      -4.233   0.145  25.532  0.00  0.00    -0.153 OA
BRANCH   8   5
ATOM      1  F   UNL     1      -3.411  -3.056  24.728  0.00  0.00    -0.204 F 
ATOM      2  C   UNL     1      -3.594  -2.252  24.724  0.00  0.00    +0.140 A 
ATOM      3  C   UNL     1      -3.399  -1.781  25.373  0.00  0.00    +0.031 A 
ATOM      4  C   UNL     1      -3.583  -0.976  25.370  0.00  0.00    +0.022 A 
ATOM      5  C   UNL     1      -3.960  -0.643  24.716  0.00  0.00    +0.122 A 
ATOM      6  C   UNL     1      -4.154  -1.113  24.067  0.00  0.00    +0.022 A 
ATOM      7  C   UNL     1      -3.971  -1.917  24.071  0.00  0.00    +0.031 A 
ENDBRANCH   8   5
ENDBRANCH  11   8
BRANCH  16  18
ATOM     18  O   UNL     1      -3.026   2.639  24.146  0.00  0.00    -0.459 OA
BRANCH  18  19
ATOM     19  C   UNL     1      -2.541   3.039  24.680  0.00  0.00    +0.245 A 
ATOM     20  C   UNL     1      -2.654   3.845  24.816  0.00  0.00    +0.156 A 
ATOM     21  N   UNL     1      -2.169   4.244  25.351  0.00  0.00    -0.236 NA
ATOM     22  C   UNL     1      -1.572   3.839  25.749  0.00  0.00    +0.120 A 
ATOM     23  C   UNL     1      -1.458   3.033  25.612  0.00  0.00    +0.123 A 
ATOM     24  N   UNL     1      -1.943   2.633  25.078  0.00  0.00    -0.207 NA
ENDBRANCH  18  19
ENDBRANCH  16  18
TORSDOF 4
ENDMDL
MODEL 2
REMARK VINA RESULT:     -10.6      1.286      2.241
REMARK  Name = 
REMARK  4 active torsions:
REMARK  status: ('A' for Active; 'I' for Inactive)
REMARK    1  A    between atoms: C_5  and  S_8
REMARK    2  A    between atoms: S_8  and  N_11
REMARK    3  A    between atoms: C_16  and  O_18
REMARK    4  A    between atoms: O_18  and  C_19
REMARK                            x       y       z     vdW  Elec       q    Type
REMARK                         _______ _______ _______ _____ _____    ______ ____
ROOT
ATOM     11  N   UNL     1      -2.820   0.479  24.689  0.00  0.00    -0.149 NA
ATOM     12  C   UNL     1      -2.071   0.591  25.018  0.00  0.00    +0.128 C 
ATOM     13  C   UNL     1      -1.677   1.301  25.169  0.00  0.00    +0.161 C 
ATOM     14  O   UNL     1      -1.933   2.072  25.029  0.00  0.00    -0.348 OA
ATOM     15  C   UNL     1      -2.647   2.326  24.703  0.00  0.00    +0.187 C 
ATOM     16  C   UNL     1      -3.282   1.870  24.437  0.00  0.00    +0.215 C 
ATOM     17  C   UNL     1      -3.358   1.048  24.430  0.00  0.00    +0.142 C 
ENDROOT
BRANCH  11   8
ATOM      8  S   UNL     1      -3.061  -0.305  24.608  0.00  0.00    +0.063 S 
ATOM      9  O   UNL     1      -3.267  -0.324  25.407  0.00  0.00    -0.153 OA
ATOM     10  O   UNL     1      -2.855  -0.286  23.810  0.00  0.00    -0.153 OA
BRANCH   8   5
ATOM      1  F   UNL     1      -4.027  -3.444  24.285  0.00  0.00    -0.204 F 
ATOM      2  C   UNL     1      -3.785  -2.660  24.366  0.00  0.00    +0.140 A 
ATOM      3  C   UNL     1      -4.162  -2.065  23.934  0.00  0.00    +0.031 A 
ATOM      4  C   UNL     1      -3.920  -1.280  24.015  0.00  0.00    +0.022 A 
ATOM      5  C   UNL     1      -3.302  -1.090  24.528  0.00  0.00    +0.122 A 
ATOM      6  C   UNL     1      -2.927  -1.683  24.959  0.00  0.00    +0.022 A 
ATOM      7  C   UNL     1      -3.168  -2.468  24.878  0.00  0.00    +0.031 A 
ENDBRANCH   8   5
ENDBRANCH  11   8
BRANCH  16  18
ATOM     18  O   UNL     1      -3.924   2.291  24.137  0.00  0.00    -0.459 OA
BRANCH  18  19
ATOM     19  C   UNL     1      -4.460   2.650  24.652  0.00  0.00    +0.245 A 
ATOM     20  C   UNL     1      -4.329   3.422  24.910  0.00  0.00    +0.156 A 
ATOM     21  N   UNL     1      -4.864   3.780  25.426  0.00  0.00    -0.236 NA
ATOM     22  C   UNL     1      -5.530   3.367  25.682  0.00  0.00    +0.120 A 
ATOM     23  C   UNL     1      -5.661   2.595  25.424  0.00  0.00    +0.123 A 
ATOM     24  N   UNL     1      -5.125   2.236  24.909  0.00  0.00    -0.207 NA
ENDBRANCH  18  19
ENDBRANCH  16  18
TORSDOF 4
ENDMDL
MODEL 3
REMARK VINA RESULT:     -10.2      2.222      4.540
REMARK  Name = 
REMARK  4 active torsions:
REMARK  status: ('A' for Active; 'I' for Inactive)
REMARK    1  A    between atoms: C_5  and  S_8
REMARK    2  A    between atoms: S_8  and  N_11
REMARK    3  A    between atoms: C_16  and  O_18
REMARK    4  A    between atoms: O_18  and  C_19
REMARK                            x       y       z     vdW  Elec       q    Type
REMARK                         _______ _______ _______ _____ _____    ______ ____
ROOT
ATOM     11  N   UNL     1      -3.602   2.827  25.058  0.00  0.00    -0.149 NA
ATOM     12  C   UNL     1      -4.270   3.115  25.449  0.00  0.00    +0.128 C 
ATOM     13  C   UNL     1      -5.003   2.748  25.553  0.00  0.00    +0.161 C 
ATOM     14  O   UNL     1      -5.249   2.005  25.291  0.00  0.00    -0.348 OA
ATOM     15  C   UNL     1      -4.822   1.445  24.862  0.00  0.00    +0.187 C 
ATOM     16  C   UNL     1      -4.045   1.488  24.587  0.00  0.00    +0.215 C 
ATOM     17  C   UNL     1      -3.502   2.104  24.675  0.00  0.00    +0.142 C 
ENDROOT
BRANCH  11   8
ATOM      8  S   UNL     1      -2.949   3.331  25.050  0.00  0.00    +0.063 S 
ATOM      9  O   UNL     1      -2.747   3.081  25.810  0.00  0.00    -0.153 OA
ATOM     10  O   UNL     1      -3.151   3.581  24.290  0.00  0.00    -0.153 OA
BRANCH   8   5
ATOM      1  F   UNL     1      -0.334   5.343  25.016  0.00  0.00    -0.204 F 
ATOM      2  C   UNL     1      -0.988   4.840  25.025  0.00  0.00    +0.140 A 
ATOM      3  C   UNL     1      -1.739   5.142  25.184  0.00  0.00    +0.031 A 
ATOM      4  C   UNL     1      -2.393   4.639  25.193  0.00  0.00    +0.022 A 
ATOM      5  C   UNL     1      -2.295   3.834  25.041  0.00  0.00    +0.122 A 
ATOM      6  C   UNL     1      -1.545   3.532  24.882  0.00  0.00    +0.022 A 
ATOM      7  C   UNL     1      -0.891   4.035  24.874  0.00  0.00    +0.031 A 
ENDBRANCH   8   5
ENDBRANCH  11   8
BRANCH  16  18
ATOM     18  O   UNL     1      -3.775   0.830  24.170  0.00  0.00    -0.459 OA
BRANCH  18  19
ATOM     19  C   UNL     1      -3.644   0.117  24.564  0.00  0.00    +0.245 A 
ATOM     20  C   UNL     1      -4.201  -0.489  24.517  0.00  0.00    +0.156 A 
ATOM     21  N   UNL     1      -4.070  -1.201  24.911  0.00  0.00    -0.236 NA
ATOM     22  C   UNL     1      -3.382  -1.308  25.352  0.00  0.00    +0.120 A 
ATOM     23  C   UNL     1      -2.824  -0.703  25.400  0.00  0.00    +0.123 A 
ATOM     24  N   UNL     1      -2.955   0.010  25.006  0.00  0.00    -0.207 NA
ENDBRANCH  18  19
ENDBRANCH  16  18
TORSDOF 4
ENDMDL
MODEL 4
REMARK VINA RESULT:     -10.1      2.343      3.812
REMARK  Name = 
REMARK  4 active torsions:
REMARK  status: ('A' for Active; 'I' for Inactive)
REMARK    1  A    between atoms: C_5  and  S_8
REMARK    2  A    between atoms: S_8  and  N_11
REMARK    3  A    between atoms: C_16  and  O_18
REMARK    4  A    between atoms: O_18  and  C_19
REMARK                            x       y       z     vdW  Elec       q    Type
REMARK                         _______ _______ _______ _____ _____    ______ ____
ROOT
ATOM     11  N   UNL     1      -3.845  -0.154  24.677  0.00  0.00    -0.149 NA
ATOM     12  C   UNL     1      -4.269  -0.739  24.276  0.00  0.00    +0.128 C 
ATOM     13  C   UNL     1      -4.023  -1.499  24.065  0.00  0.00    +0.161 C 
ATOM     14  O   UNL     1      -3.295  -1.861  24.202  0.00  0.00    -0.348 OA
ATOM     15  C   UNL     1      -2.631  -1.553  24.584  0.00  0.00    +0.187 C 
ATOM     16  C   UNL     1      -2.532  -0.808  24.924  0.00  0.00    +0.215 C 
ATOM     17  C   UNL     1      -3.073  -0.185  24.965  0.00  0.00    +0.142 C 
ENDROOT
BRANCH  11   8
ATOM      8  S   UNL     1      -4.248   0.554  24.806  0.00  0.00    +0.063 S 
ATOM      9  O   UNL     1      -4.070   0.795  24.037  0.00  0.00    -0.153 OA
ATOM     10  O   UNL     1      -4.426   0.313  25.575  0.00  0.00    -0.153 OA
BRANCH   8   5
ATOM      1  F   UNL     1      -5.858   3.387  25.323  0.00  0.00    -0.204 F 
ATOM      2  C   UNL     1      -5.456   2.679  25.193  0.00  0.00    +0.140 A 
ATOM      3  C   UNL     1      -5.753   1.973  25.501  0.00  0.00    +0.031 A 
ATOM      4  C   UNL     1      -5.351   1.264  25.372  0.00  0.00    +0.022 A 
ATOM      5  C   UNL     1      -4.650   1.262  24.935  0.00  0.00    +0.122 A 
ATOM      6  C   UNL     1      -4.353   1.967  24.628  0.00  0.00    +0.022 A 
ATOM      7  C   UNL     1      -4.756   2.676  24.757  0.00  0.00    +0.031 A 
ENDBRANCH   8   5
ENDBRANCH  11   8
BRANCH  16  18
ATOM     18  O   UNL     1      -1.796  -0.665  25.267  0.00  0.00    -0.459 OA
BRANCH  18  19
ATOM     19  C   UNL     1      -1.150  -0.471  24.793  0.00  0.00    +0.245 A 
ATOM     20  C   UNL     1      -0.657  -1.066  24.504  0.00  0.00    +0.156 A 
ATOM     21  N   UNL     1      -0.011  -0.871  24.030  0.00  0.00    -0.236 NA
ATOM     22  C   UNL     1       0.142  -0.082  23.844  0.00  0.00    +0.120 A 
ATOM     23  C   UNL     1      -0.350   0.513  24.133  0.00  0.00    +0.123 A 
ATOM     24  N   UNL     1      -0.997   0.318  24.608  0.00  0.00    -0.207 NA
ENDBRANCH  18  19
ENDBRANCH  16  18
TORSDOF 4
ENDMDL
MODEL 5
REMARK VINA RESULT:      -9.9      2.643      5.077
REMARK  Name = 
REMARK  4 active torsions:
REMARK  status: ('A' for Active; 'I' for Inactive)
REMARK    1  A    between atoms: C_5  and  S_8
REMARK    2  A    between atoms: S_8  and  N_11
REMARK    3  A    between atoms: C_16  and  O_18
REMARK    4  A    between atoms: O_18  and  C_19
REMARK                            x       y       z     vdW  Elec       q    Type
REMARK                         _______ _______ _______ _____ _____    ______ ____
ROOT
ATOM     11  N   UNL     1      -1.089   1.386  24.750  0.00  0.00    -0.149 NA
ATOM     12  C   UNL     1      -0.443   1.205  24.269  0.00  0.00    +0.128 C 
ATOM     13  C   UNL     1      -0.178   0.463  24.022  0.00  0.00    +0.161 C 
ATOM     14  O   UNL     1      -0.492  -0.280  24.195  0.00  0.00    -0.348 OA
ATOM     15  C   UNL     1      -1.150  -0.465  24.658  0.00  0.00    +0.187 C 
ATOM     16  C   UNL     1      -1.655   0.047  25.062  0.00  0.00    +0.215 C 
ATOM     17  C   UNL     1      -1.628   0.872  25.103  0.00  0.00    +0.142 C 
ENDROOT
BRANCH  11   8
ATOM      8  S   UNL     1      -1.210   2.189  24.898  0.00  0.00    +0.063 S 
ATOM      9  O   UNL     1      -1.550   2.275  24.151  0.00  0.00    -0.153 OA
ATOM     10  O   UNL     1      -0.871   2.103  25.645  0.00  0.00    -0.153 OA
BRANCH   8   5
ATOM      1  F   UNL     1      -1.698   5.399  25.488  0.00  0.00    -0.204 F 
ATOM      2  C   UNL     1      -1.576   4.596  25.341  0.00  0.00    +0.140 A 
ATOM      3  C   UNL     1      -0.872   4.343  24.991  0.00  0.00    +0.031 A 
ATOM      4  C   UNL     1      -0.750   3.540  24.844  0.00  0.00    +0.022 A 
ATOM      5  C   UNL     1      -1.332   2.991  25.045  0.00  0.00    +0.122 A 
ATOM      6  C   UNL     1      -2.035   3.244  25.394  0.00  0.00    +0.022 A 
ATOM      7  C   UNL     1      -2.157   4.047  25.541  0.00  0.00    +0.031 A 
ENDBRANCH   8   5
ENDBRANCH  11   8
BRANCH  16  18
ATOM     18  O   UNL     1      -2.269  -0.311  25.480  0.00  0.00    -0.459 OA
BRANCH  18  19
ATOM     19  C   UNL     1      -2.869  -0.706  25.075  0.00  0.00    +0.245 A 
ATOM     20  C   UNL     1      -2.844  -1.527  25.001  0.00  0.00    +0.156 A 
ATOM     21  N   UNL     1      -3.444  -1.923  24.596  0.00  0.00    -0.236 NA
ATOM     22  C   UNL     1      -4.068  -1.497  24.265  0.00  0.00    +0.120 A 
ATOM     23  C   UNL     1      -4.093  -0.676  24.339  0.00  0.00    +0.123 A 
ATOM     24  N   UNL     1      -3.493  -0.281  24.744  0.00  0.00    -0.207 NA
ENDBRANCH  18  19
ENDBRANCH  16  18
TORSDOF 4
ENDMDL
