MODEL 1
REMARK VINA RESULT:     -10.7      0.000      0.000
REMARK  Name = 
REMARK  5 active torsions:
REMARK  status: ('A' for Active; 'I' for Inactive)
REMARK    1  A    between atoms: O_2  and  C_3
REMARK    2  A    between atoms: C_8  and  C_9
REMARK    3  A    between atoms: C_9  and  N_10
REMARK    4  A    between atoms: C_15  and  C_16
REMARK    5  A    between atoms: C_18  and  C_21
REMARK                            x       y       z     vdW  Elec       q    Type
REMARK                         _______ _______ _______ _____ _____    ______ ____
ROOT
ATOM     10  N   UNL     1      -4.140   1.242  24.812  0.00  0.00    -0.260 NA
ATOM     11  C   UNL     1      -4.911   1.006  24.988  0.00  0.00    +0.106 C 
ATOM     12  C   UNL     1      -5.383   1.682  25.022  0.00  0.00    +0.170 C 
ATOM     13  O   UNL     1      -6.192   1.701  25.182  0.00  0.00    -0.222 OA
ATOM     14  C   UNL     1      -4.903   2.336  24.867  0.00  0.00    +0.060 C 
ATOM     15  C   UNL     1      -4.135   2.064  24.738  0.00  0.00    +0.140 C 
ENDROOT
BRANCH  15  16
ATOM     16  C   UNL     1      -3.478   2.532  24.564  0.00  0.00    +0.251 A 
ATOM     17  N   UNL     1      -3.038   2.970  25.107  0.00  0.00    -0.194 NA
ATOM     18  C   UNL     1      -2.434   3.352  24.696  0.00  0.00    +0.180 A 
ATOM     19  N   UNL     1      -2.500   3.150  23.898  0.00  0.00    -0.061 NA
ATOM     20  O   UNL     1      -3.146   2.644  23.817  0.00  0.00    -0.336 OA
BRANCH  18  21
ATOM     21  C   UNL     1      -1.863   3.849  25.024  0.00  0.00    +0.062 C 
ATOM     22  C   UNL     1      -1.104   3.964  25.328  0.00  0.00    +0.008 C 
ATOM     23  C   UNL     1      -1.632   4.597  25.289  0.00  0.00    +0.008 C 
ENDBRANCH  18  21
ENDBRANCH  15  16
BRANCH  10   9
ATOM      9  C   UNL     1      -3.489   0.744  24.726  0.00  0.00    +0.103 C 
BRANCH   9   8
ATOM      3  C   UNL     1      -3.121  -0.590  25.086  0.00  0.00    +0.136 A 
ATOM      4  C   UNL     1      -3.230  -1.403  25.017  0.00  0.00    +0.037 A 
ATOM      5  C   UNL     1      -3.818  -1.701  24.518  0.00  0.00    +0.003 A 
ATOM      6  C   UNL     1      -4.295  -1.182  24.090  0.00  0.00    -0.000 A 
ATOM      7  C   UNL     1      -4.185  -0.367  24.159  0.00  0.00    +0.000 A 
ATOM      8  C   UNL     1      -3.598  -0.070  24.657  0.00  0.00    +0.028 A 
BRANCH   3   2
ATOM      1  C   UNL     1      -1.896  -0.770  25.799  0.00  0.00    +0.252 C 
ATOM      2  O   UNL     1      -2.533  -0.293  25.584  0.00  0.00    -0.472 OA
ENDBRANCH   3   2
ENDBRANCH   9   8
ENDBRANCH  10   9
TORSDOF 5
ENDMDL
MODEL 2
REMARK VINA RESULT:     -10.4      1.109      3.870
REMARK  Name = 
REMARK  5 active torsions:
REMARK  status: ('A' for Active; 'I' for Inactive)
REMARK    1  A    between atoms: O_2  and  C_3
REMARK    2  A    between atoms: C_8  and  C_9
REMARK    3  A    between atoms: C_9  and  N_10
REMARK    4  A    between atoms: C_15  and  C_16
REMARK    5  A    between atoms: C_18  and  C_21
REMARK                            x       y       z     vdW  Elec       q    Type
REMARK                         _______ _______ _______ _____ _____    ______ ____
ROOT
ATOM     10  N   UNL     1      -3.603   2.551  25.085  0.00  0.00    -0.260 NA
ATOM     11  C   UNL     1      -3.998   3.196  25.417  0.00  0.00    +0.106 C 
ATOM     12  C   UNL     1      -4.806   3.032  25.406  0.00  0.00    +0.170 C 
ATOM     13  O   UNL     1      -5.405   3.527  25.684  0.00  0.00    -0.222 OA
ATOM     14  C   UNL     1      -4.911   2.287  25.068  0.00  0.00    +0.060 C 
ATOM     15  C   UNL     1      -4.167   1.990  24.870  0.00  0.00    +0.140 C 
ENDROOT
BRANCH  15  16
ATOM     16  C   UNL     1      -4.015   1.259  24.518  0.00  0.00    +0.251 A 
ATOM     17  N   UNL     1      -4.080   0.522  24.883  0.00  0.00    -0.194 NA
ATOM     18  C   UNL     1      -3.876  -0.055  24.330  0.00  0.00    +0.180 A 
ATOM     19  N   UNL     1      -3.686   0.325  23.622  0.00  0.00    -0.061 NA
ATOM     20  O   UNL     1      -3.772   1.137  23.739  0.00  0.00    -0.336 OA
BRANCH  18  21
ATOM     21  C   UNL     1      -3.865  -0.869  24.461  0.00  0.00    +0.062 C 
ATOM     22  C   UNL     1      -4.058  -1.635  24.221  0.00  0.00    +0.008 C 
ATOM     23  C   UNL     1      -3.651  -1.516  24.928  0.00  0.00    +0.008 C 
ENDBRANCH  18  21
ENDBRANCH  15  16
BRANCH  10   9
ATOM      9  C   UNL     1      -2.787   2.482  24.987  0.00  0.00    +0.103 C 
BRANCH   9   8
ATOM      3  C   UNL     1      -1.560   3.039  25.462  0.00  0.00    +0.136 A 
ATOM      4  C   UNL     1      -1.072   3.693  25.582  0.00  0.00    +0.037 A 
ATOM      5  C   UNL     1      -1.323   4.444  25.349  0.00  0.00    +0.003 A 
ATOM      6  C   UNL     1      -2.061   4.540  24.995  0.00  0.00    -0.000 A 
ATOM      7  C   UNL     1      -2.550   3.885  24.874  0.00  0.00    +0.000 A 
ATOM      8  C   UNL     1      -2.299   3.135  25.108  0.00  0.00    +0.028 A 
BRANCH   3   2
ATOM      1  C   UNL     1      -0.529   2.171  25.935  0.00  0.00    +0.252 C 
ATOM      2  O   UNL     1      -1.309   2.288  25.696  0.00  0.00    -0.472 OA
ENDBRANCH   3   2
ENDBRANCH   9   8
ENDBRANCH  10   9
TORSDOF 5
ENDMDL
MODEL 3
REMARK VINA RESULT:     -10.1      1.441      3.950
REMARK  Name = 
REMARK  5 active torsions:
REMARK  status: ('A' for Active; 'I' for Inactive)
REMARK    1  A    between atoms: O_2  and  C_3
REMARK    2  A    between atoms: C_8  and  C_9
REMARK    3  A    between atoms: C_9  and  N_10
REMARK    4  A    between atoms: C_15  and  C_16
REMARK    5  A    between atoms: C_18  and  C_21
REMARK                            x       y       z     vdW  Elec       q    Type
REMARK                         _______ _______ _______ _____ _____    ______ ____
ROOT
ATOM     10  N   UNL     1      -2.924   1.913  24.524  0.00  0.00    -0.260 NA
ATOM     11  C   UNL     1      -3.014   2.687  24.249  0.00  0.00    +0.106 C 
ATOM     12  C   UNL     1      -3.793   2.780  23.997  0.00  0.00    +0.170 C 
ATOM     13  O   UNL     1      -4.123   3.468  23.682  0.00  0.00    -0.222 OA
ATOM     14  C   UNL     1      -4.187   2.064  24.116  0.00  0.00    +0.060 C 
ATOM     15  C   UNL     1      -3.649   1.528  24.441  0.00  0.00    +0.140 C 
ENDROOT
BRANCH  15  16
ATOM     16  C   UNL     1      -3.810   0.745  24.647  0.00  0.00    +0.251 A 
ATOM     17  N   UNL     1      -3.746   0.091  24.150  0.00  0.00    -0.194 NA
ATOM     18  C   UNL     1      -3.958  -0.579  24.582  0.00  0.00    +0.180 A 
ATOM     19  N   UNL     1      -4.154  -0.338  25.347  0.00  0.00    -0.061 NA
ATOM     20  O   UNL     1      -4.062   0.481  25.386  0.00  0.00    -0.336 OA
BRANCH  18  21
ATOM     21  C   UNL     1      -3.973  -1.354  24.299  0.00  0.00    +0.062 C 
ATOM     22  C   UNL     1      -4.314  -1.935  23.823  0.00  0.00    +0.008 C 
ATOM     23  C   UNL     1      -3.657  -2.117  24.287  0.00  0.00    +0.008 C 
ENDBRANCH  18  21
ENDBRANCH  15  16
BRANCH  10   9
ATOM      9  C   UNL     1      -2.232   1.584  24.827  0.00  0.00    +0.103 C 
BRANCH   9   8
ATOM      3  C   UNL     1      -0.841   1.913  24.837  0.00  0.00    +0.136 A 
ATOM      4  C   UNL     1      -0.226   2.402  25.085  0.00  0.00    +0.037 A 
ATOM      5  C   UNL     1      -0.383   3.051  25.570  0.00  0.00    +0.003 A 
ATOM      6  C   UNL     1      -1.156   3.210  25.807  0.00  0.00    -0.000 A 
ATOM      7  C   UNL     1      -1.773   2.720  25.559  0.00  0.00    +0.000 A 
ATOM      8  C   UNL     1      -1.616   2.072  25.074  0.00  0.00    +0.028 A 
BRANCH   3   2
ATOM      1  C   UNL     1       0.095   1.068  24.165  0.00  0.00    +0.252 C 
ATOM      2  O   UNL     1      -0.684   1.264  24.352  0.00  0.00    -0.472 OA
ENDBRANCH   3   2
ENDBRANCH   9   8
ENDBRANCH  10   9
TORSDOF 5
ENDMDL
MODEL 4
REMARK VINA RESULT:     -10.1      1.597      4.439
REMARK  Name = 
REMARK  5 active torsions:
REMARK  status: ('A' for Active; 'I' for Inactive)
REMARK    1  A    between atoms: O_2  and  C_3
REMARK    2  A    between atoms: C_8  and  C_9
REMARK    3  A    between atoms: C_9  and  N_10
REMARK    4  A    between atoms: C_15  and  C_16
REMARK    5  A    between atoms: C_18  and  C_21
REMARK                            x       y       z     vdW  Elec       q    Type
REMARK                         _______ _______ _______ _____ _____    ______ ____
ROOT
ATOM     10  N   UNL     1      -2.572   0.987  24.983  0.00  0.00    -0.260 NA
ATOM     11  C   UNL     1      -1.932   1.508  24.986  0.00  0.00    +0.106 C 
ATOM     12  C   UNL     1      -1.253   1.076  25.165  0.00  0.00    +0.170 C 
ATOM     13  O   UNL     1      -0.487   1.380  25.226  0.00  0.00    -0.222 OA
ATOM     14  C   UNL     1      -1.472   0.288  25.273  0.00  0.00    +0.060 C 
ATOM     15  C   UNL     1      -2.287   0.233  25.161  0.00  0.00    +0.140 C 
ENDROOT
BRANCH  15  16
ATOM     16  C   UNL     1      -2.739  -0.456  25.217  0.00  0.00    +0.251 A 
ATOM     17  N   UNL     1      -2.880  -0.993  24.607  0.00  0.00    -0.194 NA
ATOM     18  C   UNL     1      -3.357  -1.597  24.905  0.00  0.00    +0.180 A 
ATOM     19  N   UNL     1      -3.509  -1.433  25.700  0.00  0.00    -0.061 NA
ATOM     20  O   UNL     1      -3.127  -0.728  25.892  0.00  0.00    -0.336 OA
BRANCH  18  21
ATOM     21  C   UNL     1      -3.632  -2.251  24.484  0.00  0.00    +0.062 C 
ATOM     22  C   UNL     1      -4.142  -2.576  23.922  0.00  0.00    +0.008 C 
ATOM     23  C   UNL     1      -3.599  -3.058  24.315  0.00  0.00    +0.008 C 
ENDBRANCH  18  21
ENDBRANCH  15  16
BRANCH  10   9
ATOM      9  C   UNL     1      -3.358   1.184  24.830  0.00  0.00    +0.103 C 
BRANCH   9   8
ATOM      3  C   UNL     1      -4.114   2.390  24.693  0.00  0.00    +0.136 A 
ATOM      4  C   UNL     1      -4.292   3.076  24.274  0.00  0.00    +0.037 A 
ATOM      5  C   UNL     1      -3.893   3.248  23.572  0.00  0.00    +0.003 A 
ATOM      6  C   UNL     1      -3.316   2.731  23.290  0.00  0.00    -0.000 A 
ATOM      7  C   UNL     1      -3.137   2.042  23.710  0.00  0.00    +0.000 A 
ATOM      8  C   UNL     1      -3.536   1.872  24.411  0.00  0.00    +0.028 A 
BRANCH   3   2
ATOM      1  C   UNL     1      -5.194   2.638  25.594  0.00  0.00    +0.252 C 
ATOM      2  O   UNL     1      -4.513   2.218  25.396  0.00  0.00    -0.472 OA
ENDBRANCH   3   2
ENDBRANCH   9   8
ENDBRANCH  10   9
TORSDOF 5
ENDMDL
MODEL 5
REMARK VINA RESULT:     -10.1      1.400      4.235
REMARK  Name = 
REMARK  5 active torsions:
REMARK  status: ('A' for Active; 'I' for Inactive)
REMARK    1  A    between atoms: O_2  and  C_3
REMARK    2  A    between atoms: C_8  and  C_9
REMARK    3  A    between atoms: C_9  and  N_10
REMARK    4  A    between atoms: C_15  and  C_16
REMARK    5  A    between atoms: C_18  and  C_21
REMARK                            x       y       z     vdW  Elec       q    Type
REMARK                         _______ _______ _______ _____ _____    ______ ____
ROOT
ATOM     10  N   UNL     1      -3.507   1.549  24.089  0.00  0.00    -0.260 NA
ATOM     11  C   UNL     1      -3.381   2.155  23.543  0.00  0.00    +0.106 C 
ATOM     12  C   UNL     1      -2.808   1.900  23.007  0.00  0.00    +0.170 C 
ATOM     13  O   UNL     1      -2.514   2.332  22.368  0.00  0.00    -0.222 OA
ATOM     14  C   UNL     1      -2.579   1.136  23.221  0.00  0.00    +0.060 C 
ATOM     15  C   UNL     1      -3.011   0.919  23.890  0.00  0.00    +0.140 C 
ENDROOT
BRANCH  15  16
ATOM     16  C   UNL     1      -2.957   0.199  24.290  0.00  0.00    +0.251 A 
ATOM     17  N   UNL     1      -3.353  -0.496  24.091  0.00  0.00    -0.194 NA
ATOM     18  C   UNL     1      -3.138  -1.077  24.637  0.00  0.00    +0.180 A 
ATOM     19  N   UNL     1      -2.609  -0.739  25.173  0.00  0.00    -0.061 NA
ATOM     20  O   UNL     1      -2.498   0.049  24.958  0.00  0.00    -0.336 OA
BRANCH  18  21
ATOM     21  C   UNL     1      -3.405  -1.857  24.645  0.00  0.00    +0.062 C 
ATOM     22  C   UNL     1      -3.832  -2.471  24.295  0.00  0.00    +0.008 C 
ATOM     23  C   UNL     1      -3.441  -2.597  25.010  0.00  0.00    +0.008 C 
ENDBRANCH  18  21
ENDBRANCH  15  16
BRANCH  10   9
ATOM      9  C   UNL     1      -4.035   1.569  24.722  0.00  0.00    +0.103 C 
BRANCH   9   8
ATOM      3  C   UNL     1      -5.140   2.386  25.117  0.00  0.00    +0.136 A 
ATOM      4  C   UNL     1      -5.433   3.107  25.387  0.00  0.00    +0.037 A 
ATOM      5  C   UNL     1      -4.917   3.735  25.530  0.00  0.00    +0.003 A 
ATOM      6  C   UNL     1      -4.108   3.641  25.404  0.00  0.00    -0.000 A 
ATOM      7  C   UNL     1      -3.813   2.918  25.134  0.00  0.00    +0.000 A 
ATOM      8  C   UNL     1      -4.329   2.290  24.991  0.00  0.00    +0.028 A 
BRANCH   3   2
ATOM      1  C   UNL     1      -6.432   1.791  25.248  0.00  0.00    +0.252 C 
ATOM      2  O   UNL     1      -5.655   1.757  24.974  0.00  0.00    -0.472 OA
ENDBRANCH   3   2
ENDBRANCH   9   8
ENDBRANCH  10   9
TORSDOF 5
ENDMDL
MODEL 6
REMARK VINA RESULT:     -10.0      1.772      2.932
REMARK  Name = 
REMARK  5 active torsions:
REMARK  status: ('A' for Active; 'I' for Inactive)
REMARK    1  A    between atoms: O_2  and  C_3
REMARK    2  A    between atoms: C_8  and  C_9
REMARK    3  A    between atoms: C_9  and  N_10
REMARK    4  A    between atoms: C_15  and  C_16
REMARK    5  A    between atoms: C_18  and  C_21
REMARK                            x       y       z     vdW  Elec       q    Type
REMARK                         _______ _______ _______ _____ _____    ______ ____
ROOT
ATOM     10  N   UNL     1      -1.443   0.644  24.778  0.00  0.00    -0.260 NA
ATOM     11  C   UNL     1      -1.165  -0.011  24.360  0.00  0.00    +0.106 C 
ATOM     12  C   UNL     1      -0.389   0.146  24.128  0.00  0.00    +0.170 C 
ATOM     13  O   UNL     1       0.100  -0.360  23.697  0.00  0.00    -0.222 OA
ATOM     14  C   UNL     1      -0.188   0.898  24.403  0.00  0.00    +0.060 C 
ATOM     15  C   UNL     1      -0.839   1.206  24.804  0.00  0.00    +0.140 C 
ENDROOT
BRANCH  15  16
ATOM     16  C   UNL     1      -0.880   1.945  25.169  0.00  0.00    +0.251 A 
ATOM     17  N   UNL     1      -1.067   2.658  24.799  0.00  0.00    -0.194 NA
ATOM     18  C   UNL     1      -1.043   3.255  25.367  0.00  0.00    +0.180 A 
ATOM     19  N   UNL     1      -0.840   2.910  26.090  0.00  0.00    -0.061 NA
ATOM     20  O   UNL     1      -0.740   2.101  25.967  0.00  0.00    -0.336 OA
BRANCH  18  21
ATOM     21  C   UNL     1      -1.194   4.055  25.238  0.00  0.00    +0.062 C 
ATOM     22  C   UNL     1      -1.703   4.703  25.282  0.00  0.00    +0.008 C 
ATOM     23  C   UNL     1      -0.946   4.795  24.968  0.00  0.00    +0.008 C 
ENDBRANCH  18  21
ENDBRANCH  15  16
BRANCH  10   9
ATOM      9  C   UNL     1      -2.193   0.723  25.111  0.00  0.00    +0.103 C 
BRANCH   9   8
ATOM      3  C   UNL     1      -3.482   0.122  24.957  0.00  0.00    +0.136 A 
ATOM      4  C   UNL     1      -3.975  -0.534  25.022  0.00  0.00    +0.037 A 
ATOM      5  C   UNL     1      -3.676  -1.249  25.307  0.00  0.00    +0.003 A 
ATOM      6  C   UNL     1      -2.883  -1.306  25.526  0.00  0.00    -0.000 A 
ATOM      7  C   UNL     1      -2.388  -0.648  25.461  0.00  0.00    +0.000 A 
ATOM      8  C   UNL     1      -2.687   0.066  25.176  0.00  0.00    +0.028 A 
BRANCH   3   2
ATOM      1  C   UNL     1      -4.593   0.977  24.683  0.00  0.00    +0.252 C 
ATOM      2  O   UNL     1      -3.780   0.837  24.672  0.00  0.00    -0.472 OA
ENDBRANCH   3   2
ENDBRANCH   9   8
ENDBRANCH  10   9
TORSDOF 5
ENDMDL
MODEL 7
REMARK VINA RESULT:      -9.8      1.400      4.162
REMARK  Name = 
REMARK  5 active torsions:
REMARK  status: ('A' for Active; 'I' for Inactive)
REMARK    1  A    between atoms: O_2  and  C_3
REMARK    2  A    between atoms: C_8  and  C_9
REMARK    3  A    between atoms: C_9  and  N_10
REMARK    4  A    between atoms: C_15  and  C_16
REMARK    5  A    between atoms: C_18  and  C_21
REMARK                            x       y       z     vdW  Elec       q    Type
REMARK                         _______ _______ _______ _____ _____    ______ ____
ROOT
ATOM     10  N   UNL     1      -2.603   1.882  24.100  0.00  0.00    -0.260 NA
ATOM     11  C   UNL     1      -2.382   2.315  23.432  0.00  0.00    +0.106 C 
ATOM     12  C   UNL     1      -2.697   1.939  22.769  0.00  0.00    +0.170 C 
ATOM     13  O   UNL     1      -2.612   2.185  21.986  0.00  0.00    -0.222 OA
ATOM     14  C   UNL     1      -3.112   1.273  23.026  0.00  0.00    +0.060 C 
ATOM     15  C   UNL     1      -3.054   1.238  23.849  0.00  0.00    +0.140 C 
ENDROOT
BRANCH  15  16
ATOM     16  C   UNL     1      -3.388   0.661  24.334  0.00  0.00    +0.251 A 
ATOM     17  N   UNL     1      -3.080  -0.091  24.476  0.00  0.00    -0.194 NA
ATOM     18  C   UNL     1      -3.591  -0.482  24.993  0.00  0.00    +0.180 A 
ATOM     19  N   UNL     1      -4.215   0.028  25.170  0.00  0.00    -0.061 NA
ATOM     20  O   UNL     1      -4.089   0.734  24.763  0.00  0.00    -0.336 OA
BRANCH  18  21
ATOM     21  C   UNL     1      -3.494  -1.249  25.282  0.00  0.00    +0.062 C 
ATOM     22  C   UNL     1      -3.268  -1.761  25.887  0.00  0.00    +0.008 C 
ATOM     23  C   UNL     1      -3.554  -2.065  25.176  0.00  0.00    +0.008 C 
ENDBRANCH  18  21
ENDBRANCH  15  16
BRANCH  10   9
ATOM      9  C   UNL     1      -2.407   2.062  24.880  0.00  0.00    +0.103 C 
BRANCH   9   8
ATOM      3  C   UNL     1      -1.438   2.927  25.478  0.00  0.00    +0.136 A 
ATOM      4  C   UNL     1      -1.185   3.686  25.675  0.00  0.00    +0.037 A 
ATOM      5  C   UNL     1      -1.645   4.341  25.474  0.00  0.00    +0.003 A 
ATOM      6  C   UNL     1      -2.359   4.235  25.075  0.00  0.00    -0.000 A 
ATOM      7  C   UNL     1      -2.613   3.475  24.877  0.00  0.00    +0.000 A 
ATOM      8  C   UNL     1      -2.153   2.820  25.078  0.00  0.00    +0.028 A 
BRANCH   3   2
ATOM      1  C   UNL     1      -0.306   2.369  26.147  0.00  0.00    +0.252 C 
ATOM      2  O   UNL     1      -0.978   2.272  25.679  0.00  0.00    -0.472 OA
ENDBRANCH   3   2
ENDBRANCH   9   8
ENDBRANCH  10   9
TORSDOF 5
ENDMDL
MODEL 8
REMARK VINA RESULT:      -9.7      1.701      4.752
REMARK  Name = 
REMARK  5 active torsions:
REMARK  status: ('A' for Active; 'I' for Inactive)
REMARK    1  A    between atoms: O_2  and  C_3
REMARK    2  A    between atoms: C_8  and  C_9
REMARK    3  A    between atoms: C_9  and  N_10
REMARK    4  A    between atoms: C_15  and  C_16
REMARK    5  A    between atoms: C_18  and  C_21
REMARK                            x       y       z     vdW  Elec       q    Type
REMARK                         _______ _______ _______ _____ _____    ______ ____
ROOT
ATOM     10  N   UNL     1      -1.312   1.404  24.778  0.00  0.00    -0.260 NA
ATOM     11  C   UNL     1      -0.621   1.727  24.462  0.00  0.00    +0.106 C 
ATOM     12  C   UNL     1      -0.141   1.105  24.212  0.00  0.00    +0.170 C 
ATOM     13  O   UNL     1       0.603   1.177  23.862  0.00  0.00    -0.222 OA
ATOM     14  C   UNL     1      -0.534   0.397  24.373  0.00  0.00    +0.060 C 
ATOM     15  C   UNL     1      -1.258   0.582  24.723  0.00  0.00    +0.140 C 
ENDROOT
BRANCH  15  16
ATOM     16  C   UNL     1      -1.828   0.040  24.974  0.00  0.00    +0.251 A 
ATOM     17  N   UNL     1      -2.328  -0.398  24.486  0.00  0.00    -0.194 NA
ATOM     18  C   UNL     1      -2.806  -0.867  24.967  0.00  0.00    +0.180 A 
ATOM     19  N   UNL     1      -2.602  -0.718  25.753  0.00  0.00    -0.061 NA
ATOM     20  O   UNL     1      -1.998  -0.157  25.756  0.00  0.00    -0.336 OA
BRANCH  18  21
ATOM     21  C   UNL     1      -3.387  -1.393  24.708  0.00  0.00    +0.062 C 
ATOM     22  C   UNL     1      -3.734  -2.141  24.728  0.00  0.00    +0.008 C 
ATOM     23  C   UNL     1      -4.047  -1.555  24.239  0.00  0.00    +0.008 C 
ENDBRANCH  18  21
ENDBRANCH  15  16
BRANCH  10   9
ATOM      9  C   UNL     1      -1.945   1.828  25.093  0.00  0.00    +0.103 C 
BRANCH   9   8
ATOM      3  C   UNL     1      -2.437   3.158  24.911  0.00  0.00    +0.136 A 
ATOM      4  C   UNL     1      -2.367   3.969  25.040  0.00  0.00    +0.037 A 
ATOM      5  C   UNL     1      -1.734   4.264  25.480  0.00  0.00    +0.003 A 
ATOM      6  C   UNL     1      -1.172   3.746  25.791  0.00  0.00    -0.000 A 
ATOM      7  C   UNL     1      -1.243   2.933  25.662  0.00  0.00    +0.000 A 
ATOM      8  C   UNL     1      -1.875   2.639  25.222  0.00  0.00    +0.028 A 
BRANCH   3   2
ATOM      1  C   UNL     1      -3.704   3.355  24.281  0.00  0.00    +0.252 C 
ATOM      2  O   UNL     1      -3.070   2.863  24.470  0.00  0.00    -0.472 OA
ENDBRANCH   3   2
ENDBRANCH   9   8
ENDBRANCH  10   9
TORSDOF 5
ENDMDL
MODEL 9
REMARK VINA RESULT:      -9.6      1.601      2.679
REMARK  Name = 
REMARK  5 active torsions:
REMARK  status: ('A' for Active; 'I' for Inactive)
REMARK    1  A    between atoms: O_2  and  C_3
REMARK    2  A    between atoms: C_8  and  C_9
REMARK    3  A    between atoms: C_9  and  N_10
REMARK    4  A    between atoms: C_15  and  C_16
REMARK    5  A    between atoms: C_18  and  C_21
REMARK                            x       y       z     vdW  Elec       q    Type
REMARK                         _______ _______ _______ _____ _____    ______ ____
ROOT
ATOM     10  N   UNL     1      -2.715   0.393  24.564  0.00  0.00    -0.260 NA
ATOM     11  C   UNL     1      -1.934   0.128  24.597  0.00  0.00    +0.106 C 
ATOM     12  C   UNL     1      -1.439   0.785  24.546  0.00  0.00    +0.170 C 
ATOM     13  O   UNL     1      -0.614   0.773  24.557  0.00  0.00    -0.222 OA
ATOM     14  C   UNL     1      -1.913   1.458  24.481  0.00  0.00    +0.060 C 
ATOM     15  C   UNL     1      -2.702   1.215  24.493  0.00  0.00    +0.140 C 
ENDROOT
BRANCH  15  16
ATOM     16  C   UNL     1      -3.362   1.709  24.441  0.00  0.00    +0.251 A 
ATOM     17  N   UNL     1      -3.736   2.085  25.073  0.00  0.00    -0.194 NA
ATOM     18  C   UNL     1      -4.368   2.521  24.771  0.00  0.00    +0.180 A 
ATOM     19  N   UNL     1      -4.384   2.414  23.953  0.00  0.00    -0.061 NA
ATOM     20  O   UNL     1      -3.762   1.913  23.749  0.00  0.00    -0.336 OA
BRANCH  18  21
ATOM     21  C   UNL     1      -4.892   2.982  25.210  0.00  0.00    +0.062 C 
ATOM     22  C   UNL     1      -5.133   3.720  25.490  0.00  0.00    +0.008 C 
ATOM     23  C   UNL     1      -5.559   3.043  25.693  0.00  0.00    +0.008 C 
ENDBRANCH  18  21
ENDBRANCH  15  16
BRANCH  10   9
ATOM      9  C   UNL     1      -3.390  -0.080  24.597  0.00  0.00    +0.103 C 
BRANCH   9   8
ATOM      3  C   UNL     1      -3.662  -1.483  24.584  0.00  0.00    +0.136 A 
ATOM      4  C   UNL     1      -3.632  -2.219  24.953  0.00  0.00    +0.037 A 
ATOM      5  C   UNL     1      -3.300  -2.291  25.706  0.00  0.00    +0.003 A 
ATOM      6  C   UNL     1      -2.999  -1.625  26.088  0.00  0.00    -0.000 A 
ATOM      7  C   UNL     1      -3.029  -0.887  25.718  0.00  0.00    +0.000 A 
ATOM      8  C   UNL     1      -3.360  -0.816  24.966  0.00  0.00    +0.028 A 
BRANCH   3   2
ATOM      1  C   UNL     1      -4.401  -2.046  23.499  0.00  0.00    +0.252 C 
ATOM      2  O   UNL     1      -3.993  -1.411  23.831  0.00  0.00    -0.472 OA
ENDBRANCH   3   2
ENDBRANCH   9   8
ENDBRANCH  10   9
TORSDOF 5
ENDMDL
