MODEL 1
REMARK VINA RESULT:     -11.2      0.000      0.000
REMARK  Name = 
REMARK  6 active torsions:
REMARK  status: ('A' for Active; 'I' for Inactive)
REMARK    1  A    between atoms: O_2  and  C_3
REMARK    2  A    between atoms: C_3  and  C_4
REMARK    3  A    between atoms: C_11  and  C_12
REMARK    4  A    between atoms: C_14  and  C_17
REMARK    5  A    between atoms: C_20  and  O_21
REMARK    6  A    between atoms: O_21  and  C_22
REMARK                            x       y       z     vdW  Elec       q    Type
REMARK                         _______ _______ _______ _____ _____    ______ ____
ROOT
ATOM     12  C   UNL     1      -4.353   1.852  24.736  0.00  0.00    +0.160 A 
ATOM     13  N   UNL     1      -4.361   1.109  25.091  0.00  0.00    -0.227 NA
ATOM     14  C   UNL     1      -3.982   0.580  24.584  0.00  0.00    +0.102 A 
ATOM     15  C   UNL     1      -3.738   0.998  23.916  0.00  0.00    +0.119 A 
ATOM     16  N   UNL     1      -3.968   1.785  24.010  0.00  0.00    -0.226 NA
ENDROOT
BRANCH  12  11
ATOM      4  C   UNL     1      -3.363   3.111  25.141  0.00  0.00    +0.256 C 
ATOM      5  O   UNL     1      -3.042   2.419  24.824  0.00  0.00    -0.272 OA
ATOM      6  N   UNL     1      -4.178   3.173  25.255  0.00  0.00    -0.268 N 
ATOM      7  C   UNL     1      -4.498   3.865  25.571  0.00  0.00    +0.126 C 
ATOM      8  C   UNL     1      -5.314   3.928  25.685  0.00  0.00    +0.164 C 
ATOM      9  O   UNL     1      -5.807   3.299  25.482  0.00  0.00    -0.350 OA
ATOM     10  C   UNL     1      -5.487   2.607  25.167  0.00  0.00    +0.170 C 
ATOM     11  C   UNL     1      -4.673   2.545  25.053  0.00  0.00    +0.164 C 
BRANCH   4   3
ATOM      3  C   UNL     1      -2.869   3.739  25.343  0.00  0.00    +0.227 C 
BRANCH   3   2
ATOM      1  C   UNL     1      -1.565   4.324  25.359  0.00  0.00    +0.175 C 
ATOM      2  O   UNL     1      -2.052   3.665  25.257  0.00  0.00    -0.342 OA
ENDBRANCH   3   2
ENDBRANCH   4   3
ENDBRANCH  12  11
BRANCH  14  17
ATOM     17  C   UNL     1      -3.865  -0.226  24.721  0.00  0.00    +0.019 A 
ATOM     18  C   UNL     1      -4.161  -0.781  24.187  0.00  0.00    +0.005 A 
ATOM     19  C   UNL     1      -4.044  -1.586  24.324  0.00  0.00    +0.037 A 
ATOM     20  C   UNL     1      -3.634  -1.836  24.994  0.00  0.00    +0.147 A 
ATOM     26  C   UNL     1      -3.338  -1.280  25.529  0.00  0.00    +0.037 A 
ATOM     27  C   UNL     1      -3.454  -0.475  25.391  0.00  0.00    +0.005 A 
BRANCH  20  21
ATOM     21  O   UNL     1      -3.517  -2.642  25.131  0.00  0.00    -0.404 OA
BRANCH  21  22
ATOM     22  C   UNL     1      -3.168  -3.112  24.551  0.00  0.00    +0.575 C 
ATOM     23  F   UNL     1      -2.819  -3.584  23.970  0.00  0.00    -0.133 F 
ATOM     24  F   UNL     1      -2.422  -2.868  24.803  0.00  0.00    -0.133 F 
ATOM     25  F   UNL     1      -3.915  -3.356  24.299  0.00  0.00    -0.133 F 
ENDBRANCH  21  22
ENDBRANCH  20  21
ENDBRANCH  14  17
TORSDOF 6
ENDMDL
MODEL 2
REMARK VINA RESULT:     -10.8      1.096      1.385
REMARK  Name = 
REMARK  6 active torsions:
REMARK  status: ('A' for Active; 'I' for Inactive)
REMARK    1  A    between atoms: O_2  and  C_3
REMARK    2  A    between atoms: C_3  and  C_4
REMARK    3  A    between atoms: C_11  and  C_12
REMARK    4  A    between atoms: C_14  and  C_17
REMARK    5  A    between atoms: C_20  and  O_21
REMARK    6  A    between atoms: O_21  and  C_22
REMARK                            x       y       z     vdW  Elec       q    Type
REMARK                         _______ _______ _______ _____ _____    ______ ____
ROOT
ATOM     12  C   UNL     1      -3.237   2.147  24.715  0.00  0.00    +0.160 A 
ATOM     13  N   UNL     1      -3.493   1.425  25.018  0.00  0.00    -0.227 NA
ATOM     14  C   UNL     1      -3.415   0.857  24.424  0.00  0.00    +0.102 A 
ATOM     15  C   UNL     1      -3.110   1.230  23.754  0.00  0.00    +0.119 A 
ATOM     16  N   UNL     1      -3.000   2.028  23.934  0.00  0.00    -0.226 NA
ENDROOT
BRANCH  12  11
ATOM      4  C   UNL     1      -1.821   2.696  25.362  0.00  0.00    +0.256 C 
ATOM      5  O   UNL     1      -1.837   1.978  24.955  0.00  0.00    -0.272 OA
ATOM      6  N   UNL     1      -2.512   3.139  25.445  0.00  0.00    -0.268 N 
ATOM      7  C   UNL     1      -2.495   3.857  25.852  0.00  0.00    +0.126 C 
ATOM      8  C   UNL     1      -3.186   4.301  25.935  0.00  0.00    +0.164 C 
ATOM      9  O   UNL     1      -3.893   4.026  25.612  0.00  0.00    -0.350 OA
ATOM     10  C   UNL     1      -3.910   3.308  25.205  0.00  0.00    +0.170 C 
ATOM     11  C   UNL     1      -3.220   2.865  25.122  0.00  0.00    +0.164 C 
BRANCH   4   3
ATOM      3  C   UNL     1      -1.113   2.970  25.685  0.00  0.00    +0.227 C 
BRANCH   3   2
ATOM      1  C   UNL     1       0.163   2.598  26.209  0.00  0.00    +0.175 C 
ATOM      2  O   UNL     1      -0.435   2.503  25.648  0.00  0.00    -0.342 OA
ENDBRANCH   3   2
ENDBRANCH   4   3
ENDBRANCH  12  11
BRANCH  14  17
ATOM     17  C   UNL     1      -3.608   0.057  24.488  0.00  0.00    +0.019 A 
ATOM     18  C   UNL     1      -3.994  -0.324  23.867  0.00  0.00    +0.005 A 
ATOM     19  C   UNL     1      -4.187  -1.124  23.932  0.00  0.00    +0.037 A 
ATOM     20  C   UNL     1      -3.995  -1.541  24.616  0.00  0.00    +0.147 A 
ATOM     26  C   UNL     1      -3.609  -1.159  25.238  0.00  0.00    +0.037 A 
ATOM     27  C   UNL     1      -3.416  -0.359  25.174  0.00  0.00    +0.005 A 
BRANCH  20  21
ATOM     21  O   UNL     1      -4.188  -2.341  24.681  0.00  0.00    -0.404 OA
BRANCH  21  22
ATOM     22  C   UNL     1      -3.658  -2.916  24.418  0.00  0.00    +0.575 C 
ATOM     23  F   UNL     1      -3.127  -3.491  24.155  0.00  0.00    -0.133 F 
ATOM     24  F   UNL     1      -4.009  -2.898  23.672  0.00  0.00    -0.133 F 
ATOM     25  F   UNL     1      -3.306  -2.933  25.164  0.00  0.00    -0.133 F 
ENDBRANCH  21  22
ENDBRANCH  20  21
ENDBRANCH  14  17
TORSDOF 6
ENDMDL
MODEL 3
REMARK VINA RESULT:     -10.7      0.817      1.942
REMARK  Name = 
REMARK  6 active torsions:
REMARK  status: ('A' for Active; 'I' for Inactive)
REMARK    1  A    between atoms: O_2  and  C_3
REMARK    2  A    between atoms: C_3  and  C_4
REMARK    3  A    between atoms: C_11  and  C_12
REMARK    4  A    between atoms: C_14  and  C_17
REMARK    5  A    between atoms: C_20  and  O_21
REMARK    6  A    between atoms: O_21  and  C_22
REMARK                            x       y       z     vdW  Elec       q    Type
REMARK                         _______ _______ _______ _____ _____    ______ ____
ROOT
ATOM     12  C   UNL     1      -2.719   2.061  24.502  0.00  0.00    +0.160 A 
ATOM     13  N   UNL     1      -2.838   1.345  24.892  0.00  0.00    -0.227 NA
ATOM     14  C   UNL     1      -3.114   0.797  24.340  0.00  0.00    +0.102 A 
ATOM     15  C   UNL     1      -3.165   1.175  23.609  0.00  0.00    +0.119 A 
ATOM     16  N   UNL     1      -2.921   1.958  23.709  0.00  0.00    -0.226 NA
ENDROOT
BRANCH  12  11
ATOM      4  C   UNL     1      -3.795   3.191  25.044  0.00  0.00    +0.256 C 
ATOM      5  O   UNL     1      -4.069   2.491  24.701  0.00  0.00    -0.272 OA
ATOM      6  N   UNL     1      -2.984   3.325  25.116  0.00  0.00    -0.268 N 
ATOM      7  C   UNL     1      -2.711   4.024  25.458  0.00  0.00    +0.126 C 
ATOM      8  C   UNL     1      -1.900   4.160  25.530  0.00  0.00    +0.164 C 
ATOM      9  O   UNL     1      -1.363   3.595  25.259  0.00  0.00    -0.350 OA
ATOM     10  C   UNL     1      -1.636   2.896  24.917  0.00  0.00    +0.170 C 
ATOM     11  C   UNL     1      -2.446   2.761  24.845  0.00  0.00    +0.164 C 
BRANCH   4   3
ATOM      3  C   UNL     1      -4.333   3.754  25.315  0.00  0.00    +0.227 C 
BRANCH   3   2
ATOM      1  C   UNL     1      -5.677   4.138  25.614  0.00  0.00    +0.175 C 
ATOM      2  O   UNL     1      -5.141   3.594  25.301  0.00  0.00    -0.342 OA
ENDBRANCH   3   2
ENDBRANCH   4   3
ENDBRANCH  12  11
BRANCH  14  17
ATOM     17  C   UNL     1      -3.305   0.009  24.493  0.00  0.00    +0.019 A 
ATOM     18  C   UNL     1      -3.917  -0.354  24.077  0.00  0.00    +0.005 A 
ATOM     19  C   UNL     1      -4.108  -1.143  24.229  0.00  0.00    +0.037 A 
ATOM     20  C   UNL     1      -3.687  -1.567  24.797  0.00  0.00    +0.147 A 
ATOM     26  C   UNL     1      -3.074  -1.203  25.214  0.00  0.00    +0.037 A 
ATOM     27  C   UNL     1      -2.883  -0.415  25.061  0.00  0.00    +0.005 A 
BRANCH  20  21
ATOM     21  O   UNL     1      -3.878  -2.355  24.950  0.00  0.00    -0.404 OA
BRANCH  21  22
ATOM     22  C   UNL     1      -3.568  -2.954  24.475  0.00  0.00    +0.575 C 
ATOM     23  F   UNL     1      -3.256  -3.553  24.001  0.00  0.00    -0.133 F 
ATOM     24  F   UNL     1      -4.221  -2.896  23.976  0.00  0.00    -0.133 F 
ATOM     25  F   UNL     1      -2.914  -3.011  24.976  0.00  0.00    -0.133 F 
ENDBRANCH  21  22
ENDBRANCH  20  21
ENDBRANCH  14  17
TORSDOF 6
ENDMDL
MODEL 4
REMARK VINA RESULT:     -10.1      1.379      2.238
REMARK  Name = 
REMARK  6 active torsions:
REMARK  status: ('A' for Active; 'I' for Inactive)
REMARK    1  A    between atoms: O_2  and  C_3
REMARK    2  A    between atoms: C_3  and  C_4
REMARK    3  A    between atoms: C_11  and  C_12
REMARK    4  A    between atoms: C_14  and  C_17
REMARK    5  A    between atoms: C_20  and  O_21
REMARK    6  A    between atoms: O_21  and  C_22
REMARK                            x       y       z     vdW  Elec       q    Type
REMARK                         _______ _______ _______ _____ _____    ______ ____
ROOT
ATOM     12  C   UNL     1      -2.184   1.943  24.141  0.00  0.00    +0.160 A 
ATOM     13  N   UNL     1      -2.268   1.199  24.487  0.00  0.00    -0.227 NA
ATOM     14  C   UNL     1      -2.918   0.828  24.138  0.00  0.00    +0.102 A 
ATOM     15  C   UNL     1      -3.234   1.343  23.577  0.00  0.00    +0.119 A 
ATOM     16  N   UNL     1      -2.781   2.033  23.579  0.00  0.00    -0.226 NA
ENDROOT
BRANCH  12  11
ATOM      4  C   UNL     1      -2.541   3.205  25.144  0.00  0.00    +0.256 C 
ATOM      5  O   UNL     1      -3.122   2.647  24.959  0.00  0.00    -0.272 OA
ATOM      6  N   UNL     1      -1.783   3.131  24.827  0.00  0.00    -0.268 N 
ATOM      7  C   UNL     1      -1.203   3.689  25.011  0.00  0.00    +0.126 C 
ATOM      8  C   UNL     1      -0.444   3.615  24.695  0.00  0.00    +0.164 C 
ATOM      9  O   UNL     1      -0.266   2.984  24.194  0.00  0.00    -0.350 OA
ATOM     10  C   UNL     1      -0.846   2.427  24.010  0.00  0.00    +0.170 C 
ATOM     11  C   UNL     1      -1.604   2.501  24.326  0.00  0.00    +0.164 C 
BRANCH   4   3
ATOM      3  C   UNL     1      -2.720   3.836  25.644  0.00  0.00    +0.227 C 
BRANCH   3   2
ATOM      1  C   UNL     1      -3.591   4.436  26.605  0.00  0.00    +0.175 C 
ATOM      2  O   UNL     1      -3.450   3.866  26.025  0.00  0.00    -0.342 OA
ENDBRANCH   3   2
ENDBRANCH   4   3
ENDBRANCH  12  11
BRANCH  14  17
ATOM     17  C   UNL     1      -3.201   0.074  24.319  0.00  0.00    +0.019 A 
ATOM     18  C   UNL     1      -3.875  -0.213  23.942  0.00  0.00    +0.005 A 
ATOM     19  C   UNL     1      -4.159  -0.967  24.122  0.00  0.00    +0.037 A 
ATOM     20  C   UNL     1      -3.767  -1.433  24.679  0.00  0.00    +0.147 A 
ATOM     26  C   UNL     1      -3.092  -1.145  25.056  0.00  0.00    +0.037 A 
ATOM     27  C   UNL     1      -2.809  -0.391  24.876  0.00  0.00    +0.005 A 
BRANCH  20  21
ATOM     21  O   UNL     1      -4.050  -2.187  24.859  0.00  0.00    -0.404 OA
BRANCH  21  22
ATOM     22  C   UNL     1      -3.725  -2.848  24.491  0.00  0.00    +0.575 C 
ATOM     23  F   UNL     1      -3.399  -3.511  24.121  0.00  0.00    -0.133 F 
ATOM     24  F   UNL     1      -3.203  -2.943  25.122  0.00  0.00    -0.133 F 
ATOM     25  F   UNL     1      -4.247  -2.754  23.859  0.00  0.00    -0.133 F 
ENDBRANCH  21  22
ENDBRANCH  20  21
ENDBRANCH  14  17
TORSDOF 6
ENDMDL
MODEL 5
REMARK VINA RESULT:      -9.9      3.014      5.096
REMARK  Name = 
REMARK  6 active torsions:
REMARK  status: ('A' for Active; 'I' for Inactive)
REMARK    1  A    between atoms: O_2  and  C_3
REMARK    2  A    between atoms: C_3  and  C_4
REMARK    3  A    between atoms: C_11  and  C_12
REMARK    4  A    between atoms: C_14  and  C_17
REMARK    5  A    between atoms: C_20  and  O_21
REMARK    6  A    between atoms: O_21  and  C_22
REMARK                            x       y       z     vdW  Elec       q    Type
REMARK                         _______ _______ _______ _____ _____    ______ ____
ROOT
ATOM     12  C   UNL     1      -3.801  -0.452  24.164  0.00  0.00    +0.160 A 
ATOM     13  N   UNL     1      -4.207   0.015  24.709  0.00  0.00    -0.227 NA
ATOM     14  C   UNL     1      -4.101   0.806  24.495  0.00  0.00    +0.102 A 
ATOM     15  C   UNL     1      -3.631   0.826  23.818  0.00  0.00    +0.119 A 
ATOM     16  N   UNL     1      -3.445   0.048  23.613  0.00  0.00    -0.226 NA
ENDROOT
BRANCH  12  11
ATOM      4  C   UNL     1      -2.432  -1.205  24.700  0.00  0.00    +0.256 C 
ATOM      5  O   UNL     1      -2.475  -0.380  24.695  0.00  0.00    -0.272 OA
ATOM      6  N   UNL     1      -3.074  -1.652  24.437  0.00  0.00    -0.268 N 
ATOM      7  C   UNL     1      -3.032  -2.476  24.441  0.00  0.00    +0.126 C 
ATOM      8  C   UNL     1      -3.673  -2.924  24.178  0.00  0.00    +0.164 C 
ATOM      9  O   UNL     1      -4.357  -2.548  23.911  0.00  0.00    -0.350 OA
ATOM     10  C   UNL     1      -4.399  -1.724  23.906  0.00  0.00    +0.170 C 
ATOM     11  C   UNL     1      -3.758  -1.277  24.169  0.00  0.00    +0.164 C 
BRANCH   4   3
ATOM      3  C   UNL     1      -1.749  -1.581  24.967  0.00  0.00    +0.227 C 
BRANCH   3   2
ATOM      1  C   UNL     1      -0.379  -1.499  25.365  0.00  0.00    +0.175 C 
ATOM      2  O   UNL     1      -1.106  -1.134  25.223  0.00  0.00    -0.342 OA
ENDBRANCH   3   2
ENDBRANCH   4   3
ENDBRANCH  12  11
BRANCH  14  17
ATOM     17  C   UNL     1      -4.413   1.461  24.889  0.00  0.00    +0.019 A 
ATOM     18  C   UNL     1      -3.957   2.143  24.976  0.00  0.00    +0.005 A 
ATOM     19  C   UNL     1      -4.269   2.798  25.371  0.00  0.00    +0.037 A 
ATOM     20  C   UNL     1      -5.033   2.770  25.677  0.00  0.00    +0.147 A 
ATOM     26  C   UNL     1      -5.489   2.087  25.589  0.00  0.00    +0.037 A 
ATOM     27  C   UNL     1      -5.178   1.432  25.195  0.00  0.00    +0.005 A 
BRANCH  20  21
ATOM     21  O   UNL     1      -5.345   3.425  26.071  0.00  0.00    -0.404 OA
BRANCH  21  22
ATOM     22  C   UNL     1      -5.650   4.059  25.640  0.00  0.00    +0.575 C 
ATOM     23  F   UNL     1      -5.957   4.692  25.209  0.00  0.00    -0.133 F 
ATOM     24  F   UNL     1      -4.902   4.403  25.616  0.00  0.00    -0.133 F 
ATOM     25  F   UNL     1      -6.400   3.714  25.664  0.00  0.00    -0.133 F 
ENDBRANCH  21  22
ENDBRANCH  20  21
ENDBRANCH  14  17
TORSDOF 6
ENDMDL
MODEL 6
REMARK VINA RESULT:      -9.7      2.959      4.605
REMARK  Name = 
REMARK  6 active torsions:
REMARK  status: ('A' for Active; 'I' for Inactive)
REMARK    1  A    between atoms: O_2  and  C_3
REMARK    2  A    between atoms: C_3  and  C_4
REMARK    3  A    between atoms: C_11  and  C_12
REMARK    4  A    between atoms: C_14  and  C_17
REMARK    5  A    between atoms: C_20  and  O_21
REMARK    6  A    between atoms: O_21  and  C_22
REMARK                            x       y       z     vdW  Elec       q    Type
REMARK                         _______ _______ _______ _____ _____    ______ ____
ROOT
ATOM     12  C   UNL     1      -1.785   1.882  23.905  0.00  0.00    +0.160 A 
ATOM     13  N   UNL     1      -2.383   2.070  24.439  0.00  0.00    -0.227 NA
ATOM     14  C   UNL     1      -3.107   1.978  24.054  0.00  0.00    +0.102 A 
ATOM     15  C   UNL     1      -2.955   1.733  23.281  0.00  0.00    +0.119 A 
ATOM     16  N   UNL     1      -2.137   1.673  23.189  0.00  0.00    -0.226 NA
ENDROOT
BRANCH  12  11
ATOM      4  C   UNL     1      -0.983   0.484  24.267  0.00  0.00    +0.256 C 
ATOM      5  O   UNL     1      -1.795   0.467  24.112  0.00  0.00    -0.272 OA
ATOM      6  N   UNL     1      -0.574   1.200  24.240  0.00  0.00    -0.268 N 
ATOM      7  C   UNL     1       0.237   1.216  24.394  0.00  0.00    +0.126 C 
ATOM      8  C   UNL     1       0.647   1.932  24.368  0.00  0.00    +0.164 C 
ATOM      9  O   UNL     1       0.246   2.630  24.187  0.00  0.00    -0.350 OA
ATOM     10  C   UNL     1      -0.564   2.613  24.033  0.00  0.00    +0.170 C 
ATOM     11  C   UNL     1      -0.973   1.898  24.059  0.00  0.00    +0.164 C 
BRANCH   4   3
ATOM      3  C   UNL     1      -0.584  -0.214  24.447  0.00  0.00    +0.227 C 
BRANCH   3   2
ATOM      1  C   UNL     1      -0.641  -1.559  24.929  0.00  0.00    +0.175 C 
ATOM      2  O   UNL     1      -1.006  -0.912  24.569  0.00  0.00    -0.342 OA
ENDBRANCH   3   2
ENDBRANCH   4   3
ENDBRANCH  12  11
BRANCH  14  17
ATOM     17  C   UNL     1      -3.853   2.108  24.383  0.00  0.00    +0.019 A 
ATOM     18  C   UNL     1      -4.374   1.477  24.484  0.00  0.00    +0.005 A 
ATOM     19  C   UNL     1      -5.120   1.607  24.813  0.00  0.00    +0.037 A 
ATOM     20  C   UNL     1      -5.342   2.367  25.042  0.00  0.00    +0.147 A 
ATOM     26  C   UNL     1      -4.820   2.999  24.941  0.00  0.00    +0.037 A 
ATOM     27  C   UNL     1      -4.075   2.869  24.612  0.00  0.00    +0.005 A 
BRANCH  20  21
ATOM     21  O   UNL     1      -6.088   2.497  25.371  0.00  0.00    -0.404 OA
BRANCH  21  22
ATOM     22  C   UNL     1      -6.294   2.134  26.082  0.00  0.00    +0.575 C 
ATOM     23  F   UNL     1      -6.499   1.770  26.794  0.00  0.00    -0.133 F 
ATOM     24  F   UNL     1      -6.702   1.551  25.666  0.00  0.00    -0.133 F 
ATOM     25  F   UNL     1      -5.885   2.718  26.499  0.00  0.00    -0.133 F 
ENDBRANCH  21  22
ENDBRANCH  20  21
ENDBRANCH  14  17
TORSDOF 6
ENDMDL
MODEL 7
REMARK VINA RESULT:      -9.7      3.331      5.357
REMARK  Name = 
REMARK  6 active torsions:
REMARK  status: ('A' for Active; 'I' for Inactive)
REMARK    1  A    between atoms: O_2  and  C_3
REMARK    2  A    between atoms: C_3  and  C_4
REMARK    3  A    between atoms: C_11  and  C_12
REMARK    4  A    between atoms: C_14  and  C_17
REMARK    5  A    between atoms: C_20  and  O_21
REMARK    6  A    between atoms: O_21  and  C_22
REMARK                            x       y       z     vdW  Elec       q    Type
REMARK                         _______ _______ _______ _____ _____    ______ ____
ROOT
ATOM     12  C   UNL     1      -2.897   0.494  24.201  0.00  0.00    +0.160 A 
ATOM     13  N   UNL     1      -2.853   1.132  24.720  0.00  0.00    -0.227 NA
ATOM     14  C   UNL     1      -2.445   1.741  24.341  0.00  0.00    +0.102 A 
ATOM     15  C   UNL     1      -2.238   1.478  23.587  0.00  0.00    +0.119 A 
ATOM     16  N   UNL     1      -2.518   0.706  23.500  0.00  0.00    -0.226 NA
ENDROOT
BRANCH  12  11
ATOM      4  C   UNL     1      -1.983  -0.804  24.657  0.00  0.00    +0.256 C 
ATOM      5  O   UNL     1      -1.621  -0.077  24.503  0.00  0.00    -0.272 OA
ATOM      6  N   UNL     1      -2.801  -0.881  24.583  0.00  0.00    -0.268 N 
ATOM      7  C   UNL     1      -3.162  -1.606  24.737  0.00  0.00    +0.126 C 
ATOM      8  C   UNL     1      -3.981  -1.684  24.663  0.00  0.00    +0.164 C 
ATOM      9  O   UNL     1      -4.437  -1.036  24.435  0.00  0.00    -0.350 OA
ATOM     10  C   UNL     1      -4.076  -0.310  24.281  0.00  0.00    +0.170 C 
ATOM     11  C   UNL     1      -3.259  -0.233  24.355  0.00  0.00    +0.164 C 
BRANCH   4   3
ATOM      3  C   UNL     1      -1.526  -1.451  24.884  0.00  0.00    +0.227 C 
BRANCH   3   2
ATOM      1  C   UNL     1      -0.266  -2.001  25.272  0.00  0.00    +0.175 C 
ATOM      2  O   UNL     1      -0.718  -1.360  25.017  0.00  0.00    -0.342 OA
ENDBRANCH   3   2
ENDBRANCH   4   3
ENDBRANCH  12  11
BRANCH  14  17
ATOM     17  C   UNL     1      -2.274   2.483  24.659  0.00  0.00    +0.019 A 
ATOM     18  C   UNL     1      -2.838   3.084  24.628  0.00  0.00    +0.005 A 
ATOM     19  C   UNL     1      -2.667   3.826  24.947  0.00  0.00    +0.037 A 
ATOM     20  C   UNL     1      -1.934   3.966  25.296  0.00  0.00    +0.147 A 
ATOM     26  C   UNL     1      -1.369   3.364  25.328  0.00  0.00    +0.037 A 
ATOM     27  C   UNL     1      -1.540   2.622  25.009  0.00  0.00    +0.005 A 
BRANCH  20  21
ATOM     21  O   UNL     1      -1.763   4.708  25.615  0.00  0.00    -0.404 OA
BRANCH  21  22
ATOM     22  C   UNL     1      -1.352   5.265  25.166  0.00  0.00    +0.575 C 
ATOM     23  F   UNL     1      -0.942   5.823  24.716  0.00  0.00    -0.133 F 
ATOM     24  F   UNL     1      -0.639   4.909  25.377  0.00  0.00    -0.133 F 
ATOM     25  F   UNL     1      -2.067   5.621  24.954  0.00  0.00    -0.133 F 
ENDBRANCH  21  22
ENDBRANCH  20  21
ENDBRANCH  14  17
TORSDOF 6
ENDMDL
