REMARK  Name = 
REMARK  8 active torsions:
REMARK  status: ('A' for Active; 'I' for Inactive)
REMARK    1  A    between atoms: C_2  and  C_4
REMARK    2  A    between atoms: C_4  and  S_5
REMARK    3  A    between atoms: S_5  and  C_6
REMARK    4  A    between atoms: C_6  and  C_7
REMARK    5  A    between atoms: N_9  and  C_10
REMARK    6  A    between atoms: C_14  and  N_18
REMARK    7  A    between atoms: C_22  and  O_23
REMARK    8  A    between atoms: O_23  and  C_24
REMARK                            x       y       z     vdW  Elec       q    Type
REMARK                         _______ _______ _______ _____ _____    ______ ____
ROOT
ATOM     10  C   UNL     1       6.177  -7.857   0.000  0.00  0.00    +0.154 C 
ATOM     11  C   UNL     1       6.263  -7.036   0.000  0.00  0.00    +0.166 C 
ATOM     12  O   UNL     1       7.070  -6.865   0.000  0.00  0.00    -0.350 OA
ATOM     13  C   UNL     1       7.482  -7.579   0.000  0.00  0.00    +0.169 C 
ATOM     14  C   UNL     1       8.236  -7.915   0.000  0.00  0.00    +0.170 C 
ATOM     15  C   UNL     1       8.150  -8.735   0.000  0.00  0.00    +0.169 C 
ATOM     16  O   UNL     1       7.343  -8.907   0.000  0.00  0.00    -0.350 OA
ATOM     17  C   UNL     1       6.930  -8.192   0.000  0.00  0.00    +0.167 C 
ENDROOT
BRANCH  14  18
ATOM     18  N   UNL     1       8.950  -7.502   0.000  0.00  0.00    -0.180 N 
ATOM     19  N   UNL     1       9.037  -6.682   0.000  0.00  0.00    -0.040 NA
ATOM     20  N   UNL     1       9.844  -6.510   0.000  0.00  0.00    -0.020 NA
ATOM     21  N   UNL     1      10.256  -7.225   0.000  0.00  0.00    -0.071 NA
ATOM     22  C   UNL     1       9.704  -7.838   0.000  0.00  0.00    +0.343 A 
BRANCH  22  23
ATOM     23  O   UNL     1       9.876  -8.645   0.000  0.00  0.00    -0.421 OA
BRANCH  23  24
ATOM     24  C   UNL     1      10.660  -8.900   0.000  0.00  0.00    +0.152 A 
ATOM     25  C   UNL     1      11.273  -8.348   0.000  0.00  0.00    +0.041 A 
ATOM     26  C   UNL     1      12.058  -8.602   0.000  0.00  0.00    +0.043 A 
ATOM     27  C   UNL     1      12.230  -9.409   0.000  0.00  0.00    +0.177 A 
ATOM     28  O   UNL     1      12.944  -9.822   0.000  0.00  0.00    -0.435 OA
ATOM     29  C   UNL     1      12.773 -10.629   0.000  0.00  0.00    +0.429 C 
ATOM     30  O   UNL     1      11.952 -10.715   0.000  0.00  0.00    -0.435 OA
ATOM     31  C   UNL     1      11.617  -9.961   0.000  0.00  0.00    +0.179 A 
ATOM     32  C   UNL     1      10.832  -9.707   0.000  0.00  0.00    +0.078 A 
ENDBRANCH  23  24
ENDBRANCH  22  23
ENDBRANCH  14  18
BRANCH  10   9
ATOM      7  C   UNL     1       4.748  -7.857   0.000  0.00  0.00    +0.252 C 
ATOM      8  O   UNL     1       4.748  -7.032   0.000  0.00  0.00    -0.272 OA
ATOM      9  N   UNL     1       5.462  -8.269   0.000  0.00  0.00    -0.201 NA
BRANCH   7   6
ATOM      6  C   UNL     1       4.033  -8.269   0.000  0.00  0.00    +0.145 C 
BRANCH   6   5
ATOM      5  S   UNL     1       3.319  -7.857   0.000  0.00  0.00    -0.119 S 
BRANCH   5   4
ATOM      4  C   UNL     1       2.604  -8.269   0.000  0.00  0.00    +0.172 C 
BRANCH   4   2
ATOM      1  O   UNL     1       1.175  -8.269   0.000  0.00  0.00    -0.245 OA
ATOM      2  C   UNL     1       1.890  -7.857   0.000  0.00  0.00    +0.376 C 
ATOM      3  O   UNL     1       1.890  -7.032   0.000  0.00  0.00    -0.245 OA
ENDBRANCH   4   2
ENDBRANCH   5   4
ENDBRANCH   6   5
ENDBRANCH   7   6
ENDBRANCH  10   9
TORSDOF 8
