REMARK  Name = 
REMARK  6 active torsions:
REMARK  status: ('A' for Active; 'I' for Inactive)
REMARK    1  A    between atoms: C_2  and  C_5
REMARK    2  A    between atoms: C_8  and  N_9
REMARK    3  A    between atoms: N_12  and  C_13
REMARK    4  A    between atoms: C_17  and  O_21
REMARK    5  A    between atoms: O_21  and  C_22
REMARK    6  A    between atoms: N_24  and  C_25
REMARK                            x       y       z     vdW  Elec       q    Type
REMARK                         _______ _______ _______ _____ _____    ______ ____
ROOT
ATOM     13  C   UNL     1       1.270  -0.922   0.000  0.00  0.00    +0.156 C 
ATOM     14  C   UNL     1       0.785  -0.255   0.000  0.00  0.00    +0.166 C 
ATOM     15  O   UNL     1       1.270   0.412   0.000  0.00  0.00    -0.348 OA
ATOM     16  C   UNL     1       2.054   0.158   0.000  0.00  0.00    +0.186 C 
ATOM     17  C   UNL     1       2.839   0.412   0.000  0.00  0.00    +0.229 C 
ATOM     18  C   UNL     1       3.324  -0.255   0.000  0.00  0.00    +0.188 C 
ATOM     19  O   UNL     1       2.839  -0.922   0.000  0.00  0.00    -0.348 OA
ATOM     20  C   UNL     1       2.054  -0.667   0.000  0.00  0.00    +0.168 C 
ENDROOT
BRANCH  13  12
ATOM      9  N   UNL     1      -0.047  -2.663   0.000  0.00  0.00    -0.161 NA
ATOM     10  C   UNL     1       0.208  -1.879   0.000  0.00  0.00    +0.344 C 
ATOM     11  O   UNL     1      -0.344  -1.265   0.000  0.00  0.00    -0.249 OA
ATOM     12  N   UNL     1       1.015  -1.707   0.000  0.00  0.00    -0.184 NA
BRANCH   9   8
ATOM      5  C   UNL     1      -2.468  -3.178   0.000  0.00  0.00    +0.072 A 
ATOM      6  C   UNL     1      -2.213  -2.393   0.000  0.00  0.00    +0.005 A 
ATOM      7  C   UNL     1      -1.406  -2.222   0.000  0.00  0.00    +0.017 A 
ATOM      8  C   UNL     1      -0.854  -2.835   0.000  0.00  0.00    +0.075 A 
ATOM     31  C   UNL     1      -1.109  -3.619   0.000  0.00  0.00    +0.017 A 
ATOM     32  C   UNL     1      -1.916  -3.791   0.000  0.00  0.00    +0.005 A 
BRANCH   5   2
ATOM      1  F   UNL     1      -4.082  -3.521   0.000  0.00  0.00    -0.166 F 
ATOM      2  C   UNL     1      -3.275  -3.349   0.000  0.00  0.00    +0.419 C 
ATOM      3  F   UNL     1      -3.104  -4.156   0.000  0.00  0.00    -0.166 F 
ATOM      4  F   UNL     1      -3.447  -2.542   0.000  0.00  0.00    -0.166 F 
ENDBRANCH   5   2
ENDBRANCH   9   8
ENDBRANCH  13  12
BRANCH  17  21
ATOM     21  O   UNL     1       3.094   1.197   0.000  0.00  0.00    -0.432 OA
BRANCH  21  22
ATOM     22  C   UNL     1       3.901   1.369   0.000  0.00  0.00    +0.421 C 
ATOM     23  O   UNL     1       4.453   0.756   0.000  0.00  0.00    -0.225 OA
ATOM     24  N   UNL     1       4.156   2.153   0.000  0.00  0.00    -0.170 NA
BRANCH  24  25
ATOM     25  C   UNL     1       4.963   2.325   0.000  0.00  0.00    +0.099 C 
ATOM     26  C   UNL     1       5.218   3.109   0.000  0.00  0.00    +0.022 C 
ATOM     27  C   UNL     1       6.024   3.281   0.000  0.00  0.00    +0.002 C 
ATOM     28  C   UNL     1       6.577   2.668   0.000  0.00  0.00    +0.000 C 
ATOM     29  C   UNL     1       6.322   1.883   0.000  0.00  0.00    +0.002 C 
ATOM     30  C   UNL     1       5.515   1.712   0.000  0.00  0.00    +0.022 C 
ENDBRANCH  24  25
ENDBRANCH  21  22
ENDBRANCH  17  21
TORSDOF 6
