MODEL 1
REMARK VINA RESULT:     -11.5      0.000      0.000
REMARK  Name = 
REMARK  7 active torsions:
REMARK  status: ('A' for Active; 'I' for Inactive)
REMARK    1  A    between atoms: C_8  and  N_9
REMARK    2  A    between atoms: C_10  and  C_12
REMARK    3  A    between atoms: C_15  and  O_16
REMARK    4  A    between atoms: O_16  and  C_17
REMARK    5  A    between atoms: C_17  and  C_18
REMARK    6  A    between atoms: N_28  and  C_29
REMARK    7  A    between atoms: C_29  and  C_30
REMARK                            x       y       z     vdW  Elec       q    Type
REMARK                         _______ _______ _______ _____ _____    ______ ____
ROOT
ATOM      1  O   UNL     1      -2.095   3.722  24.887  0.00  0.00    -0.221 OA
ATOM      2  C   UNL     1      -2.786   3.271  24.904  0.00  0.00    +0.174 C 
ATOM      3  C   UNL     1      -3.490   3.695  24.976  0.00  0.00    +0.037 C 
ATOM      4  C   UNL     1      -4.263   3.408  25.008  0.00  0.00    +0.024 C 
ATOM      5  C   UNL     1      -4.523   2.626  24.976  0.00  0.00    +0.095 C 
ATOM      6  N   UNL     1      -4.074   1.938  24.904  0.00  0.00    -0.261 N 
ATOM      7  C   UNL     1      -3.255   1.861  24.846  0.00  0.00    +0.119 C 
ATOM      8  C   UNL     1      -2.682   2.455  24.846  0.00  0.00    +0.146 C 
ATOM     26  C   UNL     1      -4.502   1.232  24.887  0.00  0.00    +0.324 C 
ATOM     27  O   UNL     1      -5.325   1.247  24.942  0.00  0.00    -0.251 OA
ATOM     28  N   UNL     1      -4.106   0.511  24.816  0.00  0.00    -0.184 NA
ENDROOT
BRANCH   8   9
ATOM      9  N   UNL     1      -1.901   2.198  24.779  0.00  0.00    -0.199 NA
ATOM     10  C   UNL     1      -1.617   1.924  24.054  0.00  0.00    +0.265 C 
ATOM     11  O   UNL     1      -2.115   1.907  23.397  0.00  0.00    -0.268 OA
BRANCH  10  12
ATOM     12  C   UNL     1      -0.836   1.667  23.987  0.00  0.00    +0.055 A 
ATOM     13  C   UNL     1      -0.216   2.191  24.131  0.00  0.00    +0.008 A 
ATOM     14  C   UNL     1       0.565   1.934  24.064  0.00  0.00    +0.037 A 
ATOM     15  C   UNL     1       0.727   1.153  23.853  0.00  0.00    +0.139 A 
ATOM     24  C   UNL     1       0.106   0.629  23.709  0.00  0.00    +0.037 A 
ATOM     25  C   UNL     1      -0.675   0.886  23.776  0.00  0.00    +0.008 A 
BRANCH  15  16
ATOM     16  O   UNL     1       1.508   0.896  23.786  0.00  0.00    -0.471 OA
BRANCH  16  17
ATOM     17  C   UNL     1       1.823   0.726  23.044  0.00  0.00    +0.232 C 
BRANCH  17  18
ATOM     18  C   UNL     1       2.628   0.561  22.966  0.00  0.00    +0.021 A 
ATOM     19  C   UNL     1       2.898  -0.216  23.022  0.00  0.00    -0.001 A 
ATOM     20  C   UNL     1       3.702  -0.381  22.944  0.00  0.00    -0.000 A 
ATOM     21  C   UNL     1       4.237   0.232  22.810  0.00  0.00    -0.000 A 
ATOM     22  C   UNL     1       3.968   1.010  22.753  0.00  0.00    -0.000 A 
ATOM     23  C   UNL     1       3.164   1.175  22.831  0.00  0.00    -0.001 A 
ENDBRANCH  17  18
ENDBRANCH  16  17
ENDBRANCH  15  16
ENDBRANCH  10  12
ENDBRANCH   8   9
BRANCH  28  29
ATOM     29  C   UNL     1      -4.533  -0.194  24.800  0.00  0.00    +0.143 C 
BRANCH  29  30
ATOM     30  C   UNL     1      -4.135  -0.915  24.735  0.00  0.00    -0.001 A 
ATOM     31  C   UNL     1      -3.665  -1.183  25.357  0.00  0.00    -0.003 A 
ATOM     32  C   UNL     1      -3.267  -1.904  25.292  0.00  0.00    -0.000 A 
ATOM     33  C   UNL     1      -3.342  -2.355  24.605  0.00  0.00    -0.000 A 
ATOM     34  C   UNL     1      -3.812  -2.087  23.984  0.00  0.00    -0.000 A 
ATOM     35  C   UNL     1      -4.210  -1.366  24.048  0.00  0.00    -0.003 A 
ENDBRANCH  29  30
ENDBRANCH  28  29
TORSDOF 7
ENDMDL
MODEL 2
REMARK VINA RESULT:     -10.6      1.327      3.371
REMARK  Name = 
REMARK  7 active torsions:
REMARK  status: ('A' for Active; 'I' for Inactive)
REMARK    1  A    between atoms: C_8  and  N_9
REMARK    2  A    between atoms: C_10  and  C_12
REMARK    3  A    between atoms: C_15  and  O_16
REMARK    4  A    between atoms: O_16  and  C_17
REMARK    5  A    between atoms: C_17  and  C_18
REMARK    6  A    between atoms: N_28  and  C_29
REMARK    7  A    between atoms: C_29  and  C_30
REMARK                            x       y       z     vdW  Elec       q    Type
REMARK                         _______ _______ _______ _____ _____    ______ ____
ROOT
ATOM      1  O   UNL     1      -3.345  -0.611  23.851  0.00  0.00    -0.221 OA
ATOM      2  C   UNL     1      -3.618   0.078  24.215  0.00  0.00    +0.174 C 
ATOM      3  C   UNL     1      -4.404   0.065  24.462  0.00  0.00    +0.037 C 
ATOM      4  C   UNL     1      -4.835   0.659  24.839  0.00  0.00    +0.024 C 
ATOM      5  C   UNL     1      -4.585   1.413  25.062  0.00  0.00    +0.095 C 
ATOM      6  N   UNL     1      -3.843   1.758  24.963  0.00  0.00    -0.261 N 
ATOM      7  C   UNL     1      -3.167   1.436  24.618  0.00  0.00    +0.119 C 
ATOM      8  C   UNL     1      -3.067   0.688  24.285  0.00  0.00    +0.146 C 
ATOM     26  C   UNL     1      -3.767   2.529  25.249  0.00  0.00    +0.324 C 
ATOM     27  O   UNL     1      -4.410   2.903  25.605  0.00  0.00    -0.251 OA
ATOM     28  N   UNL     1      -3.046   2.926  25.178  0.00  0.00    -0.184 NA
ENDROOT
BRANCH   8   9
ATOM      9  N   UNL     1      -2.317   0.529  23.981  0.00  0.00    -0.199 NA
ATOM     10  C   UNL     1      -1.690   0.364  24.491  0.00  0.00    +0.265 C 
ATOM     11  O   UNL     1      -1.815   0.358  25.307  0.00  0.00    -0.268 OA
BRANCH  10  12
ATOM     12  C   UNL     1      -0.940   0.205  24.187  0.00  0.00    +0.055 A 
ATOM     13  C   UNL     1      -0.590  -0.529  24.318  0.00  0.00    +0.008 A 
ATOM     14  C   UNL     1       0.161  -0.688  24.014  0.00  0.00    +0.037 A 
ATOM     15  C   UNL     1       0.561  -0.112  23.579  0.00  0.00    +0.139 A 
ATOM     24  C   UNL     1       0.209   0.623  23.449  0.00  0.00    +0.037 A 
ATOM     25  C   UNL     1      -0.541   0.781  23.753  0.00  0.00    +0.008 A 
BRANCH  15  16
ATOM     16  O   UNL     1       1.311  -0.271  23.275  0.00  0.00    -0.471 OA
BRANCH  16  17
ATOM     17  C   UNL     1       1.726   0.318  22.875  0.00  0.00    +0.232 C 
BRANCH  17  18
ATOM     18  C   UNL     1       2.551   0.299  22.853  0.00  0.00    +0.021 A 
ATOM     19  C   UNL     1       2.978   1.000  22.779  0.00  0.00    -0.001 A 
ATOM     20  C   UNL     1       3.803   0.981  22.757  0.00  0.00    -0.000 A 
ATOM     21  C   UNL     1       4.200   0.261  22.810  0.00  0.00    -0.000 A 
ATOM     22  C   UNL     1       3.773  -0.442  22.884  0.00  0.00    -0.000 A 
ATOM     23  C   UNL     1       2.949  -0.423  22.906  0.00  0.00    -0.001 A 
ENDBRANCH  17  18
ENDBRANCH  16  17
ENDBRANCH  15  16
ENDBRANCH  10  12
ENDBRANCH   8   9
BRANCH  28  29
ATOM     29  C   UNL     1      -2.969   3.696  25.463  0.00  0.00    +0.143 C 
BRANCH  29  30
ATOM     30  C   UNL     1      -2.268   4.113  25.338  0.00  0.00    -0.001 A 
ATOM     31  C   UNL     1      -1.543   3.764  25.519  0.00  0.00    -0.003 A 
ATOM     32  C   UNL     1      -0.842   4.181  25.394  0.00  0.00    -0.000 A 
ATOM     33  C   UNL     1      -0.867   4.947  25.089  0.00  0.00    -0.000 A 
ATOM     34  C   UNL     1      -1.592   5.296  24.908  0.00  0.00    -0.000 A 
ATOM     35  C   UNL     1      -2.293   4.879  25.032  0.00  0.00    -0.003 A 
ENDBRANCH  29  30
ENDBRANCH  28  29
TORSDOF 7
ENDMDL
MODEL 3
REMARK VINA RESULT:      -9.4      2.763      4.356
REMARK  Name = 
REMARK  7 active torsions:
REMARK  status: ('A' for Active; 'I' for Inactive)
REMARK    1  A    between atoms: C_8  and  N_9
REMARK    2  A    between atoms: C_10  and  C_12
REMARK    3  A    between atoms: C_15  and  O_16
REMARK    4  A    between atoms: O_16  and  C_17
REMARK    5  A    between atoms: C_17  and  C_18
REMARK    6  A    between atoms: N_28  and  C_29
REMARK    7  A    between atoms: C_29  and  C_30
REMARK                            x       y       z     vdW  Elec       q    Type
REMARK                         _______ _______ _______ _____ _____    ______ ____
ROOT
ATOM      1  O   UNL     1       0.101   3.109  24.459  0.00  0.00    -0.221 OA
ATOM      2  C   UNL     1      -0.545   3.581  24.664  0.00  0.00    +0.174 C 
ATOM      3  C   UNL     1      -0.380   4.379  24.790  0.00  0.00    +0.037 C 
ATOM      4  C   UNL     1      -0.900   4.985  24.998  0.00  0.00    +0.024 C 
ATOM      5  C   UNL     1      -1.712   4.942  25.132  0.00  0.00    +0.095 C 
ATOM      6  N   UNL     1      -2.206   4.283  25.091  0.00  0.00    -0.261 N 
ATOM      7  C   UNL     1      -2.010   3.504  24.906  0.00  0.00    +0.119 C 
ATOM      8  C   UNL     1      -1.270   3.191  24.715  0.00  0.00    +0.146 C 
ATOM     26  C   UNL     1      -3.003   4.422  25.258  0.00  0.00    +0.324 C 
ATOM     27  O   UNL     1      -3.258   5.182  25.450  0.00  0.00    -0.251 OA
ATOM     28  N   UNL     1      -3.544   3.799  25.232  0.00  0.00    -0.184 NA
ENDROOT
BRANCH   8   9
ATOM      9  N   UNL     1      -1.254   2.382  24.556  0.00  0.00    -0.199 NA
ATOM     10  C   UNL     1      -1.358   1.838  25.167  0.00  0.00    +0.265 C 
ATOM     11  O   UNL     1      -1.478   2.105  25.938  0.00  0.00    -0.268 OA
BRANCH  10  12
ATOM     12  C   UNL     1      -1.341   1.029  25.007  0.00  0.00    +0.055 A 
ATOM     13  C   UNL     1      -0.998   0.509  25.547  0.00  0.00    +0.008 A 
ATOM     14  C   UNL     1      -0.982  -0.300  25.388  0.00  0.00    +0.037 A 
ATOM     15  C   UNL     1      -1.309  -0.590  24.688  0.00  0.00    +0.139 A 
ATOM     24  C   UNL     1      -1.652  -0.069  24.148  0.00  0.00    +0.037 A 
ATOM     25  C   UNL     1      -1.668   0.740  24.308  0.00  0.00    +0.008 A 
BRANCH  15  16
ATOM     16  O   UNL     1      -1.292  -1.399  24.528  0.00  0.00    -0.471 OA
BRANCH  16  17
ATOM     17  C   UNL     1      -1.669  -1.927  25.037  0.00  0.00    +0.232 C 
BRANCH  17  18
ATOM     18  C   UNL     1      -2.262  -2.424  24.750  0.00  0.00    +0.021 A 
ATOM     19  C   UNL     1      -3.012  -2.414  25.095  0.00  0.00    -0.001 A 
ATOM     20  C   UNL     1      -3.604  -2.911  24.808  0.00  0.00    -0.000 A 
ATOM     21  C   UNL     1      -3.448  -3.417  24.176  0.00  0.00    -0.000 A 
ATOM     22  C   UNL     1      -2.699  -3.427  23.830  0.00  0.00    -0.000 A 
ATOM     23  C   UNL     1      -2.106  -2.930  24.117  0.00  0.00    -0.001 A 
ENDBRANCH  17  18
ENDBRANCH  16  17
ENDBRANCH  15  16
ENDBRANCH  10  12
ENDBRANCH   8   9
BRANCH  28  29
ATOM     29  C   UNL     1      -4.340   3.937  25.398  0.00  0.00    +0.143 C 
BRANCH  29  30
ATOM     30  C   UNL     1      -4.874   3.307  25.405  0.00  0.00    -0.001 A 
ATOM     31  C   UNL     1      -5.308   3.143  26.087  0.00  0.00    -0.003 A 
ATOM     32  C   UNL     1      -5.842   2.514  26.094  0.00  0.00    -0.000 A 
ATOM     33  C   UNL     1      -5.941   2.050  25.418  0.00  0.00    -0.000 A 
ATOM     34  C   UNL     1      -5.508   2.214  24.737  0.00  0.00    -0.000 A 
ATOM     35  C   UNL     1      -4.973   2.844  24.730  0.00  0.00    -0.003 A 
ENDBRANCH  29  30
ENDBRANCH  28  29
TORSDOF 7
ENDMDL
MODEL 4
REMARK VINA RESULT:      -8.6      2.650      3.250
REMARK  Name = 
REMARK  7 active torsions:
REMARK  status: ('A' for Active; 'I' for Inactive)
REMARK    1  A    between atoms: C_8  and  N_9
REMARK    2  A    between atoms: C_10  and  C_12
REMARK    3  A    between atoms: C_15  and  O_16
REMARK    4  A    between atoms: O_16  and  C_17
REMARK    5  A    between atoms: C_17  and  C_18
REMARK    6  A    between atoms: N_28  and  C_29
REMARK    7  A    between atoms: C_29  and  C_30
REMARK                            x       y       z     vdW  Elec       q    Type
REMARK                         _______ _______ _______ _____ _____    ______ ____
ROOT
ATOM      1  O   UNL     1      -2.765   4.234  24.818  0.00  0.00    -0.221 OA
ATOM      2  C   UNL     1      -3.284   3.625  24.613  0.00  0.00    +0.174 C 
ATOM      3  C   UNL     1      -3.896   3.833  24.101  0.00  0.00    +0.037 C 
ATOM      4  C   UNL     1      -4.496   3.356  23.797  0.00  0.00    +0.024 C 
ATOM      5  C   UNL     1      -4.633   2.554  23.930  0.00  0.00    +0.095 C 
ATOM      6  N   UNL     1      -4.204   2.030  24.401  0.00  0.00    -0.261 N 
ATOM      7  C   UNL     1      -3.531   2.179  24.854  0.00  0.00    +0.119 C 
ATOM      8  C   UNL     1      -3.121   2.890  24.949  0.00  0.00    +0.146 C 
ATOM     26  C   UNL     1      -4.484   1.254  24.421  0.00  0.00    +0.324 C 
ATOM     27  O   UNL     1      -5.154   1.046  23.987  0.00  0.00    -0.251 OA
ATOM     28  N   UNL     1      -4.094   0.686  24.875  0.00  0.00    -0.184 NA
ENDROOT
BRANCH   8   9
ATOM      9  N   UNL     1      -2.462   2.859  25.444  0.00  0.00    -0.199 NA
ATOM     10  C   UNL     1      -1.756   2.531  25.173  0.00  0.00    +0.265 C 
ATOM     11  O   UNL     1      -1.710   2.233  24.405  0.00  0.00    -0.268 OA
BRANCH  10  12
ATOM     12  C   UNL     1      -1.097   2.501  25.668  0.00  0.00    +0.055 A 
ATOM     13  C   UNL     1      -0.676   3.189  25.836  0.00  0.00    +0.008 A 
ATOM     14  C   UNL     1      -0.017   3.159  26.332  0.00  0.00    +0.037 A 
ATOM     15  C   UNL     1       0.221   2.440  26.659  0.00  0.00    +0.139 A 
ATOM     24  C   UNL     1      -0.201   1.752  26.490  0.00  0.00    +0.037 A 
ATOM     25  C   UNL     1      -0.860   1.782  25.995  0.00  0.00    +0.008 A 
BRANCH  15  16
ATOM     16  O   UNL     1       0.880   2.410  27.154  0.00  0.00    -0.471 OA
BRANCH  16  17
ATOM     17  C   UNL     1       0.902   2.870  27.838  0.00  0.00    +0.232 C 
BRANCH  17  18
ATOM     18  C   UNL     1       1.460   2.709  28.425  0.00  0.00    +0.021 A 
ATOM     19  C   UNL     1       2.246   2.935  28.320  0.00  0.00    -0.001 A 
ATOM     20  C   UNL     1       2.804   2.774  28.907  0.00  0.00    -0.000 A 
ATOM     21  C   UNL     1       2.575   2.388  29.598  0.00  0.00    -0.000 A 
ATOM     22  C   UNL     1       1.788   2.162  29.704  0.00  0.00    -0.000 A 
ATOM     23  C   UNL     1       1.231   2.322  29.117  0.00  0.00    -0.001 A 
ENDBRANCH  17  18
ENDBRANCH  16  17
ENDBRANCH  15  16
ENDBRANCH  10  12
ENDBRANCH   8   9
BRANCH  28  29
ATOM     29  C   UNL     1      -4.374  -0.089  24.895  0.00  0.00    +0.143 C 
BRANCH  29  30
ATOM     30  C   UNL     1      -3.858  -0.709  25.069  0.00  0.00    -0.001 A 
ATOM     31  C   UNL     1      -3.528  -0.772  25.823  0.00  0.00    -0.003 A 
ATOM     32  C   UNL     1      -3.012  -1.391  25.997  0.00  0.00    -0.000 A 
ATOM     33  C   UNL     1      -2.826  -1.948  25.417  0.00  0.00    -0.000 A 
ATOM     34  C   UNL     1      -3.155  -1.886  24.664  0.00  0.00    -0.000 A 
ATOM     35  C   UNL     1      -3.672  -1.266  24.489  0.00  0.00    -0.003 A 
ENDBRANCH  29  30
ENDBRANCH  28  29
TORSDOF 7
ENDMDL
MODEL 5
REMARK VINA RESULT:      -8.3      2.356      4.982
REMARK  Name = 
REMARK  7 active torsions:
REMARK  status: ('A' for Active; 'I' for Inactive)
REMARK    1  A    between atoms: C_8  and  N_9
REMARK    2  A    between atoms: C_10  and  C_12
REMARK    3  A    between atoms: C_15  and  O_16
REMARK    4  A    between atoms: O_16  and  C_17
REMARK    5  A    between atoms: C_17  and  C_18
REMARK    6  A    between atoms: N_28  and  C_29
REMARK    7  A    between atoms: C_29  and  C_30
REMARK                            x       y       z     vdW  Elec       q    Type
REMARK                         _______ _______ _______ _____ _____    ______ ____
ROOT
ATOM      1  O   UNL     1      -5.817   2.898  25.455  0.00  0.00    -0.221 OA
ATOM      2  C   UNL     1      -5.172   3.412  25.486  0.00  0.00    +0.174 C 
ATOM      3  C   UNL     1      -5.355   4.213  25.555  0.00  0.00    +0.037 C 
ATOM      4  C   UNL     1      -4.840   4.857  25.600  0.00  0.00    +0.024 C 
ATOM      5  C   UNL     1      -4.016   4.858  25.585  0.00  0.00    +0.095 C 
ATOM      6  N   UNL     1      -3.502   4.215  25.524  0.00  0.00    -0.261 N 
ATOM      7  C   UNL     1      -3.685   3.414  25.461  0.00  0.00    +0.119 C 
ATOM      8  C   UNL     1      -4.429   3.056  25.444  0.00  0.00    +0.146 C 
ATOM     26  C   UNL     1      -2.697   4.399  25.525  0.00  0.00    +0.324 C 
ATOM     27  O   UNL     1      -2.454   5.185  25.586  0.00  0.00    -0.251 OA
ATOM     28  N   UNL     1      -2.136   3.797  25.466  0.00  0.00    -0.184 NA
ENDROOT
BRANCH   8   9
ATOM      9  N   UNL     1      -4.430   2.234  25.376  0.00  0.00    -0.199 NA
ATOM     10  C   UNL     1      -4.205   1.878  24.667  0.00  0.00    +0.265 C 
ATOM     11  O   UNL     1      -3.981   2.345  24.025  0.00  0.00    -0.268 OA
BRANCH  10  12
ATOM     12  C   UNL     1      -4.206   1.056  24.599  0.00  0.00    +0.055 A 
ATOM     13  C   UNL     1      -4.419   0.589  25.244  0.00  0.00    +0.008 A 
ATOM     14  C   UNL     1      -4.420  -0.233  25.176  0.00  0.00    +0.037 A 
ATOM     15  C   UNL     1      -4.206  -0.589  24.463  0.00  0.00    +0.139 A 
ATOM     24  C   UNL     1      -3.993  -0.121  23.818  0.00  0.00    +0.037 A 
ATOM     25  C   UNL     1      -3.992   0.701  23.886  0.00  0.00    +0.008 A 
BRANCH  15  16
ATOM     16  O   UNL     1      -4.207  -1.411  24.395  0.00  0.00    -0.471 OA
BRANCH  16  17
ATOM     17  C   UNL     1      -3.734  -1.866  24.894  0.00  0.00    +0.232 C 
BRANCH  17  18
ATOM     18  C   UNL     1      -3.257  -2.461  24.581  0.00  0.00    +0.021 A 
ATOM     19  C   UNL     1      -2.439  -2.430  24.679  0.00  0.00    -0.001 A 
ATOM     20  C   UNL     1      -1.962  -3.026  24.366  0.00  0.00    -0.000 A 
ATOM     21  C   UNL     1      -2.304  -3.653  23.955  0.00  0.00    -0.000 A 
ATOM     22  C   UNL     1      -3.122  -3.686  23.856  0.00  0.00    -0.000 A 
ATOM     23  C   UNL     1      -3.599  -3.090  24.169  0.00  0.00    -0.001 A 
ENDBRANCH  17  18
ENDBRANCH  16  17
ENDBRANCH  15  16
ENDBRANCH  10  12
ENDBRANCH   8   9
BRANCH  28  29
ATOM     29  C   UNL     1      -1.332   3.980  25.467  0.00  0.00    +0.143 C 
BRANCH  29  30
ATOM     30  C   UNL     1      -0.774   3.384  25.347  0.00  0.00    -0.001 A 
ATOM     31  C   UNL     1      -0.523   3.202  24.583  0.00  0.00    -0.003 A 
ATOM     32  C   UNL     1       0.035   2.606  24.463  0.00  0.00    -0.000 A 
ATOM     33  C   UNL     1       0.342   2.193  25.109  0.00  0.00    -0.000 A 
ATOM     34  C   UNL     1       0.092   2.375  25.873  0.00  0.00    -0.000 A 
ATOM     35  C   UNL     1      -0.467   2.971  25.993  0.00  0.00    -0.003 A 
ENDBRANCH  29  30
ENDBRANCH  28  29
TORSDOF 7
ENDMDL
