MODEL 1
REMARK VINA RESULT:      -9.3      0.000      0.000
REMARK  Name = 
REMARK  8 active torsions:
REMARK  status: ('A' for Active; 'I' for Inactive)
REMARK    1  A    between atoms: O_2  and  C_3
REMARK    2  A    between atoms: C_3  and  C_4
REMARK    3  A    between atoms: N_8  and  C_9
REMARK    4  A    between atoms: C_9  and  C_10
REMARK    5  A    between atoms: C_17  and  C_18
REMARK    6  A    between atoms: C_18  and  N_19
REMARK    7  A    between atoms: N_19  and  S_20
REMARK    8  A    between atoms: S_20  and  C_23
REMARK                            x       y       z     vdW  Elec       q    Type
REMARK                         _______ _______ _______ _____ _____    ______ ____
ROOT
ATOM     10  C   UNL     1      -2.894   2.441  24.982  0.00  0.00    +0.032 C 
ATOM     11  C   UNL     1      -2.409   1.857  24.808  0.00  0.00    +0.073 C 
ATOM     12  N   UNL     1      -3.233   1.837  24.761  0.00  0.00    -0.272 NA
ATOM     13  C   UNL     1      -3.583   2.779  25.062  0.00  0.00    +0.072 C 
ATOM     14  C   UNL     1      -4.077   3.191  25.178  0.00  0.00    +0.017 C 
ATOM     15  C   UNL     1      -3.701   2.414  24.933  0.00  0.00    +0.005 C 
ATOM     16  C   UNL     1      -4.255   1.777  24.691  0.00  0.00    +0.018 C 
ATOM     17  C   UNL     1      -3.815   1.180  24.511  0.00  0.00    +0.077 C 
ENDROOT
BRANCH  10   9
ATOM      9  C   UNL     1      -2.555   3.149  25.238  0.00  0.00    +0.073 C 
BRANCH   9   8
ATOM      4  C   UNL     1      -1.259   3.835  25.343  0.00  0.00    +0.087 C 
ATOM      5  C   UNL     1      -0.502   3.619  25.592  0.00  0.00    +0.020 C 
ATOM      6  C   UNL     1      -0.528   2.829  25.826  0.00  0.00    +0.019 C 
ATOM      7  C   UNL     1      -1.299   2.556  25.723  0.00  0.00    +0.072 C 
ATOM      8  N   UNL     1      -1.751   3.179  25.424  0.00  0.00    -0.272 NA
BRANCH   4   3
ATOM      3  C   UNL     1      -1.483   4.578  25.062  0.00  0.00    +0.158 C 
BRANCH   3   2
ATOM      1  C   UNL     1      -1.154   5.930  24.742  0.00  0.00    +0.174 C 
ATOM      2  O   UNL     1      -0.935   5.195  25.043  0.00  0.00    -0.350 OA
ENDBRANCH   3   2
ENDBRANCH   4   3
ENDBRANCH   9   8
ENDBRANCH  10   9
BRANCH  17  18
ATOM     18  C   UNL     1      -3.847   0.400  24.246  0.00  0.00    +0.131 C 
BRANCH  18  19
ATOM     19  N   UNL     1      -4.226  -0.174  24.700  0.00  0.00    -0.076 NA
BRANCH  19  20
ATOM     20  S   UNL     1      -4.063  -0.973  24.576  0.00  0.00    +0.083 S 
ATOM     21  O   UNL     1      -3.913  -1.067  25.382  0.00  0.00    -0.151 OA
ATOM     22  O   UNL     1      -4.213  -0.880  23.770  0.00  0.00    -0.151 OA
BRANCH  20  23
ATOM     23  C   UNL     1      -3.900  -1.773  24.453  0.00  0.00    +0.153 A 
ATOM     24  C   UNL     1      -4.216  -2.246  23.857  0.00  0.00    +0.027 A 
ATOM     25  C   UNL     1      -3.904  -3.005  23.940  0.00  0.00    +0.009 A 
ATOM     26  C   UNL     1      -3.394  -3.000  24.588  0.00  0.00    +0.037 A 
ATOM     27  S   UNL     1      -3.391  -2.239  24.906  0.00  0.00    -0.067 S 
ENDBRANCH  20  23
ENDBRANCH  19  20
ENDBRANCH  18  19
ENDBRANCH  17  18
TORSDOF 8
ENDMDL
MODEL 2
REMARK VINA RESULT:      -9.0      1.919      5.378
REMARK  Name = 
REMARK  8 active torsions:
REMARK  status: ('A' for Active; 'I' for Inactive)
REMARK    1  A    between atoms: O_2  and  C_3
REMARK    2  A    between atoms: C_3  and  C_4
REMARK    3  A    between atoms: N_8  and  C_9
REMARK    4  A    between atoms: C_9  and  C_10
REMARK    5  A    between atoms: C_17  and  C_18
REMARK    6  A    between atoms: C_18  and  N_19
REMARK    7  A    between atoms: N_19  and  S_20
REMARK    8  A    between atoms: S_20  and  C_23
REMARK                            x       y       z     vdW  Elec       q    Type
REMARK                         _______ _______ _______ _____ _____    ______ ____
ROOT
ATOM     10  C   UNL     1      -4.011   0.572  24.909  0.00  0.00    +0.032 C 
ATOM     11  C   UNL     1      -3.252   0.685  24.782  0.00  0.00    +0.073 C 
ATOM     12  N   UNL     1      -3.829   1.272  24.836  0.00  0.00    -0.272 NA
ATOM     13  C   UNL     1      -4.744   0.792  25.010  0.00  0.00    +0.072 C 
ATOM     14  C   UNL     1      -5.390   0.817  25.110  0.00  0.00    +0.017 C 
ATOM     15  C   UNL     1      -4.572   1.154  24.960  0.00  0.00    +0.005 C 
ATOM     16  C   UNL     1      -4.520   2.028  24.896  0.00  0.00    +0.018 C 
ATOM     17  C   UNL     1      -3.783   2.181  24.771  0.00  0.00    +0.077 C 
ENDROOT
BRANCH  10   9
ATOM      9  C   UNL     1      -4.268  -0.208  24.999  0.00  0.00    +0.073 C 
BRANCH   9   8
ATOM      4  C   UNL     1      -3.669  -1.542  24.850  0.00  0.00    +0.087 C 
ATOM      5  C   UNL     1      -3.057  -1.952  25.223  0.00  0.00    +0.020 C 
ATOM      6  C   UNL     1      -2.741  -1.461  25.805  0.00  0.00    +0.019 C 
ATOM      7  C   UNL     1      -3.155  -0.749  25.793  0.00  0.00    +0.072 C 
ATOM      8  N   UNL     1      -3.728  -0.798  25.202  0.00  0.00    -0.272 NA
BRANCH   4   3
ATOM      3  C   UNL     1      -4.137  -1.826  24.233  0.00  0.00    +0.158 C 
BRANCH   3   2
ATOM      1  C   UNL     1      -4.498  -2.877  23.336  0.00  0.00    +0.174 C 
ATOM      2  O   UNL     1      -4.036  -2.598  23.960  0.00  0.00    -0.350 OA
ENDBRANCH   3   2
ENDBRANCH   4   3
ENDBRANCH   9   8
ENDBRANCH  10   9
BRANCH  17  18
ATOM     18  C   UNL     1      -3.256   2.803  24.648  0.00  0.00    +0.131 C 
BRANCH  18  19
ATOM     19  N   UNL     1      -3.053   3.300  25.274  0.00  0.00    -0.076 NA
BRANCH  19  20
ATOM     20  S   UNL     1      -2.429   3.833  25.193  0.00  0.00    +0.083 S 
ATOM     21  O   UNL     1      -2.075   3.522  25.871  0.00  0.00    -0.151 OA
ATOM     22  O   UNL     1      -2.782   4.145  24.515  0.00  0.00    -0.151 OA
BRANCH  20  23
ATOM     23  C   UNL     1      -1.804   4.366  25.112  0.00  0.00    +0.153 A 
ATOM     24  C   UNL     1      -1.857   5.187  25.163  0.00  0.00    +0.027 A 
ATOM     25  C   UNL     1      -1.102   5.500  25.049  0.00  0.00    +0.009 A 
ATOM     26  C   UNL     1      -0.582   4.872  24.927  0.00  0.00    +0.037 A 
ATOM     27  S   UNL     1      -1.015   4.170  24.966  0.00  0.00    -0.067 S 
ENDBRANCH  20  23
ENDBRANCH  19  20
ENDBRANCH  18  19
ENDBRANCH  17  18
TORSDOF 8
ENDMDL
MODEL 3
REMARK VINA RESULT:      -8.6      2.184      5.745
REMARK  Name = 
REMARK  8 active torsions:
REMARK  status: ('A' for Active; 'I' for Inactive)
REMARK    1  A    between atoms: O_2  and  C_3
REMARK    2  A    between atoms: C_3  and  C_4
REMARK    3  A    between atoms: N_8  and  C_9
REMARK    4  A    between atoms: C_9  and  C_10
REMARK    5  A    between atoms: C_17  and  C_18
REMARK    6  A    between atoms: C_18  and  N_19
REMARK    7  A    between atoms: N_19  and  S_20
REMARK    8  A    between atoms: S_20  and  C_23
REMARK                            x       y       z     vdW  Elec       q    Type
REMARK                         _______ _______ _______ _____ _____    ______ ____
ROOT
ATOM     10  C   UNL     1      -2.155  -0.043  25.019  0.00  0.00    +0.032 C 
ATOM     11  C   UNL     1      -2.469   0.533  24.602  0.00  0.00    +0.073 C 
ATOM     12  N   UNL     1      -1.767   0.571  25.033  0.00  0.00    -0.272 NA
ATOM     13  C   UNL     1      -1.625  -0.368  25.478  0.00  0.00    +0.072 C 
ATOM     14  C   UNL     1      -1.274  -0.771  25.853  0.00  0.00    +0.017 C 
ATOM     15  C   UNL     1      -1.464   0.002  25.440  0.00  0.00    +0.005 C 
ATOM     16  C   UNL     1      -0.889   0.654  25.558  0.00  0.00    +0.018 C 
ATOM     17  C   UNL     1      -1.164   1.245  25.161  0.00  0.00    +0.077 C 
ENDROOT
BRANCH  10   9
ATOM      9  C   UNL     1      -2.559  -0.764  25.035  0.00  0.00    +0.073 C 
BRANCH   9   8
ATOM      4  C   UNL     1      -3.657  -1.525  24.423  0.00  0.00    +0.087 C 
ATOM      5  C   UNL     1      -4.394  -1.333  24.103  0.00  0.00    +0.020 C 
ATOM      6  C   UNL     1      -4.492  -0.517  24.163  0.00  0.00    +0.019 C 
ATOM      7  C   UNL     1      -3.818  -0.203  24.519  0.00  0.00    +0.072 C 
ATOM      8  N   UNL     1      -3.301  -0.827  24.680  0.00  0.00    -0.272 NA
BRANCH   4   3
ATOM      3  C   UNL     1      -3.334  -2.282  24.475  0.00  0.00    +0.158 C 
BRANCH   3   2
ATOM      1  C   UNL     1      -3.417  -3.684  24.212  0.00  0.00    +0.174 C 
ATOM      2  O   UNL     1      -3.752  -2.931  24.182  0.00  0.00    -0.350 OA
ENDBRANCH   3   2
ENDBRANCH   4   3
ENDBRANCH   9   8
ENDBRANCH  10   9
BRANCH  17  18
ATOM     18  C   UNL     1      -1.009   2.030  24.963  0.00  0.00    +0.131 C 
BRANCH  18  19
ATOM     19  N   UNL     1      -0.916   2.594  25.557  0.00  0.00    -0.076 NA
BRANCH  19  20
ATOM     20  S   UNL     1      -1.029   3.393  25.390  0.00  0.00    +0.083 S 
ATOM     21  O   UNL     1      -1.492   3.469  26.068  0.00  0.00    -0.151 OA
ATOM     22  O   UNL     1      -0.566   3.317  24.711  0.00  0.00    -0.151 OA
BRANCH  20  23
ATOM     23  C   UNL     1      -1.143   4.193  25.222  0.00  0.00    +0.153 A 
ATOM     24  C   UNL     1      -0.587   4.703  24.889  0.00  0.00    +0.027 A 
ATOM     25  C   UNL     1      -0.933   5.449  24.819  0.00  0.00    +0.009 A 
ATOM     26  C   UNL     1      -1.703   5.400  25.111  0.00  0.00    +0.037 A 
ATOM     27  S   UNL     1      -1.833   4.624  25.360  0.00  0.00    -0.067 S 
ENDBRANCH  20  23
ENDBRANCH  19  20
ENDBRANCH  18  19
ENDBRANCH  17  18
TORSDOF 8
ENDMDL
MODEL 4
REMARK VINA RESULT:      -8.0      2.979      4.220
REMARK  Name = 
REMARK  8 active torsions:
REMARK  status: ('A' for Active; 'I' for Inactive)
REMARK    1  A    between atoms: O_2  and  C_3
REMARK    2  A    between atoms: C_3  and  C_4
REMARK    3  A    between atoms: N_8  and  C_9
REMARK    4  A    between atoms: C_9  and  C_10
REMARK    5  A    between atoms: C_17  and  C_18
REMARK    6  A    between atoms: C_18  and  N_19
REMARK    7  A    between atoms: N_19  and  S_20
REMARK    8  A    between atoms: S_20  and  C_23
REMARK                            x       y       z     vdW  Elec       q    Type
REMARK                         _______ _______ _______ _____ _____    ______ ____
ROOT
ATOM     10  C   UNL     1      -0.912   1.567  24.101  0.00  0.00    +0.032 C 
ATOM     11  C   UNL     1      -1.533   1.118  23.966  0.00  0.00    +0.073 C 
ATOM     12  N   UNL     1      -1.543   1.926  24.133  0.00  0.00    -0.272 NA
ATOM     13  C   UNL     1      -0.548   2.228  24.263  0.00  0.00    +0.072 C 
ATOM     14  C   UNL     1      -0.107   2.693  24.390  0.00  0.00    +0.017 C 
ATOM     15  C   UNL     1      -0.930   2.359  24.265  0.00  0.00    +0.005 C 
ATOM     16  C   UNL     1      -1.593   2.930  24.339  0.00  0.00    +0.018 C 
ATOM     17  C   UNL     1      -2.228   2.524  24.212  0.00  0.00    +0.077 C 
ENDROOT
BRANCH  10   9
ATOM      9  C   UNL     1      -0.171   1.204  24.075  0.00  0.00    +0.073 C 
BRANCH   9   8
ATOM      4  C   UNL     1       0.424  -0.064  23.628  0.00  0.00    +0.087 C 
ATOM      5  C   UNL     1       0.284  -0.862  23.787  0.00  0.00    +0.020 C 
ATOM      6  C   UNL     1      -0.341  -0.909  24.323  0.00  0.00    +0.019 C 
ATOM      7  C   UNL     1      -0.588  -0.142  24.497  0.00  0.00    +0.072 C 
ATOM      8  N   UNL     1      -0.115   0.380  24.067  0.00  0.00    -0.272 NA
BRANCH   4   3
ATOM      3  C   UNL     1       1.001   0.235  23.121  0.00  0.00    +0.158 C 
BRANCH   3   2
ATOM      1  C   UNL     1       2.206   0.034  22.380  0.00  0.00    +0.174 C 
ATOM      2  O   UNL     1       1.549  -0.274  22.773  0.00  0.00    -0.350 OA
ENDBRANCH   3   2
ENDBRANCH   4   3
ENDBRANCH   9   8
ENDBRANCH  10   9
BRANCH  17  18
ATOM     18  C   UNL     1      -3.048   2.590  24.171  0.00  0.00    +0.131 C 
BRANCH  18  19
ATOM     19  N   UNL     1      -3.456   3.025  24.741  0.00  0.00    -0.076 NA
BRANCH  19  20
ATOM     20  S   UNL     1      -4.232   2.825  24.936  0.00  0.00    +0.083 S 
ATOM     21  O   UNL     1      -4.025   2.805  25.735  0.00  0.00    -0.151 OA
ATOM     22  O   UNL     1      -4.439   2.845  24.138  0.00  0.00    -0.151 OA
BRANCH  20  23
ATOM     23  C   UNL     1      -5.008   2.625  25.132  0.00  0.00    +0.153 A 
ATOM     24  C   UNL     1      -5.440   1.995  24.822  0.00  0.00    +0.027 A 
ATOM     25  C   UNL     1      -6.188   2.000  25.171  0.00  0.00    +0.009 A 
ATOM     26  C   UNL     1      -6.218   2.634  25.697  0.00  0.00    +0.037 A 
ATOM     27  S   UNL     1      -5.489   3.021  25.674  0.00  0.00    -0.067 S 
ENDBRANCH  20  23
ENDBRANCH  19  20
ENDBRANCH  18  19
ENDBRANCH  17  18
TORSDOF 8
ENDMDL
MODEL 5
REMARK VINA RESULT:      -7.7      1.625      2.023
REMARK  Name = 
REMARK  8 active torsions:
REMARK  status: ('A' for Active; 'I' for Inactive)
REMARK    1  A    between atoms: O_2  and  C_3
REMARK    2  A    between atoms: C_3  and  C_4
REMARK    3  A    between atoms: N_8  and  C_9
REMARK    4  A    between atoms: C_9  and  C_10
REMARK    5  A    between atoms: C_17  and  C_18
REMARK    6  A    between atoms: C_18  and  N_19
REMARK    7  A    between atoms: N_19  and  S_20
REMARK    8  A    between atoms: S_20  and  C_23
REMARK                            x       y       z     vdW  Elec       q    Type
REMARK                         _______ _______ _______ _____ _____    ______ ____
ROOT
ATOM     10  C   UNL     1      -4.578   1.955  24.808  0.00  0.00    +0.032 C 
ATOM     11  C   UNL     1      -3.940   1.707  24.438  0.00  0.00    +0.073 C 
ATOM     12  N   UNL     1      -4.543   1.232  24.741  0.00  0.00    -0.272 NA
ATOM     13  C   UNL     1      -5.252   1.870  25.176  0.00  0.00    +0.072 C 
ATOM     14  C   UNL     1      -5.815   1.961  25.494  0.00  0.00    +0.017 C 
ATOM     15  C   UNL     1      -5.166   1.482  25.102  0.00  0.00    +0.005 C 
ATOM     16  C   UNL     1      -5.275   0.611  25.104  0.00  0.00    +0.018 C 
ATOM     17  C   UNL     1      -4.663   0.327  24.747  0.00  0.00    +0.077 C 
ENDROOT
BRANCH  10   9
ATOM      9  C   UNL     1      -4.664   2.770  24.910  0.00  0.00    +0.073 C 
BRANCH   9   8
ATOM      4  C   UNL     1      -3.658   3.842  24.896  0.00  0.00    +0.087 C 
ATOM      5  C   UNL     1      -3.239   4.241  24.308  0.00  0.00    +0.020 C 
ATOM      6  C   UNL     1      -3.470   3.935  23.578  0.00  0.00    +0.019 C 
ATOM      7  C   UNL     1      -4.032   3.347  23.714  0.00  0.00    +0.072 C 
ATOM      8  N   UNL     1      -4.148   3.289  24.529  0.00  0.00    -0.272 NA
BRANCH   4   3
ATOM      3  C   UNL     1      -3.597   3.972  25.708  0.00  0.00    +0.158 C 
BRANCH   3   2
ATOM      1  C   UNL     1      -2.825   4.406  26.829  0.00  0.00    +0.174 C 
ATOM      2  O   UNL     1      -2.947   4.378  26.014  0.00  0.00    -0.350 OA
ENDBRANCH   3   2
ENDBRANCH   4   3
ENDBRANCH   9   8
ENDBRANCH  10   9
BRANCH  17  18
ATOM     18  C   UNL     1      -4.315  -0.381  24.507  0.00  0.00    +0.131 C 
BRANCH  18  19
ATOM     19  N   UNL     1      -4.086  -0.939  25.070  0.00  0.00    -0.076 NA
BRANCH  19  20
ATOM     20  S   UNL     1      -3.538  -1.523  24.873  0.00  0.00    +0.083 S 
ATOM     21  O   UNL     1      -3.103  -1.342  25.550  0.00  0.00    -0.151 OA
ATOM     22  O   UNL     1      -3.974  -1.705  24.196  0.00  0.00    -0.151 OA
BRANCH  20  23
ATOM     23  C   UNL     1      -2.991  -2.108  24.677  0.00  0.00    +0.153 A 
ATOM     24  C   UNL     1      -3.166  -2.887  24.470  0.00  0.00    +0.027 A 
ATOM     25  C   UNL     1      -2.455  -3.278  24.318  0.00  0.00    +0.009 A 
ATOM     26  C   UNL     1      -1.840  -2.740  24.431  0.00  0.00    +0.037 A 
ATOM     27  S   UNL     1      -2.171  -2.017  24.653  0.00  0.00    -0.067 S 
ENDBRANCH  20  23
ENDBRANCH  19  20
ENDBRANCH  18  19
ENDBRANCH  17  18
TORSDOF 8
ENDMDL
MODEL 6
REMARK VINA RESULT:      -7.5      2.814      4.565
REMARK  Name = 
REMARK  8 active torsions:
REMARK  status: ('A' for Active; 'I' for Inactive)
REMARK    1  A    between atoms: O_2  and  C_3
REMARK    2  A    between atoms: C_3  and  C_4
REMARK    3  A    between atoms: N_8  and  C_9
REMARK    4  A    between atoms: C_9  and  C_10
REMARK    5  A    between atoms: C_17  and  C_18
REMARK    6  A    between atoms: C_18  and  N_19
REMARK    7  A    between atoms: N_19  and  S_20
REMARK    8  A    between atoms: S_20  and  C_23
REMARK                            x       y       z     vdW  Elec       q    Type
REMARK                         _______ _______ _______ _____ _____    ______ ____
ROOT
ATOM     10  C   UNL     1      -2.893  -0.779  24.656  0.00  0.00    +0.032 C 
ATOM     11  C   UNL     1      -2.723  -0.167  25.105  0.00  0.00    +0.073 C 
ATOM     12  N   UNL     1      -3.464  -0.349  24.788  0.00  0.00    -0.272 NA
ATOM     13  C   UNL     1      -3.355  -1.232  24.234  0.00  0.00    +0.072 C 
ATOM     14  C   UNL     1      -3.609  -1.701  23.857  0.00  0.00    +0.017 C 
ATOM     15  C   UNL     1      -3.622  -0.951  24.348  0.00  0.00    +0.005 C 
ATOM     16  C   UNL     1      -4.397  -0.544  24.411  0.00  0.00    +0.018 C 
ATOM     17  C   UNL     1      -4.273   0.069  24.848  0.00  0.00    +0.077 C 
ENDROOT
BRANCH  10   9
ATOM      9  C   UNL     1      -2.277  -1.300  24.477  0.00  0.00    +0.073 C 
BRANCH   9   8
ATOM      4  C   UNL     1      -0.829  -1.159  24.691  0.00  0.00    +0.087 C 
ATOM      5  C   UNL     1      -0.326  -1.232  25.341  0.00  0.00    +0.020 C 
ATOM      6  C   UNL     1      -0.784  -1.430  25.997  0.00  0.00    +0.019 C 
ATOM      7  C   UNL     1      -1.571  -1.479  25.754  0.00  0.00    +0.072 C 
ATOM      8  N   UNL     1      -1.598  -1.312  24.947  0.00  0.00    -0.272 NA
BRANCH   4   3
ATOM      3  C   UNL     1      -0.603  -0.968  23.921  0.00  0.00    +0.158 C 
BRANCH   3   2
ATOM      1  C   UNL     1       0.354  -0.360  23.052  0.00  0.00    +0.174 C 
ATOM      2  O   UNL     1       0.172  -0.730  23.766  0.00  0.00    -0.350 OA
ENDBRANCH   3   2
ENDBRANCH   4   3
ENDBRANCH   9   8
ENDBRANCH  10   9
BRANCH  17  18
ATOM     18  C   UNL     1      -4.648   0.724  25.180  0.00  0.00    +0.131 C 
BRANCH  18  19
ATOM     19  N   UNL     1      -4.995   1.291  24.692  0.00  0.00    -0.076 NA
BRANCH  19  20
ATOM     20  S   UNL     1      -5.085   2.066  24.958  0.00  0.00    +0.083 S 
ATOM     21  O   UNL     1      -4.674   2.340  24.298  0.00  0.00    -0.151 OA
ATOM     22  O   UNL     1      -5.497   1.792  25.619  0.00  0.00    -0.151 OA
BRANCH  20  23
ATOM     23  C   UNL     1      -5.175   2.842  25.224  0.00  0.00    +0.153 A 
ATOM     24  C   UNL     1      -5.841   3.152  25.600  0.00  0.00    +0.027 A 
ATOM     25  C   UNL     1      -5.692   3.946  25.770  0.00  0.00    +0.009 A 
ATOM     26  C   UNL     1      -4.935   4.126  25.498  0.00  0.00    +0.037 A 
ATOM     27  S   UNL     1      -4.615   3.445  25.161  0.00  0.00    -0.067 S 
ENDBRANCH  20  23
ENDBRANCH  19  20
ENDBRANCH  18  19
ENDBRANCH  17  18
TORSDOF 8
ENDMDL
MODEL 7
REMARK VINA RESULT:      -7.3      3.139      4.460
REMARK  Name = 
REMARK  8 active torsions:
REMARK  status: ('A' for Active; 'I' for Inactive)
REMARK    1  A    between atoms: O_2  and  C_3
REMARK    2  A    between atoms: C_3  and  C_4
REMARK    3  A    between atoms: N_8  and  C_9
REMARK    4  A    between atoms: C_9  and  C_10
REMARK    5  A    between atoms: C_17  and  C_18
REMARK    6  A    between atoms: C_18  and  N_19
REMARK    7  A    between atoms: N_19  and  S_20
REMARK    8  A    between atoms: S_20  and  C_23
REMARK                            x       y       z     vdW  Elec       q    Type
REMARK                         _______ _______ _______ _____ _____    ______ ____
ROOT
ATOM     10  C   UNL     1      -2.767   1.166  24.368  0.00  0.00    +0.032 C 
ATOM     11  C   UNL     1      -2.348   1.718  24.015  0.00  0.00    +0.073 C 
ATOM     12  N   UNL     1      -2.089   0.959  24.208  0.00  0.00    -0.272 NA
ATOM     13  C   UNL     1      -2.890   0.467  24.672  0.00  0.00    +0.072 C 
ATOM     14  C   UNL     1      -3.142  -0.064  24.958  0.00  0.00    +0.017 C 
ATOM     15  C   UNL     1      -2.506   0.422  24.554  0.00  0.00    +0.005 C 
ATOM     16  C   UNL     1      -1.734   0.023  24.433  0.00  0.00    +0.018 C 
ATOM     17  C   UNL     1      -1.289   0.537  24.086  0.00  0.00    +0.077 C 
ENDROOT
BRANCH  10   9
ATOM      9  C   UNL     1      -3.546   1.353  24.570  0.00  0.00    +0.073 C 
BRANCH   9   8
ATOM      4  C   UNL     1      -4.523   2.441  24.723  0.00  0.00    +0.087 C 
ATOM      5  C   UNL     1      -4.625   3.186  24.382  0.00  0.00    +0.020 C 
ATOM      6  C   UNL     1      -4.016   3.302  23.838  0.00  0.00    +0.019 C 
ATOM      7  C   UNL     1      -3.538   2.630  23.841  0.00  0.00    +0.072 C 
ATOM      8  N   UNL     1      -3.851   2.098  24.389  0.00  0.00    -0.272 NA
BRANCH   4   3
ATOM      3  C   UNL     1      -5.007   2.100  25.296  0.00  0.00    +0.158 C 
BRANCH   3   2
ATOM      1  C   UNL     1      -6.162   2.159  26.135  0.00  0.00    +0.174 C 
ATOM      2  O   UNL     1      -5.689   2.491  25.547  0.00  0.00    -0.350 OA
ENDBRANCH   3   2
ENDBRANCH   4   3
ENDBRANCH   9   8
ENDBRANCH  10   9
BRANCH  17  18
ATOM     18  C   UNL     1      -0.531   0.647  23.780  0.00  0.00    +0.131 C 
BRANCH  18  19
ATOM     19  N   UNL     1       0.027   0.042  23.836  0.00  0.00    -0.076 NA
BRANCH  19  20
ATOM     20  S   UNL     1       0.744   0.103  23.434  0.00  0.00    +0.083 S 
ATOM     21  O   UNL     1       0.876   0.840  23.782  0.00  0.00    -0.151 OA
ATOM     22  O   UNL     1       0.613  -0.633  23.086  0.00  0.00    -0.151 OA
BRANCH  20  23
ATOM     23  C   UNL     1       1.462   0.165  23.031  0.00  0.00    +0.153 A 
ATOM     24  C   UNL     1       2.100   0.641  23.248  0.00  0.00    +0.027 A 
ATOM     25  C   UNL     1       2.701   0.532  22.693  0.00  0.00    +0.009 A 
ATOM     26  C   UNL     1       2.433  -0.010  22.133  0.00  0.00    +0.037 A 
ATOM     27  S   UNL     1       1.668  -0.238  22.341  0.00  0.00    -0.067 S 
ENDBRANCH  20  23
ENDBRANCH  19  20
ENDBRANCH  18  19
ENDBRANCH  17  18
TORSDOF 8
ENDMDL
