MODEL 1
REMARK VINA RESULT:      -8.0      0.000      0.000
REMARK  Name = 
REMARK  5 active torsions:
REMARK  status: ('A' for Active; 'I' for Inactive)
REMARK    1  A    between atoms: C_2  and  C_3
REMARK    2  A    between atoms: C_3  and  N_4
REMARK    3  A    between atoms: N_14  and  C_15
REMARK    4  A    between atoms: C_15  and  C_16
REMARK    5  A    between atoms: C_16  and  N_17
REMARK                            x       y       z     vdW  Elec       q    Type
REMARK                         _______ _______ _______ _____ _____    ______ ____
ROOT
ATOM      4  N   UNL     1      -4.541   1.571  25.000  0.00  0.00    -0.184 NA
ATOM      5  C   UNL     1      -3.847   1.778  24.603  0.00  0.00    +0.324 C 
ATOM      6  O   UNL     1      -3.795   2.503  24.213  0.00  0.00    -0.251 OA
ATOM      7  N   UNL     1      -3.206   1.257  24.597  0.00  0.00    -0.263 N 
ATOM      8  C   UNL     1      -3.259   0.532  24.987  0.00  0.00    +0.095 C 
ATOM      9  C   UNL     1      -2.618   0.013  24.980  0.00  0.00    +0.022 C 
ATOM     10  C   UNL     1      -1.924   0.218  24.583  0.00  0.00    +0.012 C 
ATOM     11  C   UNL     1      -1.355  -0.375  24.644  0.00  0.00    +0.085 C 
ATOM     12  C   UNL     1      -0.592  -0.390  24.330  0.00  0.00    +0.226 C 
ATOM     13  O   UNL     1      -0.154  -1.071  24.491  0.00  0.00    -0.275 OA
ATOM     14  N   UNL     1      -0.210   0.185  23.878  0.00  0.00    -0.278 N 
ATOM     23  C   UNL     1      -0.497   0.916  23.628  0.00  0.00    +0.094 C 
ATOM     24  C   UNL     1      -1.236   1.255  23.768  0.00  0.00    +0.023 C 
ATOM     25  C   UNL     1      -1.872   0.944  24.193  0.00  0.00    +0.022 C 
ATOM     26  C   UNL     1      -2.513   1.464  24.200  0.00  0.00    +0.095 C 
ENDROOT
BRANCH   4   3
ATOM      3  C   UNL     1      -5.182   2.091  25.006  0.00  0.00    +0.143 C 
BRANCH   3   2
ATOM      1  C   UNL     1      -6.245   2.297  25.938  0.00  0.00    -0.003 C 
ATOM      2  C   UNL     1      -5.901   1.854  25.332  0.00  0.00    -0.003 C 
ENDBRANCH   3   2
ENDBRANCH   4   3
BRANCH  14  15
ATOM     15  C   UNL     1       0.560   0.003  23.645  0.00  0.00    +0.115 C 
BRANCH  15  16
ATOM     16  C   UNL     1       0.815   0.187  22.882  0.00  0.00    +0.117 C 
BRANCH  16  17
ATOM     17  N   UNL     1       1.618   0.165  22.699  0.00  0.00    -0.259 N 
ATOM     18  C   UNL     1       2.232   0.431  23.180  0.00  0.00    +0.118 C 
ATOM     19  C   UNL     1       2.943   0.303  22.780  0.00  0.00    +0.138 C 
ATOM     20  N   UNL     1       2.768  -0.042  22.052  0.00  0.00    -0.187 NA
ATOM     21  C   UNL     1       1.948  -0.127  22.001  0.00  0.00    +0.323 C 
ATOM     22  O   UNL     1       1.534  -0.448  21.365  0.00  0.00    -0.251 OA
ENDBRANCH  16  17
ENDBRANCH  15  16
ENDBRANCH  14  15
TORSDOF 5
ENDMDL
MODEL 2
REMARK VINA RESULT:      -7.9      1.256      6.032
REMARK  Name = 
REMARK  5 active torsions:
REMARK  status: ('A' for Active; 'I' for Inactive)
REMARK    1  A    between atoms: C_2  and  C_3
REMARK    2  A    between atoms: C_3  and  N_4
REMARK    3  A    between atoms: N_14  and  C_15
REMARK    4  A    between atoms: C_15  and  C_16
REMARK    5  A    between atoms: C_16  and  N_17
REMARK                            x       y       z     vdW  Elec       q    Type
REMARK                         _______ _______ _______ _____ _____    ______ ____
ROOT
ATOM      4  N   UNL     1       1.622   0.661  23.322  0.00  0.00    -0.184 NA
ATOM      5  C   UNL     1       0.806   0.541  23.341  0.00  0.00    +0.324 C 
ATOM      6  O   UNL     1       0.474  -0.104  22.948  0.00  0.00    -0.251 OA
ATOM      7  N   UNL     1       0.321   1.067  23.753  0.00  0.00    -0.263 N 
ATOM      8  C   UNL     1       0.653   1.712  24.146  0.00  0.00    +0.095 C 
ATOM      9  C   UNL     1       0.169   2.237  24.558  0.00  0.00    +0.022 C 
ATOM     10  C   UNL     1      -0.647   2.119  24.578  0.00  0.00    +0.012 C 
ATOM     11  C   UNL     1      -1.027   2.704  25.018  0.00  0.00    +0.085 C 
ATOM     12  C   UNL     1      -1.833   2.789  25.173  0.00  0.00    +0.226 C 
ATOM     13  O   UNL     1      -2.040   3.440  25.636  0.00  0.00    -0.275 OA
ATOM     14  N   UNL     1      -2.457   2.309  24.927  0.00  0.00    -0.278 N 
ATOM     23  C   UNL     1      -2.431   1.627  24.465  0.00  0.00    +0.094 C 
ATOM     24  C   UNL     1      -1.773   1.254  24.135  0.00  0.00    +0.023 C 
ATOM     25  C   UNL     1      -0.979   1.474  24.185  0.00  0.00    +0.022 C 
ATOM     26  C   UNL     1      -0.495   0.947  23.772  0.00  0.00    +0.095 C 
ENDROOT
BRANCH   4   3
ATOM      3  C   UNL     1       2.106   0.135  22.909  0.00  0.00    +0.143 C 
BRANCH   3   2
ATOM      1  C   UNL     1       3.488  -0.128  22.663  0.00  0.00    -0.003 C 
ATOM      2  C   UNL     1       2.842   0.384  22.631  0.00  0.00    -0.003 C 
ENDBRANCH   3   2
ENDBRANCH   4   3
BRANCH  14  15
ATOM     15  C   UNL     1      -3.208   2.544  25.177  0.00  0.00    +0.115 C 
BRANCH  15  16
ATOM     16  C   UNL     1      -3.875   2.128  24.925  0.00  0.00    +0.117 C 
BRANCH  16  17
ATOM     17  N   UNL     1      -4.625   2.365  25.171  0.00  0.00    -0.259 N 
ATOM     18  C   UNL     1      -4.827   3.108  25.466  0.00  0.00    +0.118 C 
ATOM     19  C   UNL     1      -5.633   3.103  25.642  0.00  0.00    +0.138 C 
ATOM     20  N   UNL     1      -5.930   2.356  25.455  0.00  0.00    -0.187 NA
ATOM     21  C   UNL     1      -5.307   1.900  25.163  0.00  0.00    +0.323 C 
ATOM     22  O   UNL     1      -5.359   1.117  24.910  0.00  0.00    -0.251 OA
ENDBRANCH  16  17
ENDBRANCH  15  16
ENDBRANCH  14  15
TORSDOF 5
ENDMDL
MODEL 3
REMARK VINA RESULT:      -7.7      3.303      4.771
REMARK  Name = 
REMARK  5 active torsions:
REMARK  status: ('A' for Active; 'I' for Inactive)
REMARK    1  A    between atoms: C_2  and  C_3
REMARK    2  A    between atoms: C_3  and  N_4
REMARK    3  A    between atoms: N_14  and  C_15
REMARK    4  A    between atoms: C_15  and  C_16
REMARK    5  A    between atoms: C_16  and  N_17
REMARK                            x       y       z     vdW  Elec       q    Type
REMARK                         _______ _______ _______ _____ _____    ______ ____
ROOT
ATOM      4  N   UNL     1      -1.838   4.290  25.063  0.00  0.00    -0.184 NA
ATOM      5  C   UNL     1      -1.693   3.485  24.958  0.00  0.00    +0.324 C 
ATOM      6  O   UNL     1      -0.918   3.209  24.896  0.00  0.00    -0.251 OA
ATOM      7  N   UNL     1      -2.324   2.955  24.915  0.00  0.00    -0.263 N 
ATOM      8  C   UNL     1      -3.099   3.230  24.976  0.00  0.00    +0.095 C 
ATOM      9  C   UNL     1      -3.730   2.701  24.933  0.00  0.00    +0.022 C 
ATOM     10  C   UNL     1      -3.586   1.895  24.828  0.00  0.00    +0.012 C 
ATOM     11  C   UNL     1      -4.289   1.464  24.800  0.00  0.00    +0.085 C 
ATOM     12  C   UNL     1      -4.390   0.651  24.703  0.00  0.00    +0.226 C 
ATOM     13  O   UNL     1      -5.172   0.387  24.698  0.00  0.00    -0.275 OA
ATOM     14  N   UNL     1      -3.814   0.068  24.610  0.00  0.00    -0.278 N 
ATOM     23  C   UNL     1      -2.994   0.155  24.591  0.00  0.00    +0.094 C 
ATOM     24  C   UNL     1      -2.547   0.844  24.661  0.00  0.00    +0.023 C 
ATOM     25  C   UNL     1      -2.811   1.619  24.766  0.00  0.00    +0.022 C 
ATOM     26  C   UNL     1      -2.180   2.149  24.810  0.00  0.00    +0.095 C 
ENDROOT
BRANCH   4   3
ATOM      3  C   UNL     1      -1.206   4.820  25.106  0.00  0.00    +0.143 C 
BRANCH   3   2
ATOM      1  C   UNL     1      -0.822   6.130  24.686  0.00  0.00    -0.003 C 
ATOM      2  C   UNL     1      -1.348   5.632  25.082  0.00  0.00    -0.003 C 
ENDBRANCH   3   2
ENDBRANCH   4   3
BRANCH  14  15
ATOM     15  C   UNL     1      -4.095  -0.702  24.524  0.00  0.00    +0.115 C 
BRANCH  15  16
ATOM     16  C   UNL     1      -3.615  -1.342  24.730  0.00  0.00    +0.117 C 
BRANCH  16  17
ATOM     17  N   UNL     1      -3.784  -2.094  24.439  0.00  0.00    -0.259 N 
ATOM     18  C   UNL     1      -4.187  -2.265  23.740  0.00  0.00    +0.118 C 
ATOM     19  C   UNL     1      -4.232  -3.085  23.664  0.00  0.00    +0.138 C 
ATOM     20  N   UNL     1      -3.857  -3.422  24.317  0.00  0.00    -0.187 NA
ATOM     21  C   UNL     1      -3.580  -2.810  24.796  0.00  0.00    +0.323 C 
ATOM     22  O   UNL     1      -3.171  -2.898  25.506  0.00  0.00    -0.251 OA
ENDBRANCH  16  17
ENDBRANCH  15  16
ENDBRANCH  14  15
TORSDOF 5
ENDMDL
MODEL 4
REMARK VINA RESULT:      -7.5      1.037      1.313
REMARK  Name = 
REMARK  5 active torsions:
REMARK  status: ('A' for Active; 'I' for Inactive)
REMARK    1  A    between atoms: C_2  and  C_3
REMARK    2  A    between atoms: C_3  and  N_4
REMARK    3  A    between atoms: N_14  and  C_15
REMARK    4  A    between atoms: C_15  and  C_16
REMARK    5  A    between atoms: C_16  and  N_17
REMARK                            x       y       z     vdW  Elec       q    Type
REMARK                         _______ _______ _______ _____ _____    ______ ____
ROOT
ATOM      4  N   UNL     1      -4.321   1.723  24.998  0.00  0.00    -0.184 NA
ATOM      5  C   UNL     1      -3.775   1.208  24.656  0.00  0.00    +0.324 C 
ATOM      6  O   UNL     1      -4.026   0.485  24.347  0.00  0.00    -0.251 OA
ATOM      7  N   UNL     1      -2.977   1.417  24.622  0.00  0.00    -0.263 N 
ATOM      8  C   UNL     1      -2.726   2.140  24.931  0.00  0.00    +0.095 C 
ATOM      9  C   UNL     1      -1.929   2.348  24.897  0.00  0.00    +0.022 C 
ATOM     10  C   UNL     1      -1.382   1.834  24.556  0.00  0.00    +0.012 C 
ATOM     11  C   UNL     1      -0.619   2.147  24.578  0.00  0.00    +0.085 C 
ATOM     12  C   UNL     1       0.082   1.813  24.298  0.00  0.00    +0.226 C 
ATOM     13  O   UNL     1       0.762   2.269  24.405  0.00  0.00    -0.275 OA
ATOM     14  N   UNL     1       0.193   1.085  23.927  0.00  0.00    -0.278 N 
ATOM     23  C   UNL     1      -0.370   0.511  23.743  0.00  0.00    +0.094 C 
ATOM     24  C   UNL     1      -1.182   0.522  23.885  0.00  0.00    +0.023 C 
ATOM     25  C   UNL     1      -1.632   1.111  24.247  0.00  0.00    +0.022 C 
ATOM     26  C   UNL     1      -2.430   0.902  24.280  0.00  0.00    +0.095 C 
ENDROOT
BRANCH   4   3
ATOM      3  C   UNL     1      -5.119   1.514  25.031  0.00  0.00    +0.143 C 
BRANCH   3   2
ATOM      1  C   UNL     1      -6.230   2.005  25.783  0.00  0.00    -0.003 C 
ATOM      2  C   UNL     1      -5.691   2.093  25.165  0.00  0.00    -0.003 C 
ENDBRANCH   3   2
ENDBRANCH   4   3
BRANCH  14  15
ATOM     15  C   UNL     1       0.969   0.909  23.710  0.00  0.00    +0.115 C 
BRANCH  15  16
ATOM     16  C   UNL     1       1.116   0.373  23.099  0.00  0.00    +0.117 C 
BRANCH  16  17
ATOM     17  N   UNL     1       1.875   0.302  22.786  0.00  0.00    -0.259 N 
ATOM     18  C   UNL     1       2.569   0.582  23.130  0.00  0.00    +0.118 C 
ATOM     19  C   UNL     1       3.197   0.392  22.630  0.00  0.00    +0.138 C 
ATOM     20  N   UNL     1       2.890  -0.005  21.975  0.00  0.00    -0.187 NA
ATOM     21  C   UNL     1       2.073  -0.061  22.072  0.00  0.00    +0.323 C 
ATOM     22  O   UNL     1       1.547  -0.417  21.546  0.00  0.00    -0.251 OA
ENDBRANCH  16  17
ENDBRANCH  15  16
ENDBRANCH  14  15
TORSDOF 5
ENDMDL
MODEL 5
REMARK VINA RESULT:      -7.3      3.149      4.625
REMARK  Name = 
REMARK  5 active torsions:
REMARK  status: ('A' for Active; 'I' for Inactive)
REMARK    1  A    between atoms: C_2  and  C_3
REMARK    2  A    between atoms: C_3  and  N_4
REMARK    3  A    between atoms: N_14  and  C_15
REMARK    4  A    between atoms: C_15  and  C_16
REMARK    5  A    between atoms: C_16  and  N_17
REMARK                            x       y       z     vdW  Elec       q    Type
REMARK                         _______ _______ _______ _____ _____    ______ ____
ROOT
ATOM      4  N   UNL     1      -3.626  -1.918  24.426  0.00  0.00    -0.184 NA
ATOM      5  C   UNL     1      -3.048  -1.348  24.571  0.00  0.00    +0.324 C 
ATOM      6  O   UNL     1      -2.266  -1.577  24.704  0.00  0.00    -0.251 OA
ATOM      7  N   UNL     1      -3.252  -0.548  24.583  0.00  0.00    -0.263 N 
ATOM      8  C   UNL     1      -4.033  -0.319  24.450  0.00  0.00    +0.095 C 
ATOM      9  C   UNL     1      -4.237   0.479  24.462  0.00  0.00    +0.022 C 
ATOM     10  C   UNL     1      -3.659   1.051  24.607  0.00  0.00    +0.012 C 
ATOM     11  C   UNL     1      -3.977   1.812  24.595  0.00  0.00    +0.085 C 
ATOM     12  C   UNL     1      -3.592   2.532  24.713  0.00  0.00    +0.226 C 
ATOM     13  O   UNL     1      -4.069   3.203  24.666  0.00  0.00    -0.275 OA
ATOM     14  N   UNL     1      -2.795   2.669  24.873  0.00  0.00    -0.278 N 
ATOM     23  C   UNL     1      -2.185   2.120  24.953  0.00  0.00    +0.094 C 
ATOM     24  C   UNL     1      -2.221   1.298  24.894  0.00  0.00    +0.023 C 
ATOM     25  C   UNL     1      -2.878   0.822  24.740  0.00  0.00    +0.022 C 
ATOM     26  C   UNL     1      -2.674   0.022  24.728  0.00  0.00    +0.095 C 
ENDROOT
BRANCH   4   3
ATOM      3  C   UNL     1      -3.422  -2.718  24.414  0.00  0.00    +0.143 C 
BRANCH   3   2
ATOM      1  C   UNL     1      -4.033  -3.705  23.581  0.00  0.00    -0.003 C 
ATOM      2  C   UNL     1      -4.005  -3.290  24.294  0.00  0.00    -0.003 C 
ENDBRANCH   3   2
ENDBRANCH   4   3
BRANCH  14  15
ATOM     15  C   UNL     1      -2.579   3.460  24.963  0.00  0.00    +0.115 C 
BRANCH  15  16
ATOM     16  C   UNL     1      -1.783   3.663  25.052  0.00  0.00    +0.117 C 
BRANCH  16  17
ATOM     17  N   UNL     1      -1.557   4.455  25.040  0.00  0.00    -0.259 N 
ATOM     18  C   UNL     1      -2.023   5.097  25.267  0.00  0.00    +0.118 C 
ATOM     19  C   UNL     1      -1.577   5.784  25.166  0.00  0.00    +0.138 C 
ATOM     20  N   UNL     1      -0.836   5.568  24.876  0.00  0.00    -0.187 NA
ATOM     21  C   UNL     1      -0.823   4.746  24.798  0.00  0.00    +0.323 C 
ATOM     22  O   UNL     1      -0.188   4.296  24.527  0.00  0.00    -0.251 OA
ENDBRANCH  16  17
ENDBRANCH  15  16
ENDBRANCH  14  15
TORSDOF 5
ENDMDL
MODEL 6
REMARK VINA RESULT:      -7.1      3.094      4.418
REMARK  Name = 
REMARK  5 active torsions:
REMARK  status: ('A' for Active; 'I' for Inactive)
REMARK    1  A    between atoms: C_2  and  C_3
REMARK    2  A    between atoms: C_3  and  N_4
REMARK    3  A    between atoms: N_14  and  C_15
REMARK    4  A    between atoms: C_15  and  C_16
REMARK    5  A    between atoms: C_16  and  N_17
REMARK                            x       y       z     vdW  Elec       q    Type
REMARK                         _______ _______ _______ _____ _____    ______ ____
ROOT
ATOM      4  N   UNL     1      -3.183  -2.007  24.652  0.00  0.00    -0.184 NA
ATOM      5  C   UNL     1      -3.290  -1.201  24.515  0.00  0.00    +0.324 C 
ATOM      6  O   UNL     1      -3.970  -0.933  24.132  0.00  0.00    -0.251 OA
ATOM      7  N   UNL     1      -2.716  -0.661  24.763  0.00  0.00    -0.263 N 
ATOM      8  C   UNL     1      -2.036  -0.929  25.146  0.00  0.00    +0.095 C 
ATOM      9  C   UNL     1      -1.463  -0.390  25.393  0.00  0.00    +0.022 C 
ATOM     10  C   UNL     1      -1.569   0.417  25.257  0.00  0.00    +0.012 C 
ATOM     11  C   UNL     1      -0.934   0.858  25.546  0.00  0.00    +0.085 C 
ATOM     12  C   UNL     1      -0.823   1.675  25.522  0.00  0.00    +0.226 C 
ATOM     13  O   UNL     1      -0.123   1.950  25.862  0.00  0.00    -0.275 OA
ATOM     14  N   UNL     1      -1.318   2.253  25.205  0.00  0.00    -0.278 N 
ATOM     23  C   UNL     1      -2.047   2.157  24.832  0.00  0.00    +0.094 C 
ATOM     24  C   UNL     1      -2.462   1.459  24.684  0.00  0.00    +0.023 C 
ATOM     25  C   UNL     1      -2.248   0.685  24.873  0.00  0.00    +0.022 C 
ATOM     26  C   UNL     1      -2.823   0.145  24.626  0.00  0.00    +0.095 C 
ENDROOT
BRANCH   4   3
ATOM      3  C   UNL     1      -3.757  -2.546  24.405  0.00  0.00    +0.143 C 
BRANCH   3   2
ATOM      1  C   UNL     1      -3.977  -3.850  23.865  0.00  0.00    -0.003 C 
ATOM      2  C   UNL     1      -3.587  -3.354  24.396  0.00  0.00    -0.003 C 
ENDBRANCH   3   2
ENDBRANCH   4   3
BRANCH  14  15
ATOM     15  C   UNL     1      -1.048   3.030  25.269  0.00  0.00    +0.115 C 
BRANCH  15  16
ATOM     16  C   UNL     1      -1.589   3.654  25.302  0.00  0.00    +0.117 C 
BRANCH  16  17
ATOM     17  N   UNL     1      -1.341   4.423  25.141  0.00  0.00    -0.259 N 
ATOM     18  C   UNL     1      -0.642   4.637  24.760  0.00  0.00    +0.118 C 
ATOM     19  C   UNL     1      -0.618   5.461  24.715  0.00  0.00    +0.138 C 
ATOM     20  N   UNL     1      -1.303   5.756  25.068  0.00  0.00    -0.187 NA
ATOM     21  C   UNL     1      -1.750   5.114  25.331  0.00  0.00    +0.323 C 
ATOM     22  O   UNL     1      -2.478   5.157  25.716  0.00  0.00    -0.251 OA
ENDBRANCH  16  17
ENDBRANCH  15  16
ENDBRANCH  14  15
TORSDOF 5
ENDMDL
MODEL 7
REMARK VINA RESULT:      -6.5     14.773     15.580
REMARK  Name = 
REMARK  5 active torsions:
REMARK  status: ('A' for Active; 'I' for Inactive)
REMARK    1  A    between atoms: C_2  and  C_3
REMARK    2  A    between atoms: C_3  and  N_4
REMARK    3  A    between atoms: N_14  and  C_15
REMARK    4  A    between atoms: C_15  and  C_16
REMARK    5  A    between atoms: C_16  and  N_17
REMARK                            x       y       z     vdW  Elec       q    Type
REMARK                         _______ _______ _______ _____ _____    ______ ____
ROOT
ATOM      4  N   UNL     1      -5.300 -10.562  17.210  0.00  0.00    -0.184 NA
ATOM      5  C   UNL     1      -5.591 -10.398  16.456  0.00  0.00    +0.324 C 
ATOM      6  O   UNL     1      -6.376 -10.162  16.358  0.00  0.00    -0.251 OA
ATOM      7  N   UNL     1      -5.097 -10.471  15.799  0.00  0.00    -0.263 N 
ATOM      8  C   UNL     1      -4.313 -10.708  15.896  0.00  0.00    +0.095 C 
ATOM      9  C   UNL     1      -3.820 -10.781  15.240  0.00  0.00    +0.022 C 
ATOM     10  C   UNL     1      -4.110 -10.617  14.485  0.00  0.00    +0.012 C 
ATOM     11  C   UNL     1      -3.529 -10.724  13.908  0.00  0.00    +0.085 C 
ATOM     12  C   UNL     1      -3.590 -10.620  13.092  0.00  0.00    +0.226 C 
ATOM     13  O   UNL     1      -2.903 -10.773  12.661  0.00  0.00    -0.275 OA
ATOM     14  N   UNL     1      -4.246 -10.384  12.651  0.00  0.00    -0.278 N 
ATOM     23  C   UNL     1      -5.003 -10.194  12.916  0.00  0.00    +0.094 C 
ATOM     24  C   UNL     1      -5.292 -10.192  13.689  0.00  0.00    +0.023 C 
ATOM     25  C   UNL     1      -4.894 -10.381  14.387  0.00  0.00    +0.022 C 
ATOM     26  C   UNL     1      -5.388 -10.308  15.044  0.00  0.00    +0.095 C 
ENDROOT
BRANCH   4   3
ATOM      3  C   UNL     1      -5.794 -10.489  17.868  0.00  0.00    +0.143 C 
BRANCH   3   2
ATOM      1  C   UNL     1      -5.992 -10.634  19.274  0.00  0.00    -0.003 C 
ATOM      2  C   UNL     1      -5.484 -10.573  18.627  0.00  0.00    -0.003 C 
ENDBRANCH   3   2
ENDBRANCH   4   3
BRANCH  14  15
ATOM     15  C   UNL     1      -4.128 -10.332  11.836  0.00  0.00    +0.115 C 
BRANCH  15  16
ATOM     16  C   UNL     1      -4.470  -9.714  11.408  0.00  0.00    +0.117 C 
BRANCH  16  17
ATOM     17  N   UNL     1      -4.341  -9.653  10.597  0.00  0.00    -0.259 N 
ATOM     18  C   UNL     1      -4.137 -10.271  10.090  0.00  0.00    +0.118 C 
ATOM     19  C   UNL     1      -4.063  -9.964   9.328  0.00  0.00    +0.138 C 
ATOM     20  N   UNL     1      -4.221  -9.155   9.364  0.00  0.00    -0.187 NA
ATOM     21  C   UNL     1      -4.394  -8.963  10.148  0.00  0.00    +0.323 C 
ATOM     22  O   UNL     1      -4.584  -8.213  10.431  0.00  0.00    -0.251 OA
ENDBRANCH  16  17
ENDBRANCH  15  16
ENDBRANCH  14  15
TORSDOF 5
ENDMDL
MODEL 8
REMARK VINA RESULT:      -6.1     13.810     14.207
REMARK  Name = 
REMARK  5 active torsions:
REMARK  status: ('A' for Active; 'I' for Inactive)
REMARK    1  A    between atoms: C_2  and  C_3
REMARK    2  A    between atoms: C_3  and  N_4
REMARK    3  A    between atoms: N_14  and  C_15
REMARK    4  A    between atoms: C_15  and  C_16
REMARK    5  A    between atoms: C_16  and  N_17
REMARK                            x       y       z     vdW  Elec       q    Type
REMARK                         _______ _______ _______ _____ _____    ______ ____
ROOT
ATOM      4  N   UNL     1      -8.634 -10.472  18.628  0.00  0.00    -0.184 NA
ATOM      5  C   UNL     1      -8.295 -10.493  17.876  0.00  0.00    +0.324 C 
ATOM      6  O   UNL     1      -8.776 -10.505  17.206  0.00  0.00    -0.251 OA
ATOM      7  N   UNL     1      -7.473 -10.502  17.795  0.00  0.00    -0.263 N 
ATOM      8  C   UNL     1      -6.992 -10.490  18.465  0.00  0.00    +0.095 C 
ATOM      9  C   UNL     1      -6.172 -10.499  18.383  0.00  0.00    +0.022 C 
ATOM     10  C   UNL     1      -5.831 -10.521  17.632  0.00  0.00    +0.012 C 
ATOM     11  C   UNL     1      -5.008 -10.527  17.674  0.00  0.00    +0.085 C 
ATOM     12  C   UNL     1      -4.462 -10.547  17.056  0.00  0.00    +0.226 C 
ATOM     13  O   UNL     1      -3.668 -10.548  17.281  0.00  0.00    -0.275 OA
ATOM     14  N   UNL     1      -4.604 -10.566  16.244  0.00  0.00    -0.278 N 
ATOM     23  C   UNL     1      -5.328 -10.569  15.849  0.00  0.00    +0.094 C 
ATOM     24  C   UNL     1      -6.089 -10.555  16.168  0.00  0.00    +0.023 C 
ATOM     25  C   UNL     1      -6.312 -10.533  16.962  0.00  0.00    +0.022 C 
ATOM     26  C   UNL     1      -7.134 -10.524  17.043  0.00  0.00    +0.095 C 
ENDROOT
BRANCH   4   3
ATOM      3  C   UNL     1      -9.456 -10.462  18.709  0.00  0.00    +0.143 C 
BRANCH   3   2
ATOM      1  C   UNL     1     -10.614 -10.618  19.529  0.00  0.00    -0.003 C 
ATOM      2  C   UNL     1      -9.796 -10.536  19.456  0.00  0.00    -0.003 C 
ENDBRANCH   3   2
ENDBRANCH   4   3
BRANCH  14  15
ATOM     15  C   UNL     1      -3.934 -10.583  15.763  0.00  0.00    +0.115 C 
BRANCH  15  16
ATOM     16  C   UNL     1      -4.015 -10.656  14.944  0.00  0.00    +0.117 C 
BRANCH  16  17
ATOM     17  N   UNL     1      -3.345 -10.676  14.464  0.00  0.00    -0.259 N 
ATOM     18  C   UNL     1      -2.567 -10.763  14.721  0.00  0.00    +0.118 C 
ATOM     19  C   UNL     1      -2.076 -10.753  14.058  0.00  0.00    +0.138 C 
ATOM     20  N   UNL     1      -2.552 -10.660  13.390  0.00  0.00    -0.187 NA
ATOM     21  C   UNL     1      -3.336 -10.612  13.641  0.00  0.00    +0.323 C 
ATOM     22  O   UNL     1      -3.995 -10.516  13.155  0.00  0.00    -0.251 OA
ENDBRANCH  16  17
ENDBRANCH  15  16
ENDBRANCH  14  15
TORSDOF 5
ENDMDL
MODEL 9
REMARK VINA RESULT:      -5.8     16.224     17.070
REMARK  Name = 
REMARK  5 active torsions:
REMARK  status: ('A' for Active; 'I' for Inactive)
REMARK    1  A    between atoms: C_2  and  C_3
REMARK    2  A    between atoms: C_3  and  N_4
REMARK    3  A    between atoms: N_14  and  C_15
REMARK    4  A    between atoms: C_15  and  C_16
REMARK    5  A    between atoms: C_16  and  N_17
REMARK                            x       y       z     vdW  Elec       q    Type
REMARK                         _______ _______ _______ _____ _____    ______ ____
ROOT
ATOM      4  N   UNL     1      -7.591  -7.937   8.902  0.00  0.00    -0.184 NA
ATOM      5  C   UNL     1      -7.362  -8.346   9.581  0.00  0.00    +0.324 C 
ATOM      6  O   UNL     1      -7.930  -8.587  10.129  0.00  0.00    -0.251 OA
ATOM      7  N   UNL     1      -6.565  -8.513   9.713  0.00  0.00    -0.263 N 
ATOM      8  C   UNL     1      -5.996  -8.272   9.165  0.00  0.00    +0.095 C 
ATOM      9  C   UNL     1      -5.200  -8.440   9.297  0.00  0.00    +0.022 C 
ATOM     10  C   UNL     1      -4.970  -8.848   9.976  0.00  0.00    +0.012 C 
ATOM     11  C   UNL     1      -4.153  -8.958  10.001  0.00  0.00    +0.085 C 
ATOM     12  C   UNL     1      -3.703  -9.336  10.579  0.00  0.00    +0.226 C 
ATOM     13  O   UNL     1      -2.889  -9.354  10.442  0.00  0.00    -0.275 OA
ATOM     14  N   UNL     1      -3.957  -9.697  11.275  0.00  0.00    -0.278 N 
ATOM     23  C   UNL     1      -4.726  -9.770  11.565  0.00  0.00    +0.094 C 
ATOM     24  C   UNL     1      -5.430  -9.500  11.231  0.00  0.00    +0.023 C 
ATOM     25  C   UNL     1      -5.538  -9.089  10.523  0.00  0.00    +0.022 C 
ATOM     26  C   UNL     1      -6.336  -8.922  10.392  0.00  0.00    +0.095 C 
ENDROOT
BRANCH   4   3
ATOM      3  C   UNL     1      -8.388  -7.770   8.770  0.00  0.00    +0.143 C 
BRANCH   3   2
ATOM      1  C   UNL     1      -9.327  -6.872   8.178  0.00  0.00    -0.003 C 
ATOM      2  C   UNL     1      -8.608  -7.275   8.148  0.00  0.00    -0.003 C 
ENDBRANCH   3   2
ENDBRANCH   4   3
BRANCH  14  15
ATOM     15  C   UNL     1      -3.365 -10.030  11.743  0.00  0.00    +0.115 C 
BRANCH  15  16
ATOM     16  C   UNL     1      -3.525 -10.238  12.526  0.00  0.00    +0.117 C 
BRANCH  16  17
ATOM     17  N   UNL     1      -2.909 -10.452  13.030  0.00  0.00    -0.259 N 
ATOM     18  C   UNL     1      -2.124 -10.578  12.811  0.00  0.00    +0.118 C 
ATOM     19  C   UNL     1      -1.699 -10.781  13.488  0.00  0.00    +0.138 C 
ATOM     20  N   UNL     1      -2.222 -10.781  14.127  0.00  0.00    -0.187 NA
ATOM     21  C   UNL     1      -2.970 -10.578  13.844  0.00  0.00    +0.323 C 
ATOM     22  O   UNL     1      -3.656 -10.512  14.295  0.00  0.00    -0.251 OA
ENDBRANCH  16  17
ENDBRANCH  15  16
ENDBRANCH  14  15
TORSDOF 5
ENDMDL
MODEL 10
REMARK VINA RESULT:      -5.6      2.659      3.415
REMARK  Name = 
REMARK  5 active torsions:
REMARK  status: ('A' for Active; 'I' for Inactive)
REMARK    1  A    between atoms: C_2  and  C_3
REMARK    2  A    between atoms: C_3  and  N_4
REMARK    3  A    between atoms: N_14  and  C_15
REMARK    4  A    between atoms: C_15  and  C_16
REMARK    5  A    between atoms: C_16  and  N_17
REMARK                            x       y       z     vdW  Elec       q    Type
REMARK                         _______ _______ _______ _____ _____    ______ ____
ROOT
ATOM      4  N   UNL     1      -5.419   3.735  25.347  0.00  0.00    -0.184 NA
ATOM      5  C   UNL     1      -4.684   3.374  25.244  0.00  0.00    +0.324 C 
ATOM      6  O   UNL     1      -3.995   3.827  25.261  0.00  0.00    -0.251 OA
ATOM      7  N   UNL     1      -4.639   2.558  25.125  0.00  0.00    -0.263 N 
ATOM      8  C   UNL     1      -5.328   2.105  25.108  0.00  0.00    +0.095 C 
ATOM      9  C   UNL     1      -5.283   1.290  24.989  0.00  0.00    +0.022 C 
ATOM     10  C   UNL     1      -4.549   0.928  24.886  0.00  0.00    +0.012 C 
ATOM     11  C   UNL     1      -4.626   0.114  24.775  0.00  0.00    +0.085 C 
ATOM     12  C   UNL     1      -4.034  -0.447  24.654  0.00  0.00    +0.226 C 
ATOM     13  O   UNL     1      -4.293  -1.225  24.561  0.00  0.00    -0.275 OA
ATOM     14  N   UNL     1      -3.218  -0.333  24.614  0.00  0.00    -0.278 N 
ATOM     23  C   UNL     1      -2.792   0.370  24.685  0.00  0.00    +0.094 C 
ATOM     24  C   UNL     1      -3.077   1.133  24.813  0.00  0.00    +0.023 C 
ATOM     25  C   UNL     1      -3.860   1.381  24.903  0.00  0.00    +0.022 C 
ATOM     26  C   UNL     1      -3.905   2.197  25.022  0.00  0.00    +0.095 C 
ENDROOT
BRANCH   4   3
ATOM      3  C   UNL     1      -5.464   4.551  25.466  0.00  0.00    +0.143 C 
BRANCH   3   2
ATOM      1  C   UNL     1      -6.442   5.579  25.309  0.00  0.00    -0.003 C 
ATOM      2  C   UNL     1      -6.180   4.895  25.688  0.00  0.00    -0.003 C 
ENDBRANCH   3   2
ENDBRANCH   4   3
BRANCH  14  15
ATOM     15  C   UNL     1      -2.768  -1.013  24.486  0.00  0.00    +0.115 C 
BRANCH  15  16
ATOM     16  C   UNL     1      -1.970  -1.026  24.698  0.00  0.00    +0.117 C 
BRANCH  16  17
ATOM     17  N   UNL     1      -1.551  -1.735  24.683  0.00  0.00    -0.259 N 
ATOM     18  C   UNL     1      -1.757  -2.411  24.259  0.00  0.00    +0.118 C 
ATOM     19  C   UNL     1      -1.185  -2.988  24.403  0.00  0.00    +0.138 C 
ATOM     20  N   UNL     1      -0.624  -2.668  24.917  0.00  0.00    -0.187 NA
ATOM     21  C   UNL     1      -0.850  -1.894  25.090  0.00  0.00    +0.323 C 
ATOM     22  O   UNL     1      -0.447  -1.371  25.583  0.00  0.00    -0.251 OA
ENDBRANCH  16  17
ENDBRANCH  15  16
ENDBRANCH  14  15
TORSDOF 5
ENDMDL
