MODEL 1
REMARK VINA RESULT:     -12.6      0.000      0.000
REMARK  Name = 
REMARK  8 active torsions:
REMARK  status: ('A' for Active; 'I' for Inactive)
REMARK    1  A    between atoms: C_5  and  C_6
REMARK    2  A    between atoms: C_6  and  N_7
REMARK    3  A    between atoms: C_8  and  C_10
REMARK    4  A    between atoms: C_10  and  C_11
REMARK    5  A    between atoms: C_11  and  C_12
REMARK    6  A    between atoms: C_19  and  N_22
REMARK    7  A    between atoms: N_22  and  C_23
REMARK    8  A    between atoms: C_23  and  C_24
REMARK                            x       y       z     vdW  Elec       q    Type
REMARK                         _______ _______ _______ _____ _____    ______ ____
ROOT
ATOM     12  C   UNL     1      -0.930   2.228  25.147  0.00  0.00    +0.080 C 
ATOM     13  C   UNL     1      -0.251   2.651  24.945  0.00  0.00    +0.131 C 
ATOM     14  N   UNL     1       0.350   2.285  24.514  0.00  0.00    -0.203 NA
ATOM     15  C   UNL     1       0.272   1.496  24.286  0.00  0.00    +0.256 C 
ATOM     16  O   UNL     1       0.873   1.130  23.856  0.00  0.00    -0.272 OA
ATOM     17  C   UNL     1      -0.407   1.073  24.489  0.00  0.00    +0.138 C 
ATOM     18  C   UNL     1      -0.637   0.294  24.341  0.00  0.00    +0.044 C 
ATOM     19  C   UNL     1      -1.381   0.180  24.681  0.00  0.00    +0.091 C 
ATOM     20  C   UNL     1      -1.609   0.887  25.038  0.00  0.00    +0.090 C 
ATOM     21  N   UNL     1      -1.008   1.440  24.919  0.00  0.00    -0.265 NA
ENDROOT
BRANCH  12  11
ATOM     11  C   UNL     1      -1.531   2.595  25.577  0.00  0.00    +0.027 C 
BRANCH  11  10
ATOM     10  C   UNL     1      -1.823   3.328  25.337  0.00  0.00    +0.088 C 
BRANCH  10   8
ATOM      7  N   UNL     1      -3.248   3.237  25.270  0.00  0.00    -0.201 NA
ATOM      8  C   UNL     1      -2.567   3.578  25.589  0.00  0.00    +0.242 C 
ATOM      9  O   UNL     1      -2.632   4.170  26.160  0.00  0.00    -0.273 OA
BRANCH   7   6
ATOM      6  C   UNL     1      -3.993   3.487  25.522  0.00  0.00    +0.141 C 
BRANCH   6   5
ATOM      1  F   UNL     1      -6.646   1.612  24.948  0.00  0.00    -0.204 F 
ATOM      2  C   UNL     1      -5.983   2.081  25.092  0.00  0.00    +0.140 A 
ATOM      3  C   UNL     1      -5.416   2.185  24.501  0.00  0.00    +0.029 A 
ATOM      4  C   UNL     1      -4.753   2.654  24.645  0.00  0.00    -0.000 A 
ATOM      5  C   UNL     1      -4.656   3.019  25.379  0.00  0.00    -0.000 A 
ATOM     30  C   UNL     1      -5.223   2.915  25.968  0.00  0.00    -0.000 A 
ATOM     31  C   UNL     1      -5.886   2.446  25.826  0.00  0.00    +0.029 A 
ENDBRANCH   6   5
ENDBRANCH   7   6
ENDBRANCH  10   8
ENDBRANCH  11  10
ENDBRANCH  12  11
BRANCH  19  22
ATOM     22  N   UNL     1      -1.817  -0.520  24.666  0.00  0.00    -0.213 NA
BRANCH  22  23
ATOM     23  C   UNL     1      -2.627  -0.505  24.821  0.00  0.00    +0.115 C 
BRANCH  23  24
ATOM     24  C   UNL     1      -3.097  -1.154  24.623  0.00  0.00    -0.005 A 
ATOM     25  C   UNL     1      -3.746  -1.056  24.124  0.00  0.00    -0.003 A 
ATOM     26  C   UNL     1      -4.216  -1.704  23.925  0.00  0.00    -0.000 A 
ATOM     27  C   UNL     1      -4.037  -2.451  24.226  0.00  0.00    -0.000 A 
ATOM     28  C   UNL     1      -3.387  -2.549  24.725  0.00  0.00    -0.000 A 
ATOM     29  C   UNL     1      -2.918  -1.900  24.923  0.00  0.00    -0.003 A 
ENDBRANCH  23  24
ENDBRANCH  22  23
ENDBRANCH  19  22
TORSDOF 8
ENDMDL
MODEL 2
REMARK VINA RESULT:     -12.5      2.360      5.710
REMARK  Name = 
REMARK  8 active torsions:
REMARK  status: ('A' for Active; 'I' for Inactive)
REMARK    1  A    between atoms: C_5  and  C_6
REMARK    2  A    between atoms: C_6  and  N_7
REMARK    3  A    between atoms: C_8  and  C_10
REMARK    4  A    between atoms: C_10  and  C_11
REMARK    5  A    between atoms: C_11  and  C_12
REMARK    6  A    between atoms: C_19  and  N_22
REMARK    7  A    between atoms: N_22  and  C_23
REMARK    8  A    between atoms: C_23  and  C_24
REMARK                            x       y       z     vdW  Elec       q    Type
REMARK                         _______ _______ _______ _____ _____    ______ ____
ROOT
ATOM     12  C   UNL     1      -4.971   1.507  24.982  0.00  0.00    +0.080 C 
ATOM     13  C   UNL     1      -5.727   1.391  25.290  0.00  0.00    +0.131 C 
ATOM     14  N   UNL     1      -6.123   2.015  25.657  0.00  0.00    -0.203 NA
ATOM     15  C   UNL     1      -5.763   2.755  25.716  0.00  0.00    +0.256 C 
ATOM     16  O   UNL     1      -6.159   3.378  26.083  0.00  0.00    -0.272 OA
ATOM     17  C   UNL     1      -5.006   2.871  25.407  0.00  0.00    +0.138 C 
ATOM     18  C   UNL     1      -4.516   3.534  25.383  0.00  0.00    +0.044 C 
ATOM     19  C   UNL     1      -3.816   3.319  25.001  0.00  0.00    +0.091 C 
ATOM     20  C   UNL     1      -3.875   2.524  24.790  0.00  0.00    +0.090 C 
ATOM     21  N   UNL     1      -4.611   2.247  25.040  0.00  0.00    -0.265 NA
ENDROOT
BRANCH  12  11
ATOM     11  C   UNL     1      -4.575   0.883  24.615  0.00  0.00    +0.027 C 
BRANCH  11  10
ATOM     10  C   UNL     1      -4.576   0.134  24.959  0.00  0.00    +0.088 C 
BRANCH  10   8
ATOM      7  N   UNL     1      -3.406  -0.685  24.907  0.00  0.00    -0.201 NA
ATOM      8  C   UNL     1      -4.149  -0.480  24.612  0.00  0.00    +0.242 C 
ATOM      9  O   UNL     1      -4.465  -0.890  23.970  0.00  0.00    -0.273 OA
BRANCH   7   6
ATOM      6  C   UNL     1      -2.978  -1.299  24.560  0.00  0.00    +0.141 C 
BRANCH   6   5
ATOM      1  F   UNL     1       0.110  -1.921  25.540  0.00  0.00    -0.204 F 
ATOM      2  C   UNL     1      -0.662  -1.766  25.295  0.00  0.00    +0.140 A 
ATOM      3  C   UNL     1      -1.000  -1.027  25.439  0.00  0.00    +0.029 A 
ATOM      4  C   UNL     1      -1.772  -0.872  25.194  0.00  0.00    -0.000 A 
ATOM      5  C   UNL     1      -2.207  -1.455  24.805  0.00  0.00    -0.000 A 
ATOM     30  C   UNL     1      -1.869  -2.193  24.661  0.00  0.00    -0.000 A 
ATOM     31  C   UNL     1      -1.097  -2.350  24.906  0.00  0.00    +0.029 A 
ENDBRANCH   6   5
ENDBRANCH   7   6
ENDBRANCH  10   8
ENDBRANCH  11  10
ENDBRANCH  12  11
BRANCH  19  22
ATOM     22  N   UNL     1      -3.172   3.814  24.857  0.00  0.00    -0.213 NA
BRANCH  22  23
ATOM     23  C   UNL     1      -2.561   3.869  25.409  0.00  0.00    +0.115 C 
BRANCH  23  24
ATOM     24  C   UNL     1      -1.855   4.243  25.206  0.00  0.00    -0.005 A 
ATOM     25  C   UNL     1      -1.183   3.793  25.041  0.00  0.00    -0.003 A 
ATOM     26  C   UNL     1      -0.476   4.166  24.838  0.00  0.00    -0.000 A 
ATOM     27  C   UNL     1      -0.441   4.990  24.800  0.00  0.00    -0.000 A 
ATOM     28  C   UNL     1      -1.112   5.440  24.965  0.00  0.00    -0.000 A 
ATOM     29  C   UNL     1      -1.819   5.066  25.168  0.00  0.00    -0.003 A 
ENDBRANCH  23  24
ENDBRANCH  22  23
ENDBRANCH  19  22
TORSDOF 8
ENDMDL
MODEL 3
REMARK VINA RESULT:     -12.4      1.284      4.060
REMARK  Name = 
REMARK  8 active torsions:
REMARK  status: ('A' for Active; 'I' for Inactive)
REMARK    1  A    between atoms: C_5  and  C_6
REMARK    2  A    between atoms: C_6  and  N_7
REMARK    3  A    between atoms: C_8  and  C_10
REMARK    4  A    between atoms: C_10  and  C_11
REMARK    5  A    between atoms: C_11  and  C_12
REMARK    6  A    between atoms: C_19  and  N_22
REMARK    7  A    between atoms: N_22  and  C_23
REMARK    8  A    between atoms: C_23  and  C_24
REMARK                            x       y       z     vdW  Elec       q    Type
REMARK                         _______ _______ _______ _____ _____    ______ ____
ROOT
ATOM     12  C   UNL     1      -0.678   1.454  24.994  0.00  0.00    +0.080 C 
ATOM     13  C   UNL     1       0.076   1.632  24.710  0.00  0.00    +0.131 C 
ATOM     14  N   UNL     1       0.233   2.380  24.398  0.00  0.00    -0.203 NA
ATOM     15  C   UNL     1      -0.364   2.949  24.371  0.00  0.00    +0.256 C 
ATOM     16  O   UNL     1      -0.207   3.696  24.060  0.00  0.00    -0.272 OA
ATOM     17  C   UNL     1      -1.118   2.770  24.656  0.00  0.00    +0.138 C 
ATOM     18  C   UNL     1      -1.811   3.216  24.701  0.00  0.00    +0.044 C 
ATOM     19  C   UNL     1      -2.396   2.743  25.040  0.00  0.00    +0.091 C 
ATOM     20  C   UNL     1      -2.064   2.006  25.205  0.00  0.00    +0.090 C 
ATOM     21  N   UNL     1      -1.274   2.022  24.967  0.00  0.00    -0.265 NA
ENDROOT
BRANCH  12  11
ATOM     11  C   UNL     1      -0.834   0.705  25.306  0.00  0.00    +0.027 C 
BRANCH  11  10
ATOM     10  C   UNL     1      -0.687   0.031  24.854  0.00  0.00    +0.088 C 
BRANCH  10   8
ATOM      7  N   UNL     1      -1.726  -0.940  24.711  0.00  0.00    -0.201 NA
ATOM      8  C   UNL     1      -1.025  -0.689  25.068  0.00  0.00    +0.242 C 
ATOM      9  O   UNL     1      -0.663  -1.161  25.639  0.00  0.00    -0.273 OA
BRANCH   7   6
ATOM      6  C   UNL     1      -2.065  -1.661  24.924  0.00  0.00    +0.141 C 
BRANCH   6   5
ATOM      1  F   UNL     1      -4.957  -2.576  23.628  0.00  0.00    -0.204 F 
ATOM      2  C   UNL     1      -4.234  -2.348  23.952  0.00  0.00    +0.140 A 
ATOM      3  C   UNL     1      -4.065  -1.547  24.059  0.00  0.00    +0.029 A 
ATOM      4  C   UNL     1      -3.341  -1.319  24.383  0.00  0.00    -0.000 A 
ATOM      5  C   UNL     1      -2.787  -1.890  24.600  0.00  0.00    -0.000 A 
ATOM     30  C   UNL     1      -2.957  -2.690  24.493  0.00  0.00    -0.000 A 
ATOM     31  C   UNL     1      -3.680  -2.919  24.169  0.00  0.00    +0.029 A 
ENDBRANCH   6   5
ENDBRANCH   7   6
ENDBRANCH  10   8
ENDBRANCH  11  10
ENDBRANCH  12  11
BRANCH  19  22
ATOM     22  N   UNL     1      -3.175   2.969  25.189  0.00  0.00    -0.213 NA
BRANCH  22  23
ATOM     23  C   UNL     1      -3.775   2.750  24.666  0.00  0.00    +0.115 C 
BRANCH  23  24
ATOM     24  C   UNL     1      -4.551   2.677  24.937  0.00  0.00    -0.005 A 
ATOM     25  C   UNL     1      -4.991   2.004  24.752  0.00  0.00    -0.003 A 
ATOM     26  C   UNL     1      -5.766   1.930  25.023  0.00  0.00    -0.000 A 
ATOM     27  C   UNL     1      -6.103   2.531  25.479  0.00  0.00    -0.000 A 
ATOM     28  C   UNL     1      -5.663   3.204  25.664  0.00  0.00    -0.000 A 
ATOM     29  C   UNL     1      -4.887   3.277  25.392  0.00  0.00    -0.003 A 
ENDBRANCH  23  24
ENDBRANCH  22  23
ENDBRANCH  19  22
TORSDOF 8
ENDMDL
MODEL 4
REMARK VINA RESULT:     -12.1      1.798      4.018
REMARK  Name = 
REMARK  8 active torsions:
REMARK  status: ('A' for Active; 'I' for Inactive)
REMARK    1  A    between atoms: C_5  and  C_6
REMARK    2  A    between atoms: C_6  and  N_7
REMARK    3  A    between atoms: C_8  and  C_10
REMARK    4  A    between atoms: C_10  and  C_11
REMARK    5  A    between atoms: C_11  and  C_12
REMARK    6  A    between atoms: C_19  and  N_22
REMARK    7  A    between atoms: N_22  and  C_23
REMARK    8  A    between atoms: C_23  and  C_24
REMARK                            x       y       z     vdW  Elec       q    Type
REMARK                         _______ _______ _______ _____ _____    ______ ____
ROOT
ATOM     12  C   UNL     1      -3.968   3.072  25.039  0.00  0.00    +0.080 C 
ATOM     13  C   UNL     1      -4.350   3.724  25.370  0.00  0.00    +0.131 C 
ATOM     14  N   UNL     1      -5.091   3.634  25.721  0.00  0.00    -0.203 NA
ATOM     15  C   UNL     1      -5.450   2.891  25.740  0.00  0.00    +0.256 C 
ATOM     16  O   UNL     1      -6.192   2.801  26.091  0.00  0.00    -0.272 OA
ATOM     17  C   UNL     1      -5.068   2.239  25.409  0.00  0.00    +0.138 C 
ATOM     18  C   UNL     1      -5.285   1.446  25.346  0.00  0.00    +0.044 C 
ATOM     19  C   UNL     1      -4.677   1.046  24.957  0.00  0.00    +0.091 C 
ATOM     20  C   UNL     1      -4.086   1.592  24.779  0.00  0.00    +0.090 C 
ATOM     21  N   UNL     1      -4.327   2.330  25.058  0.00  0.00    -0.265 NA
ENDROOT
BRANCH  12  11
ATOM     11  C   UNL     1      -3.227   3.163  24.688  0.00  0.00    +0.027 C 
BRANCH  11  10
ATOM     10  C   UNL     1      -2.584   3.415  25.139  0.00  0.00    +0.088 C 
BRANCH  10   8
ATOM      7  N   UNL     1      -1.546   2.458  24.925  0.00  0.00    -0.201 NA
ATOM      8  C   UNL     1      -1.816   3.237  24.900  0.00  0.00    +0.242 C 
ATOM      9  O   UNL     1      -1.317   3.838  24.634  0.00  0.00    -0.273 OA
BRANCH   7   6
ATOM      6  C   UNL     1      -0.777   2.279  24.685  0.00  0.00    +0.141 C 
BRANCH   6   5
ATOM      1  F   UNL     1       0.074  -0.847  24.060  0.00  0.00    -0.204 F 
ATOM      2  C   UNL     1      -0.138  -0.066  24.217  0.00  0.00    +0.140 A 
ATOM      3  C   UNL     1      -0.154   0.488  23.604  0.00  0.00    +0.029 A 
ATOM      4  C   UNL     1      -0.367   1.269  23.761  0.00  0.00    -0.000 A 
ATOM      5  C   UNL     1      -0.564   1.498  24.529  0.00  0.00    -0.000 A 
ATOM     30  C   UNL     1      -0.548   0.944  25.140  0.00  0.00    -0.000 A 
ATOM     31  C   UNL     1      -0.336   0.162  24.984  0.00  0.00    +0.029 A 
ENDBRANCH   6   5
ENDBRANCH   7   6
ENDBRANCH  10   8
ENDBRANCH  11  10
ENDBRANCH  12  11
BRANCH  19  22
ATOM     22  N   UNL     1      -4.664   0.241  24.777  0.00  0.00    -0.213 NA
BRANCH  22  23
ATOM     23  C   UNL     1      -3.956  -0.124  24.565  0.00  0.00    +0.115 C 
BRANCH  23  24
ATOM     24  C   UNL     1      -3.914  -0.947  24.515  0.00  0.00    -0.005 A 
ATOM     25  C   UNL     1      -4.224  -1.336  23.857  0.00  0.00    -0.003 A 
ATOM     26  C   UNL     1      -4.184  -2.158  23.806  0.00  0.00    -0.000 A 
ATOM     27  C   UNL     1      -3.833  -2.592  24.415  0.00  0.00    -0.000 A 
ATOM     28  C   UNL     1      -3.523  -2.203  25.073  0.00  0.00    -0.000 A 
ATOM     29  C   UNL     1      -3.564  -1.380  25.123  0.00  0.00    -0.003 A 
ENDBRANCH  23  24
ENDBRANCH  22  23
ENDBRANCH  19  22
TORSDOF 8
ENDMDL
MODEL 5
REMARK VINA RESULT:     -11.9      1.527      3.841
REMARK  Name = 
REMARK  8 active torsions:
REMARK  status: ('A' for Active; 'I' for Inactive)
REMARK    1  A    between atoms: C_5  and  C_6
REMARK    2  A    between atoms: C_6  and  N_7
REMARK    3  A    between atoms: C_8  and  C_10
REMARK    4  A    between atoms: C_10  and  C_11
REMARK    5  A    between atoms: C_11  and  C_12
REMARK    6  A    between atoms: C_19  and  N_22
REMARK    7  A    between atoms: N_22  and  C_23
REMARK    8  A    between atoms: C_23  and  C_24
REMARK                            x       y       z     vdW  Elec       q    Type
REMARK                         _______ _______ _______ _____ _____    ______ ____
ROOT
ATOM     12  C   UNL     1      -1.442  -0.292  24.722  0.00  0.00    +0.080 C 
ATOM     13  C   UNL     1      -1.122  -1.004  24.458  0.00  0.00    +0.131 C 
ATOM     14  N   UNL     1      -0.394  -1.011  24.070  0.00  0.00    -0.203 NA
ATOM     15  C   UNL     1       0.014  -0.304  23.947  0.00  0.00    +0.256 C 
ATOM     16  O   UNL     1       0.742  -0.311  23.559  0.00  0.00    -0.272 OA
ATOM     17  C   UNL     1      -0.306   0.409  24.211  0.00  0.00    +0.138 C 
ATOM     18  C   UNL     1      -0.034   1.186  24.168  0.00  0.00    +0.044 C 
ATOM     19  C   UNL     1      -0.593   1.673  24.530  0.00  0.00    +0.091 C 
ATOM     20  C   UNL     1      -1.212   1.196  24.796  0.00  0.00    +0.090 C 
ATOM     21  N   UNL     1      -1.035   0.414  24.599  0.00  0.00    -0.265 NA
ENDROOT
BRANCH  12  11
ATOM     11  C   UNL     1      -2.171  -0.286  25.110  0.00  0.00    +0.027 C 
BRANCH  11  10
ATOM     10  C   UNL     1      -2.844  -0.569  24.728  0.00  0.00    +0.088 C 
BRANCH  10   8
ATOM      7  N   UNL     1      -3.952   0.327  24.837  0.00  0.00    -0.201 NA
ATOM      8  C   UNL     1      -3.592  -0.391  25.025  0.00  0.00    +0.242 C 
ATOM      9  O   UNL     1      -3.982  -0.932  25.511  0.00  0.00    -0.273 OA
BRANCH   7   6
ATOM      6  C   UNL     1      -4.701   0.505  25.134  0.00  0.00    +0.141 C 
BRANCH   6   5
ATOM      1  F   UNL     1      -5.727   3.638  25.265  0.00  0.00    -0.204 F 
ATOM      2  C   UNL     1      -5.470   2.855  25.231  0.00  0.00    +0.140 A 
ATOM      3  C   UNL     1      -5.675   2.329  25.834  0.00  0.00    +0.029 A 
ATOM      4  C   UNL     1      -5.418   1.545  25.800  0.00  0.00    -0.000 A 
ATOM      5  C   UNL     1      -4.957   1.288  25.166  0.00  0.00    -0.000 A 
ATOM     30  C   UNL     1      -4.753   1.814  24.565  0.00  0.00    -0.000 A 
ATOM     31  C   UNL     1      -5.009   2.598  24.597  0.00  0.00    +0.029 A 
ENDBRANCH   6   5
ENDBRANCH   7   6
ENDBRANCH  10   8
ENDBRANCH  11  10
ENDBRANCH  12  11
BRANCH  19  22
ATOM     22  N   UNL     1      -0.542   2.492  24.611  0.00  0.00    -0.213 NA
BRANCH  22  23
ATOM     23  C   UNL     1      -0.871   2.863  25.271  0.00  0.00    +0.115 C 
BRANCH  23  24
ATOM     24  C   UNL     1      -1.093   3.657  25.229  0.00  0.00    -0.005 A 
ATOM     25  C   UNL     1      -1.829   3.894  25.516  0.00  0.00    -0.003 A 
ATOM     26  C   UNL     1      -2.053   4.687  25.475  0.00  0.00    -0.000 A 
ATOM     27  C   UNL     1      -1.540   5.243  25.146  0.00  0.00    -0.000 A 
ATOM     28  C   UNL     1      -0.803   5.006  24.858  0.00  0.00    -0.000 A 
ATOM     29  C   UNL     1      -0.581   4.212  24.900  0.00  0.00    -0.003 A 
ENDBRANCH  23  24
ENDBRANCH  22  23
ENDBRANCH  19  22
TORSDOF 8
ENDMDL
MODEL 6
REMARK VINA RESULT:     -11.9      1.856      4.448
REMARK  Name = 
REMARK  8 active torsions:
REMARK  status: ('A' for Active; 'I' for Inactive)
REMARK    1  A    between atoms: C_5  and  C_6
REMARK    2  A    between atoms: C_6  and  N_7
REMARK    3  A    between atoms: C_8  and  C_10
REMARK    4  A    between atoms: C_10  and  C_11
REMARK    5  A    between atoms: C_11  and  C_12
REMARK    6  A    between atoms: C_19  and  N_22
REMARK    7  A    between atoms: N_22  and  C_23
REMARK    8  A    between atoms: C_23  and  C_24
REMARK                            x       y       z     vdW  Elec       q    Type
REMARK                         _______ _______ _______ _____ _____    ______ ____
ROOT
ATOM     12  C   UNL     1      -1.933  -1.121  24.413  0.00  0.00    +0.080 C 
ATOM     13  C   UNL     1      -1.705  -1.911  24.474  0.00  0.00    +0.131 C 
ATOM     14  N   UNL     1      -2.238  -2.475  24.751  0.00  0.00    -0.203 NA
ATOM     15  C   UNL     1      -3.002  -2.248  24.969  0.00  0.00    +0.256 C 
ATOM     16  O   UNL     1      -3.536  -2.812  25.246  0.00  0.00    -0.272 OA
ATOM     17  C   UNL     1      -3.230  -1.458  24.908  0.00  0.00    +0.138 C 
ATOM     18  C   UNL     1      -3.940  -1.074  25.080  0.00  0.00    +0.044 C 
ATOM     19  C   UNL     1      -3.844  -0.272  24.908  0.00  0.00    +0.091 C 
ATOM     20  C   UNL     1      -3.075  -0.162  24.630  0.00  0.00    +0.090 C 
ATOM     21  N   UNL     1      -2.696  -0.894  24.630  0.00  0.00    -0.265 NA
ENDROOT
BRANCH  12  11
ATOM     11  C   UNL     1      -1.398  -0.557  24.135  0.00  0.00    +0.027 C 
BRANCH  11  10
ATOM     10  C   UNL     1      -0.702  -0.408  24.551  0.00  0.00    +0.088 C 
BRANCH  10   8
ATOM      7  N   UNL     1      -0.458   0.980  24.785  0.00  0.00    -0.201 NA
ATOM      8  C   UNL     1      -0.269   0.276  24.398  0.00  0.00    +0.242 C 
ATOM      9  O   UNL     1       0.354   0.258  23.858  0.00  0.00    -0.273 OA
BRANCH   7   6
ATOM      6  C   UNL     1      -0.024   1.666  24.632  0.00  0.00    +0.141 C 
BRANCH   6   5
ATOM      1  F   UNL     1      -1.222   4.610  25.516  0.00  0.00    -0.204 F 
ATOM      2  C   UNL     1      -0.923   3.874  25.294  0.00  0.00    +0.140 A 
ATOM      3  C   UNL     1      -0.748   3.310  25.871  0.00  0.00    +0.029 A 
ATOM      4  C   UNL     1      -0.448   2.574  25.650  0.00  0.00    -0.000 A 
ATOM      5  C   UNL     1      -0.324   2.401  24.853  0.00  0.00    -0.000 A 
ATOM     30  C   UNL     1      -0.499   2.965  24.277  0.00  0.00    -0.000 A 
ATOM     31  C   UNL     1      -0.798   3.702  24.497  0.00  0.00    +0.029 A 
ENDBRANCH   6   5
ENDBRANCH   7   6
ENDBRANCH  10   8
ENDBRANCH  11  10
ENDBRANCH  12  11
BRANCH  19  22
ATOM     22  N   UNL     1      -4.417   0.314  24.999  0.00  0.00    -0.213 NA
BRANCH  22  23
ATOM     23  C   UNL     1      -4.314   1.051  24.641  0.00  0.00    +0.115 C 
BRANCH  23  24
ATOM     24  C   UNL     1      -4.724   1.708  24.927  0.00  0.00    -0.005 A 
ATOM     25  C   UNL     1      -4.322   2.415  25.067  0.00  0.00    -0.003 A 
ATOM     26  C   UNL     1      -4.730   3.072  25.353  0.00  0.00    -0.000 A 
ATOM     27  C   UNL     1      -5.542   3.023  25.497  0.00  0.00    -0.000 A 
ATOM     28  C   UNL     1      -5.943   2.316  25.356  0.00  0.00    -0.000 A 
ATOM     29  C   UNL     1      -5.534   1.659  25.071  0.00  0.00    -0.003 A 
ENDBRANCH  23  24
ENDBRANCH  22  23
ENDBRANCH  19  22
TORSDOF 8
ENDMDL
