MODEL 1
REMARK VINA RESULT:     -11.1      0.000      0.000
REMARK  Name = 
REMARK  7 active torsions:
REMARK  status: ('A' for Active; 'I' for Inactive)
REMARK    1  A    between atoms: C_4  and  C_29
REMARK    2  A    between atoms: C_6  and  C_8
REMARK    3  A    between atoms: C_15  and  C_16
REMARK    4  A    between atoms: C_16  and  N_17
REMARK    5  A    between atoms: C_18  and  C_20
REMARK    6  A    between atoms: C_25  and  C_26
REMARK    7  A    between atoms: C_32  and  C_35
REMARK                            x       y       z     vdW  Elec       q    Type
REMARK                         _______ _______ _______ _____ _____    ______ ____
ROOT
ATOM      8  C   UNL     1      -4.350   1.697  25.270  0.00  0.00    +0.056 C 
ATOM      9  C   UNL     1      -3.933   1.293  25.787  0.00  0.00    +0.078 C 
ATOM     10  N   UNL     1      -4.382   0.978  25.170  0.00  0.00    -0.272 NA
ATOM     11  C   UNL     1      -4.818   1.784  24.661  0.00  0.00    +0.072 C 
ATOM     12  C   UNL     1      -5.196   2.016  24.182  0.00  0.00    +0.018 C 
ATOM     13  C   UNL     1      -4.789   1.381  24.667  0.00  0.00    +0.010 C 
ATOM     14  C   UNL     1      -4.930   0.552  24.414  0.00  0.00    +0.018 C 
ATOM     15  C   UNL     1      -4.533   0.119  24.902  0.00  0.00    +0.079 C 
ENDROOT
BRANCH   8   6
ATOM      1  C   UNL     1      -5.740   4.147  25.757  0.00  0.00    +0.074 C 
ATOM      2  C   UNL     1      -5.041   3.744  25.585  0.00  0.00    +0.139 A 
ATOM      3  N   UNL     1      -4.338   4.163  25.484  0.00  0.00    -0.231 NA
ATOM      4  C   UNL     1      -3.639   3.761  25.312  0.00  0.00    +0.084 A 
ATOM      5  C   UNL     1      -3.643   2.939  25.241  0.00  0.00    +0.034 A 
ATOM      6  C   UNL     1      -4.346   2.520  25.341  0.00  0.00    +0.063 A 
ATOM      7  N   UNL     1      -5.045   2.922  25.513  0.00  0.00    -0.235 NA
BRANCH   4  29
ATOM     29  C   UNL     1      -2.935   4.180  25.212  0.00  0.00    +0.018 A 
ATOM     30  C   UNL     1      -2.782   4.563  24.498  0.00  0.00    +0.001 A 
ATOM     31  C   UNL     1      -2.078   4.982  24.397  0.00  0.00    +0.004 A 
ATOM     32  C   UNL     1      -1.528   5.018  25.011  0.00  0.00    +0.071 A 
ATOM     33  C   UNL     1      -1.682   4.635  25.726  0.00  0.00    +0.004 A 
ATOM     34  C   UNL     1      -2.385   4.216  25.826  0.00  0.00    +0.001 A 
BRANCH  32  35
ATOM     35  C   UNL     1      -0.825   5.437  24.910  0.00  0.00    +0.419 C 
ATOM     36  F   UNL     1      -0.121   5.856  24.809  0.00  0.00    -0.166 F 
ATOM     37  F   UNL     1      -0.418   4.727  24.807  0.00  0.00    -0.166 F 
ATOM     38  F   UNL     1      -1.232   6.147  25.013  0.00  0.00    -0.166 F 
ENDBRANCH  32  35
ENDBRANCH   4  29
ENDBRANCH   8   6
BRANCH  15  16
ATOM     16  C   UNL     1      -4.349  -0.665  25.080  0.00  0.00    +0.131 C 
BRANCH  16  17
ATOM     17  N   UNL     1      -3.649  -0.999  24.800  0.00  0.00    -0.200 NA
ATOM     18  C   UNL     1      -3.337  -1.669  25.166  0.00  0.00    +0.265 C 
ATOM     19  O   UNL     1      -3.725  -2.006  25.811  0.00  0.00    -0.268 OA
BRANCH  18  20
ATOM     20  C   UNL     1      -2.637  -2.003  24.886  0.00  0.00    +0.061 A 
ATOM     21  C   UNL     1      -1.917  -1.619  25.011  0.00  0.00    +0.005 A 
ATOM     22  C   UNL     1      -1.217  -1.953  24.731  0.00  0.00    +0.000 A 
ATOM     23  C   UNL     1      -1.236  -2.672  24.326  0.00  0.00    +0.000 A 
ATOM     24  C   UNL     1      -1.956  -3.056  24.201  0.00  0.00    +0.007 A 
ATOM     25  C   UNL     1      -2.655  -2.722  24.481  0.00  0.00    +0.084 A 
BRANCH  25  26
ATOM     26  C   UNL     1      -3.375  -3.107  24.356  0.00  0.00    +0.388 C 
ATOM     27  O   UNL     1      -3.669  -3.626  24.925  0.00  0.00    -0.241 OA
ATOM     28  O   UNL     1      -3.800  -2.971  23.662  0.00  0.00    -0.241 OA
ENDBRANCH  25  26
ENDBRANCH  18  20
ENDBRANCH  16  17
ENDBRANCH  15  16
TORSDOF 7
ENDMDL
MODEL 2
REMARK VINA RESULT:     -10.7      3.649      6.727
REMARK  Name = 
REMARK  7 active torsions:
REMARK  status: ('A' for Active; 'I' for Inactive)
REMARK    1  A    between atoms: C_4  and  C_29
REMARK    2  A    between atoms: C_6  and  C_8
REMARK    3  A    between atoms: C_15  and  C_16
REMARK    4  A    between atoms: C_16  and  N_17
REMARK    5  A    between atoms: C_18  and  C_20
REMARK    6  A    between atoms: C_25  and  C_26
REMARK    7  A    between atoms: C_32  and  C_35
REMARK                            x       y       z     vdW  Elec       q    Type
REMARK                         _______ _______ _______ _____ _____    ______ ____
ROOT
ATOM      8  C   UNL     1      -0.773   0.169  25.267  0.00  0.00    +0.056 C 
ATOM      9  C   UNL     1      -1.007   0.471  25.944  0.00  0.00    +0.078 C 
ATOM     10  N   UNL     1      -0.607   0.872  25.344  0.00  0.00    -0.272 NA
ATOM     11  C   UNL     1      -0.438   0.184  24.571  0.00  0.00    +0.072 C 
ATOM     12  C   UNL     1      -0.200   0.041  23.980  0.00  0.00    +0.018 C 
ATOM     13  C   UNL     1      -0.380   0.569  24.682  0.00  0.00    +0.010 C 
ATOM     14  C   UNL     1      -0.111   1.401  24.618  0.00  0.00    +0.018 C 
ATOM     15  C   UNL     1      -0.323   1.736  25.271  0.00  0.00    +0.079 C 
ENDROOT
BRANCH   8   6
ATOM      1  C   UNL     1       0.064  -2.564  25.242  0.00  0.00    +0.074 C 
ATOM      2  C   UNL     1      -0.520  -1.995  25.119  0.00  0.00    +0.139 A 
ATOM      3  N   UNL     1      -1.269  -2.223  24.862  0.00  0.00    -0.231 NA
ATOM      4  C   UNL     1      -1.854  -1.654  24.739  0.00  0.00    +0.084 A 
ATOM      5  C   UNL     1      -1.689  -0.857  24.874  0.00  0.00    +0.034 A 
ATOM      6  C   UNL     1      -0.938  -0.630  25.131  0.00  0.00    +0.063 A 
ATOM      7  N   UNL     1      -0.354  -1.198  25.254  0.00  0.00    -0.235 NA
BRANCH   4  29
ATOM     29  C   UNL     1      -2.605  -1.881  24.482  0.00  0.00    +0.018 A 
ATOM     30  C   UNL     1      -3.102  -1.330  24.122  0.00  0.00    +0.001 A 
ATOM     31  C   UNL     1      -3.852  -1.557  23.865  0.00  0.00    +0.004 A 
ATOM     32  C   UNL     1      -4.104  -2.336  23.967  0.00  0.00    +0.071 A 
ATOM     33  C   UNL     1      -3.607  -2.887  24.326  0.00  0.00    +0.004 A 
ATOM     34  C   UNL     1      -2.857  -2.660  24.584  0.00  0.00    +0.001 A 
BRANCH  32  35
ATOM     35  C   UNL     1      -4.854  -2.562  23.709  0.00  0.00    +0.419 C 
ATOM     36  F   UNL     1      -5.605  -2.788  23.452  0.00  0.00    -0.166 F 
ATOM     37  F   UNL     1      -5.138  -1.805  23.872  0.00  0.00    -0.166 F 
ATOM     38  F   UNL     1      -4.571  -3.319  23.547  0.00  0.00    -0.166 F 
ENDBRANCH  32  35
ENDBRANCH   4  29
ENDBRANCH   8   6
BRANCH  15  16
ATOM     16  C   UNL     1      -0.306   2.456  25.672  0.00  0.00    +0.131 C 
BRANCH  16  17
ATOM     17  N   UNL     1      -0.598   3.138  25.311  0.00  0.00    -0.200 NA
ATOM     18  C   UNL     1      -1.017   3.692  25.755  0.00  0.00    +0.265 C 
ATOM     19  O   UNL     1      -1.144   3.566  26.560  0.00  0.00    -0.268 OA
BRANCH  18  20
ATOM     20  C   UNL     1      -1.309   4.374  25.393  0.00  0.00    +0.061 A 
ATOM     21  C   UNL     1      -0.790   4.909  25.040  0.00  0.00    +0.005 A 
ATOM     22  C   UNL     1      -1.082   5.590  24.678  0.00  0.00    +0.000 A 
ATOM     23  C   UNL     1      -1.893   5.737  24.670  0.00  0.00    +0.000 A 
ATOM     24  C   UNL     1      -2.413   5.203  25.024  0.00  0.00    +0.007 A 
ATOM     25  C   UNL     1      -2.121   4.522  25.385  0.00  0.00    +0.084 A 
BRANCH  25  26
ATOM     26  C   UNL     1      -2.641   3.987  25.739  0.00  0.00    +0.388 C 
ATOM     27  O   UNL     1      -2.809   4.046  26.544  0.00  0.00    -0.241 OA
ATOM     28  O   UNL     1      -2.992   3.393  25.287  0.00  0.00    -0.241 OA
ENDBRANCH  25  26
ENDBRANCH  18  20
ENDBRANCH  16  17
ENDBRANCH  15  16
TORSDOF 7
ENDMDL
MODEL 3
REMARK VINA RESULT:     -10.6      4.577      6.710
REMARK  Name = 
REMARK  7 active torsions:
REMARK  status: ('A' for Active; 'I' for Inactive)
REMARK    1  A    between atoms: C_4  and  C_29
REMARK    2  A    between atoms: C_6  and  C_8
REMARK    3  A    between atoms: C_15  and  C_16
REMARK    4  A    between atoms: C_16  and  N_17
REMARK    5  A    between atoms: C_18  and  C_20
REMARK    6  A    between atoms: C_25  and  C_26
REMARK    7  A    between atoms: C_32  and  C_35
REMARK                            x       y       z     vdW  Elec       q    Type
REMARK                         _______ _______ _______ _____ _____    ______ ____
ROOT
ATOM      8  C   UNL     1       0.429   0.654  23.626  0.00  0.00    +0.056 C 
ATOM      9  C   UNL     1       0.387   1.429  23.686  0.00  0.00    +0.078 C 
ATOM     10  N   UNL     1      -0.077   0.883  24.096  0.00  0.00    -0.272 NA
ATOM     11  C   UNL     1       0.227  -0.073  23.790  0.00  0.00    +0.072 C 
ATOM     12  C   UNL     1       0.173  -0.723  23.821  0.00  0.00    +0.018 C 
ATOM     13  C   UNL     1      -0.030   0.125  24.032  0.00  0.00    +0.010 C 
ATOM     14  C   UNL     1      -0.671   0.233  24.622  0.00  0.00    +0.018 C 
ATOM     15  C   UNL     1      -0.744   0.988  24.710  0.00  0.00    +0.079 C 
ENDROOT
BRANCH   8   6
ATOM      1  C   UNL     1       1.062  -0.670  21.173  0.00  0.00    +0.074 C 
ATOM      2  C   UNL     1       1.305  -0.317  21.878  0.00  0.00    +0.139 A 
ATOM      3  N   UNL     1       2.108  -0.273  22.061  0.00  0.00    -0.231 NA
ATOM      4  C   UNL     1       2.352   0.080  22.766  0.00  0.00    +0.084 A 
ATOM      5  C   UNL     1       1.792   0.389  23.287  0.00  0.00    +0.034 A 
ATOM      6  C   UNL     1       0.989   0.345  23.104  0.00  0.00    +0.063 A 
ATOM      7  N   UNL     1       0.745  -0.008  22.400  0.00  0.00    -0.235 NA
BRANCH   4  29
ATOM     29  C   UNL     1       3.155   0.125  22.949  0.00  0.00    +0.018 A 
ATOM     30  C   UNL     1       3.530  -0.513  23.314  0.00  0.00    +0.001 A 
ATOM     31  C   UNL     1       4.334  -0.468  23.497  0.00  0.00    +0.004 A 
ATOM     32  C   UNL     1       4.761   0.214  23.316  0.00  0.00    +0.071 A 
ATOM     33  C   UNL     1       4.386   0.851  22.951  0.00  0.00    +0.004 A 
ATOM     34  C   UNL     1       3.582   0.807  22.767  0.00  0.00    +0.001 A 
BRANCH  32  35
ATOM     35  C   UNL     1       5.564   0.257  23.499  0.00  0.00    +0.419 C 
ATOM     36  F   UNL     1       6.367   0.301  23.684  0.00  0.00    -0.166 F 
ATOM     37  F   UNL     1       5.377   0.587  24.233  0.00  0.00    -0.166 F 
ATOM     38  F   UNL     1       5.751  -0.072  22.767  0.00  0.00    -0.166 F 
ENDBRANCH  32  35
ENDBRANCH   4  29
ENDBRANCH   8   6
BRANCH  15  16
ATOM     16  C   UNL     1      -1.172   1.560  25.119  0.00  0.00    +0.131 C 
BRANCH  16  17
ATOM     17  N   UNL     1      -1.928   1.772  24.864  0.00  0.00    -0.200 NA
ATOM     18  C   UNL     1      -2.367   2.324  25.291  0.00  0.00    +0.265 C 
ATOM     19  O   UNL     1      -2.052   2.666  25.972  0.00  0.00    -0.268 OA
BRANCH  18  20
ATOM     20  C   UNL     1      -3.123   2.535  25.036  0.00  0.00    +0.061 A 
ATOM     21  C   UNL     1      -3.668   1.950  24.832  0.00  0.00    +0.005 A 
ATOM     22  C   UNL     1      -4.424   2.161  24.577  0.00  0.00    +0.000 A 
ATOM     23  C   UNL     1      -4.635   2.957  24.526  0.00  0.00    +0.000 A 
ATOM     24  C   UNL     1      -4.089   3.542  24.730  0.00  0.00    +0.007 A 
ATOM     25  C   UNL     1      -3.335   3.331  24.985  0.00  0.00    +0.084 A 
BRANCH  25  26
ATOM     26  C   UNL     1      -2.789   3.916  25.189  0.00  0.00    +0.388 C 
ATOM     27  O   UNL     1      -2.269   4.212  24.621  0.00  0.00    -0.241 OA
ATOM     28  O   UNL     1      -2.765   4.205  25.961  0.00  0.00    -0.241 OA
ENDBRANCH  25  26
ENDBRANCH  18  20
ENDBRANCH  16  17
ENDBRANCH  15  16
TORSDOF 7
ENDMDL
MODEL 4
REMARK VINA RESULT:     -10.6      4.191      5.278
REMARK  Name = 
REMARK  7 active torsions:
REMARK  status: ('A' for Active; 'I' for Inactive)
REMARK    1  A    between atoms: C_4  and  C_29
REMARK    2  A    between atoms: C_6  and  C_8
REMARK    3  A    between atoms: C_15  and  C_16
REMARK    4  A    between atoms: C_16  and  N_17
REMARK    5  A    between atoms: C_18  and  C_20
REMARK    6  A    between atoms: C_25  and  C_26
REMARK    7  A    between atoms: C_32  and  C_35
REMARK                            x       y       z     vdW  Elec       q    Type
REMARK                         _______ _______ _______ _____ _____    ______ ____
ROOT
ATOM      8  C   UNL     1      -0.557   0.483  23.766  0.00  0.00    +0.056 C 
ATOM      9  C   UNL     1      -0.265   0.865  23.154  0.00  0.00    +0.078 C 
ATOM     10  N   UNL     1       0.083   0.223  23.539  0.00  0.00    -0.272 NA
ATOM     11  C   UNL     1      -0.562  -0.057  24.317  0.00  0.00    +0.072 C 
ATOM     12  C   UNL     1      -0.708  -0.445  24.823  0.00  0.00    +0.018 C 
ATOM     13  C   UNL     1      -0.210  -0.146  24.139  0.00  0.00    +0.010 C 
ATOM     14  C   UNL     1       0.543  -0.574  23.994  0.00  0.00    +0.018 C 
ATOM     15  C   UNL     1       0.864  -0.226  23.395  0.00  0.00    +0.079 C 
ENDROOT
BRANCH   8   6
ATOM      1  C   UNL     1      -3.307  -0.017  24.364  0.00  0.00    +0.074 C 
ATOM      2  C   UNL     1      -2.658   0.492  24.359  0.00  0.00    +0.139 A 
ATOM      3  N   UNL     1      -2.735   1.260  24.650  0.00  0.00    -0.231 NA
ATOM      4  C   UNL     1      -2.086   1.770  24.646  0.00  0.00    +0.084 A 
ATOM      5  C   UNL     1      -1.361   1.511  24.351  0.00  0.00    +0.034 A 
ATOM      6  C   UNL     1      -1.284   0.742  24.061  0.00  0.00    +0.063 A 
ATOM      7  N   UNL     1      -1.932   0.233  24.065  0.00  0.00    -0.235 NA
BRANCH   4  29
ATOM     29  C   UNL     1      -2.163   2.538  24.936  0.00  0.00    +0.018 A 
ATOM     30  C   UNL     1      -1.740   2.770  25.605  0.00  0.00    +0.001 A 
ATOM     31  C   UNL     1      -1.817   3.539  25.896  0.00  0.00    +0.004 A 
ATOM     32  C   UNL     1      -2.317   4.075  25.517  0.00  0.00    +0.071 A 
ATOM     33  C   UNL     1      -2.740   3.843  24.848  0.00  0.00    +0.004 A 
ATOM     34  C   UNL     1      -2.663   3.074  24.557  0.00  0.00    +0.001 A 
BRANCH  32  35
ATOM     35  C   UNL     1      -2.393   4.843  25.808  0.00  0.00    +0.419 C 
ATOM     36  F   UNL     1      -2.470   5.611  26.099  0.00  0.00    -0.166 F 
ATOM     37  F   UNL     1      -3.004   4.593  26.303  0.00  0.00    -0.166 F 
ATOM     38  F   UNL     1      -1.783   5.092  25.313  0.00  0.00    -0.166 F 
ENDBRANCH  32  35
ENDBRANCH   4  29
ENDBRANCH   8   6
BRANCH  15  16
ATOM     16  C   UNL     1       1.527  -0.245  22.906  0.00  0.00    +0.131 C 
BRANCH  16  17
ATOM     17  N   UNL     1       2.283  -0.278  23.235  0.00  0.00    -0.200 NA
ATOM     18  C   UNL     1       2.947  -0.218  22.750  0.00  0.00    +0.265 C 
ATOM     19  O   UNL     1       2.856  -0.124  21.935  0.00  0.00    -0.268 OA
BRANCH  18  20
ATOM     20  C   UNL     1       3.702  -0.251  23.079  0.00  0.00    +0.061 A 
ATOM     21  C   UNL     1       3.957  -0.938  23.460  0.00  0.00    +0.005 A 
ATOM     22  C   UNL     1       4.713  -0.971  23.790  0.00  0.00    +0.000 A 
ATOM     23  C   UNL     1       5.214  -0.318  23.739  0.00  0.00    +0.000 A 
ATOM     24  C   UNL     1       4.959   0.369  23.358  0.00  0.00    +0.007 A 
ATOM     25  C   UNL     1       4.205   0.402  23.029  0.00  0.00    +0.084 A 
BRANCH  25  26
ATOM     26  C   UNL     1       3.950   1.088  22.648  0.00  0.00    +0.388 C 
ATOM     27  O   UNL     1       4.073   1.180  21.837  0.00  0.00    -0.241 OA
ATOM     28  O   UNL     1       3.573   1.683  23.078  0.00  0.00    -0.241 OA
ENDBRANCH  25  26
ENDBRANCH  18  20
ENDBRANCH  16  17
ENDBRANCH  15  16
TORSDOF 7
ENDMDL
MODEL 5
REMARK VINA RESULT:     -10.0      3.650      5.890
REMARK  Name = 
REMARK  7 active torsions:
REMARK  status: ('A' for Active; 'I' for Inactive)
REMARK    1  A    between atoms: C_4  and  C_29
REMARK    2  A    between atoms: C_6  and  C_8
REMARK    3  A    between atoms: C_15  and  C_16
REMARK    4  A    between atoms: C_16  and  N_17
REMARK    5  A    between atoms: C_18  and  C_20
REMARK    6  A    between atoms: C_25  and  C_26
REMARK    7  A    between atoms: C_32  and  C_35
REMARK                            x       y       z     vdW  Elec       q    Type
REMARK                         _______ _______ _______ _____ _____    ______ ____
ROOT
ATOM      8  C   UNL     1      -1.266   0.924  24.324  0.00  0.00    +0.056 C 
ATOM      9  C   UNL     1      -1.833   0.958  23.792  0.00  0.00    +0.078 C 
ATOM     10  N   UNL     1      -1.746   1.456  24.444  0.00  0.00    -0.272 NA
ATOM     11  C   UNL     1      -0.887   1.147  24.959  0.00  0.00    +0.072 C 
ATOM     12  C   UNL     1      -0.468   1.212  25.456  0.00  0.00    +0.018 C 
ATOM     13  C   UNL     1      -1.188   1.417  24.962  0.00  0.00    +0.010 C 
ATOM     14  C   UNL     1      -1.670   2.094  25.245  0.00  0.00    +0.018 C 
ATOM     15  C   UNL     1      -2.243   2.161  24.744  0.00  0.00    +0.079 C 
ENDROOT
BRANCH   8   6
ATOM      1  C   UNL     1      -0.355  -1.741  24.811  0.00  0.00    +0.074 C 
ATOM      2  C   UNL     1      -0.240  -0.997  24.474  0.00  0.00    +0.139 A 
ATOM      3  N   UNL     1       0.446  -0.842  24.044  0.00  0.00    -0.231 NA
ATOM      4  C   UNL     1       0.562  -0.098  23.707  0.00  0.00    +0.084 A 
ATOM      5  C   UNL     1      -0.008   0.491  23.800  0.00  0.00    +0.034 A 
ATOM      6  C   UNL     1      -0.695   0.335  24.231  0.00  0.00    +0.063 A 
ATOM      7  N   UNL     1      -0.811  -0.408  24.568  0.00  0.00    -0.235 NA
BRANCH   4  29
ATOM     29  C   UNL     1       1.249   0.058  23.276  0.00  0.00    +0.018 A 
ATOM     30  C   UNL     1       1.840   0.533  23.601  0.00  0.00    +0.001 A 
ATOM     31  C   UNL     1       2.527   0.688  23.170  0.00  0.00    +0.004 A 
ATOM     32  C   UNL     1       2.621   0.370  22.415  0.00  0.00    +0.071 A 
ATOM     33  C   UNL     1       2.030  -0.105  22.090  0.00  0.00    +0.004 A 
ATOM     34  C   UNL     1       1.343  -0.260  22.521  0.00  0.00    +0.001 A 
BRANCH  32  35
ATOM     35  C   UNL     1       3.308   0.526  21.986  0.00  0.00    +0.419 C 
ATOM     36  F   UNL     1       3.995   0.683  21.556  0.00  0.00    -0.166 F 
ATOM     37  F   UNL     1       3.658   0.842  22.663  0.00  0.00    -0.166 F 
ATOM     38  F   UNL     1       2.958   0.211  21.309  0.00  0.00    -0.166 F 
ENDBRANCH  32  35
ENDBRANCH   4  29
ENDBRANCH   8   6
BRANCH  15  16
ATOM     16  C   UNL     1      -2.914   2.608  24.575  0.00  0.00    +0.131 C 
BRANCH  16  17
ATOM     17  N   UNL     1      -3.653   2.363  24.848  0.00  0.00    -0.200 NA
ATOM     18  C   UNL     1      -4.328   2.796  24.655  0.00  0.00    +0.265 C 
ATOM     19  O   UNL     1      -4.264   3.475  24.189  0.00  0.00    -0.268 OA
BRANCH  18  20
ATOM     20  C   UNL     1      -5.067   2.551  24.927  0.00  0.00    +0.061 A 
ATOM     21  C   UNL     1      -5.397   1.848  24.650  0.00  0.00    +0.005 A 
ATOM     22  C   UNL     1      -6.136   1.603  24.922  0.00  0.00    +0.000 A 
ATOM     23  C   UNL     1      -6.545   2.061  25.473  0.00  0.00    +0.000 A 
ATOM     24  C   UNL     1      -6.215   2.765  25.751  0.00  0.00    +0.007 A 
ATOM     25  C   UNL     1      -5.477   3.009  25.479  0.00  0.00    +0.084 A 
BRANCH  25  26
ATOM     26  C   UNL     1      -5.147   3.713  25.756  0.00  0.00    +0.388 C 
ATOM     27  O   UNL     1      -4.684   3.710  26.440  0.00  0.00    -0.241 OA
ATOM     28  O   UNL     1      -5.279   4.419  25.351  0.00  0.00    -0.241 OA
ENDBRANCH  25  26
ENDBRANCH  18  20
ENDBRANCH  16  17
ENDBRANCH  15  16
TORSDOF 7
ENDMDL
MODEL 6
REMARK VINA RESULT:     -10.0      4.089      5.385
REMARK  Name = 
REMARK  7 active torsions:
REMARK  status: ('A' for Active; 'I' for Inactive)
REMARK    1  A    between atoms: C_4  and  C_29
REMARK    2  A    between atoms: C_6  and  C_8
REMARK    3  A    between atoms: C_15  and  C_16
REMARK    4  A    between atoms: C_16  and  N_17
REMARK    5  A    between atoms: C_18  and  C_20
REMARK    6  A    between atoms: C_25  and  C_26
REMARK    7  A    between atoms: C_32  and  C_35
REMARK                            x       y       z     vdW  Elec       q    Type
REMARK                         _______ _______ _______ _____ _____    ______ ____
ROOT
ATOM      8  C   UNL     1      -1.002   0.042  23.881  0.00  0.00    +0.056 C 
ATOM      9  C   UNL     1      -0.871   0.263  23.146  0.00  0.00    +0.078 C 
ATOM     10  N   UNL     1      -0.304  -0.007  23.682  0.00  0.00    -0.272 NA
ATOM     11  C   UNL     1      -0.804  -0.221  24.579  0.00  0.00    +0.072 C 
ATOM     12  C   UNL     1      -0.795  -0.427  25.199  0.00  0.00    +0.018 C 
ATOM     13  C   UNL     1      -0.440  -0.222  24.401  0.00  0.00    +0.010 C 
ATOM     14  C   UNL     1       0.426  -0.340  24.322  0.00  0.00    +0.018 C 
ATOM     15  C   UNL     1       0.597  -0.132  23.607  0.00  0.00    +0.079 C 
ENDROOT
BRANCH   8   6
ATOM      1  C   UNL     1      -3.376  -1.267  24.785  0.00  0.00    +0.074 C 
ATOM      2  C   UNL     1      -2.966  -0.574  24.606  0.00  0.00    +0.139 A 
ATOM      3  N   UNL     1      -3.335   0.158  24.700  0.00  0.00    -0.231 NA
ATOM      4  C   UNL     1      -2.926   0.852  24.521  0.00  0.00    +0.084 A 
ATOM      5  C   UNL     1      -2.149   0.813  24.248  0.00  0.00    +0.034 A 
ATOM      6  C   UNL     1      -1.781   0.081  24.154  0.00  0.00    +0.063 A 
ATOM      7  N   UNL     1      -2.189  -0.612  24.333  0.00  0.00    -0.235 NA
BRANCH   4  29
ATOM     29  C   UNL     1      -3.294   1.585  24.615  0.00  0.00    +0.018 A 
ATOM     30  C   UNL     1      -3.916   1.800  24.118  0.00  0.00    +0.001 A 
ATOM     31  C   UNL     1      -4.284   2.532  24.211  0.00  0.00    +0.004 A 
ATOM     32  C   UNL     1      -4.030   3.049  24.802  0.00  0.00    +0.071 A 
ATOM     33  C   UNL     1      -3.408   2.834  25.299  0.00  0.00    +0.004 A 
ATOM     34  C   UNL     1      -3.040   2.101  25.206  0.00  0.00    +0.001 A 
BRANCH  32  35
ATOM     35  C   UNL     1      -4.399   3.781  24.895  0.00  0.00    +0.419 C 
ATOM     36  F   UNL     1      -4.768   4.513  24.989  0.00  0.00    -0.166 F 
ATOM     37  F   UNL     1      -4.846   3.476  25.518  0.00  0.00    -0.166 F 
ATOM     38  F   UNL     1      -3.952   4.087  24.274  0.00  0.00    -0.166 F 
ENDBRANCH  32  35
ENDBRANCH   4  29
ENDBRANCH   8   6
BRANCH  15  16
ATOM     16  C   UNL     1       1.225  -0.061  23.079  0.00  0.00    +0.131 C 
BRANCH  16  17
ATOM     17  N   UNL     1       2.001  -0.158  23.344  0.00  0.00    -0.200 NA
ATOM     18  C   UNL     1       2.625  -0.139  22.806  0.00  0.00    +0.265 C 
ATOM     19  O   UNL     1       2.476  -0.024  22.003  0.00  0.00    -0.268 OA
BRANCH  18  20
ATOM     20  C   UNL     1       3.401  -0.236  23.072  0.00  0.00    +0.061 A 
ATOM     21  C   UNL     1       3.624  -0.937  23.446  0.00  0.00    +0.005 A 
ATOM     22  C   UNL     1       4.400  -1.034  23.711  0.00  0.00    +0.000 A 
ATOM     23  C   UNL     1       4.951  -0.430  23.602  0.00  0.00    +0.000 A 
ATOM     24  C   UNL     1       4.727   0.271  23.228  0.00  0.00    +0.007 A 
ATOM     25  C   UNL     1       3.953   0.367  22.963  0.00  0.00    +0.084 A 
BRANCH  25  26
ATOM     26  C   UNL     1       3.729   1.068  22.589  0.00  0.00    +0.388 C 
ATOM     27  O   UNL     1       3.808   1.143  21.771  0.00  0.00    -0.241 OA
ATOM     28  O   UNL     1       3.427   1.694  23.033  0.00  0.00    -0.241 OA
ENDBRANCH  25  26
ENDBRANCH  18  20
ENDBRANCH  16  17
ENDBRANCH  15  16
TORSDOF 7
ENDMDL
MODEL 7
REMARK VINA RESULT:     -10.0      2.236      3.243
REMARK  Name = 
REMARK  7 active torsions:
REMARK  status: ('A' for Active; 'I' for Inactive)
REMARK    1  A    between atoms: C_4  and  C_29
REMARK    2  A    between atoms: C_6  and  C_8
REMARK    3  A    between atoms: C_15  and  C_16
REMARK    4  A    between atoms: C_16  and  N_17
REMARK    5  A    between atoms: C_18  and  C_20
REMARK    6  A    between atoms: C_25  and  C_26
REMARK    7  A    between atoms: C_32  and  C_35
REMARK                            x       y       z     vdW  Elec       q    Type
REMARK                         _______ _______ _______ _____ _____    ______ ____
ROOT
ATOM      8  C   UNL     1      -1.418   1.803  24.858  0.00  0.00    +0.056 C 
ATOM      9  C   UNL     1      -1.523   1.337  25.472  0.00  0.00    +0.078 C 
ATOM     10  N   UNL     1      -1.223   1.113  24.736  0.00  0.00    -0.272 NA
ATOM     11  C   UNL     1      -1.210   1.971  24.133  0.00  0.00    +0.072 C 
ATOM     12  C   UNL     1      -1.081   2.263  23.563  0.00  0.00    +0.018 C 
ATOM     13  C   UNL     1      -1.123   1.576  24.138  0.00  0.00    +0.010 C 
ATOM     14  C   UNL     1      -0.847   0.800  23.834  0.00  0.00    +0.018 C 
ATOM     15  C   UNL     1      -0.934   0.310  24.413  0.00  0.00    +0.079 C 
ENDROOT
BRANCH   8   6
ATOM      1  C   UNL     1      -0.665   4.556  25.014  0.00  0.00    +0.074 C 
ATOM      2  C   UNL     1      -1.249   3.973  25.024  0.00  0.00    +0.139 A 
ATOM      3  N   UNL     1      -2.040   4.184  25.123  0.00  0.00    -0.231 NA
ATOM      4  C   UNL     1      -2.624   3.602  25.133  0.00  0.00    +0.084 A 
ATOM      5  C   UNL     1      -2.417   2.809  25.045  0.00  0.00    +0.034 A 
ATOM      6  C   UNL     1      -1.625   2.598  24.946  0.00  0.00    +0.063 A 
ATOM      7  N   UNL     1      -1.041   3.179  24.936  0.00  0.00    -0.235 NA
BRANCH   4  29
ATOM     29  C   UNL     1      -3.416   3.813  25.232  0.00  0.00    +0.018 A 
ATOM     30  C   UNL     1      -3.737   3.864  25.990  0.00  0.00    +0.001 A 
ATOM     31  C   UNL     1      -4.529   4.075  26.089  0.00  0.00    +0.004 A 
ATOM     32  C   UNL     1      -4.998   4.235  25.429  0.00  0.00    +0.071 A 
ATOM     33  C   UNL     1      -4.677   4.184  24.672  0.00  0.00    +0.004 A 
ATOM     34  C   UNL     1      -3.885   3.973  24.573  0.00  0.00    +0.001 A 
BRANCH  32  35
ATOM     35  C   UNL     1      -5.790   4.446  25.529  0.00  0.00    +0.419 C 
ATOM     36  F   UNL     1      -6.581   4.656  25.629  0.00  0.00    -0.166 F 
ATOM     37  F   UNL     1      -5.976   3.660  25.700  0.00  0.00    -0.166 F 
ATOM     38  F   UNL     1      -5.603   5.230  25.359  0.00  0.00    -0.166 F 
ENDBRANCH  32  35
ENDBRANCH   4  29
ENDBRANCH   8   6
BRANCH  15  16
ATOM     16  C   UNL     1      -0.829  -0.480  24.623  0.00  0.00    +0.131 C 
BRANCH  16  17
ATOM     17  N   UNL     1      -1.392  -1.043  24.407  0.00  0.00    -0.200 NA
ATOM     18  C   UNL     1      -1.604  -1.638  24.938  0.00  0.00    +0.265 C 
ATOM     19  O   UNL     1      -1.253  -1.671  25.683  0.00  0.00    -0.268 OA
BRANCH  18  20
ATOM     20  C   UNL     1      -2.167  -2.201  24.722  0.00  0.00    +0.061 A 
ATOM     21  C   UNL     1      -1.980  -2.779  24.164  0.00  0.00    +0.005 A 
ATOM     22  C   UNL     1      -2.543  -3.342  23.948  0.00  0.00    +0.000 A 
ATOM     23  C   UNL     1      -3.294  -3.327  24.291  0.00  0.00    +0.000 A 
ATOM     24  C   UNL     1      -3.481  -2.749  24.849  0.00  0.00    +0.007 A 
ATOM     25  C   UNL     1      -2.918  -2.187  25.064  0.00  0.00    +0.084 A 
BRANCH  25  26
ATOM     26  C   UNL     1      -3.105  -1.608  25.622  0.00  0.00    +0.388 C 
ATOM     27  O   UNL     1      -3.579  -0.967  25.409  0.00  0.00    -0.241 OA
ATOM     28  O   UNL     1      -2.819  -1.671  26.393  0.00  0.00    -0.241 OA
ENDBRANCH  25  26
ENDBRANCH  18  20
ENDBRANCH  16  17
ENDBRANCH  15  16
TORSDOF 7
ENDMDL
MODEL 8
REMARK VINA RESULT:      -9.8      4.409      5.407
REMARK  Name = 
REMARK  7 active torsions:
REMARK  status: ('A' for Active; 'I' for Inactive)
REMARK    1  A    between atoms: C_4  and  C_29
REMARK    2  A    between atoms: C_6  and  C_8
REMARK    3  A    between atoms: C_15  and  C_16
REMARK    4  A    between atoms: C_16  and  N_17
REMARK    5  A    between atoms: C_18  and  C_20
REMARK    6  A    between atoms: C_25  and  C_26
REMARK    7  A    between atoms: C_32  and  C_35
REMARK                            x       y       z     vdW  Elec       q    Type
REMARK                         _______ _______ _______ _____ _____    ______ ____
ROOT
ATOM      8  C   UNL     1      -0.564   1.975  24.089  0.00  0.00    +0.056 C 
ATOM      9  C   UNL     1      -0.406   1.993  23.327  0.00  0.00    +0.078 C 
ATOM     10  N   UNL     1      -0.063   1.489  23.884  0.00  0.00    -0.272 NA
ATOM     11  C   UNL     1      -0.491   1.718  24.813  0.00  0.00    +0.072 C 
ATOM     12  C   UNL     1      -0.542   1.613  25.456  0.00  0.00    +0.018 C 
ATOM     13  C   UNL     1      -0.223   1.477  24.629  0.00  0.00    +0.010 C 
ATOM     14  C   UNL     1       0.383   0.848  24.548  0.00  0.00    +0.018 C 
ATOM     15  C   UNL     1       0.567   0.834  23.807  0.00  0.00    +0.079 C 
ENDROOT
BRANCH   8   6
ATOM      1  C   UNL     1      -1.225   4.534  25.174  0.00  0.00    +0.074 C 
ATOM      2  C   UNL     1      -1.458   3.787  24.913  0.00  0.00    +0.139 A 
ATOM      3  N   UNL     1      -2.254   3.574  24.934  0.00  0.00    -0.231 NA
ATOM      4  C   UNL     1      -2.488   2.826  24.673  0.00  0.00    +0.084 A 
ATOM      5  C   UNL     1      -1.925   2.294  24.391  0.00  0.00    +0.034 A 
ATOM      6  C   UNL     1      -1.128   2.508  24.371  0.00  0.00    +0.063 A 
ATOM      7  N   UNL     1      -0.895   3.254  24.631  0.00  0.00    -0.235 NA
BRANCH   4  29
ATOM     29  C   UNL     1      -3.284   2.612  24.693  0.00  0.00    +0.018 A 
ATOM     30  C   UNL     1      -3.727   2.605  23.998  0.00  0.00    +0.001 A 
ATOM     31  C   UNL     1      -4.524   2.391  24.018  0.00  0.00    +0.004 A 
ATOM     32  C   UNL     1      -4.877   2.183  24.734  0.00  0.00    +0.071 A 
ATOM     33  C   UNL     1      -4.434   2.190  25.430  0.00  0.00    +0.004 A 
ATOM     34  C   UNL     1      -3.637   2.404  25.410  0.00  0.00    +0.001 A 
BRANCH  32  35
ATOM     35  C   UNL     1      -5.673   1.969  24.754  0.00  0.00    +0.419 C 
ATOM     36  F   UNL     1      -6.470   1.755  24.774  0.00  0.00    -0.166 F 
ATOM     37  F   UNL     1      -5.879   2.751  24.917  0.00  0.00    -0.166 F 
ATOM     38  F   UNL     1      -5.468   1.187  24.591  0.00  0.00    -0.166 F 
ENDBRANCH  32  35
ENDBRANCH   4  29
ENDBRANCH   8   6
BRANCH  15  16
ATOM     16  C   UNL     1       1.051   0.451  23.260  0.00  0.00    +0.131 C 
BRANCH  16  17
ATOM     17  N   UNL     1       1.820   0.235  23.469  0.00  0.00    -0.200 NA
ATOM     18  C   UNL     1       2.357   0.011  22.885  0.00  0.00    +0.265 C 
ATOM     19  O   UNL     1       2.127   0.002  22.093  0.00  0.00    -0.268 OA
BRANCH  18  20
ATOM     20  C   UNL     1       3.126  -0.205  23.093  0.00  0.00    +0.061 A 
ATOM     21  C   UNL     1       3.262  -0.919  23.484  0.00  0.00    +0.005 A 
ATOM     22  C   UNL     1       4.031  -1.135  23.693  0.00  0.00    +0.000 A 
ATOM     23  C   UNL     1       4.663  -0.637  23.510  0.00  0.00    +0.000 A 
ATOM     24  C   UNL     1       4.526   0.076  23.119  0.00  0.00    +0.007 A 
ATOM     25  C   UNL     1       3.759   0.292  22.911  0.00  0.00    +0.084 A 
BRANCH  25  26
ATOM     26  C   UNL     1       3.622   1.006  22.520  0.00  0.00    +0.388 C 
ATOM     27  O   UNL     1       3.606   1.029  21.696  0.00  0.00    -0.241 OA
ATOM     28  O   UNL     1       3.501   1.697  22.954  0.00  0.00    -0.241 OA
ENDBRANCH  25  26
ENDBRANCH  18  20
ENDBRANCH  16  17
ENDBRANCH  15  16
TORSDOF 7
ENDMDL
MODEL 9
REMARK VINA RESULT:      -9.8      4.930      6.855
REMARK  Name = 
REMARK  7 active torsions:
REMARK  status: ('A' for Active; 'I' for Inactive)
REMARK    1  A    between atoms: C_4  and  C_29
REMARK    2  A    between atoms: C_6  and  C_8
REMARK    3  A    between atoms: C_15  and  C_16
REMARK    4  A    between atoms: C_16  and  N_17
REMARK    5  A    between atoms: C_18  and  C_20
REMARK    6  A    between atoms: C_25  and  C_26
REMARK    7  A    between atoms: C_32  and  C_35
REMARK                            x       y       z     vdW  Elec       q    Type
REMARK                         _______ _______ _______ _____ _____    ______ ____
ROOT
ATOM      8  C   UNL     1      -0.133  -0.415  24.159  0.00  0.00    +0.056 C 
ATOM      9  C   UNL     1       0.354  -1.007  24.024  0.00  0.00    +0.078 C 
ATOM     10  N   UNL     1       0.414  -0.245  23.711  0.00  0.00    -0.272 NA
ATOM     11  C   UNL     1      -0.394   0.308  24.086  0.00  0.00    +0.072 C 
ATOM     12  C   UNL     1      -0.730   0.867  24.125  0.00  0.00    +0.018 C 
ATOM     13  C   UNL     1      -0.068   0.330  23.847  0.00  0.00    +0.010 C 
ATOM     14  C   UNL     1       0.519   0.690  23.304  0.00  0.00    +0.018 C 
ATOM     15  C   UNL     1       1.021   0.136  23.146  0.00  0.00    +0.079 C 
ENDROOT
BRANCH   8   6
ATOM      1  C   UNL     1      -1.344  -0.222  26.741  0.00  0.00    +0.074 C 
ATOM      2  C   UNL     1      -1.377  -0.461  25.952  0.00  0.00    +0.139 A 
ATOM      3  N   UNL     1      -2.049  -0.845  25.666  0.00  0.00    -0.231 NA
ATOM      4  C   UNL     1      -2.083  -1.085  24.878  0.00  0.00    +0.084 A 
ATOM      5  C   UNL     1      -1.445  -0.942  24.375  0.00  0.00    +0.034 A 
ATOM      6  C   UNL     1      -0.773  -0.558  24.662  0.00  0.00    +0.063 A 
ATOM      7  N   UNL     1      -0.739  -0.318  25.450  0.00  0.00    -0.235 NA
BRANCH   4  29
ATOM     29  C   UNL     1      -2.755  -1.469  24.591  0.00  0.00    +0.018 A 
ATOM     30  C   UNL     1      -3.410  -1.029  24.352  0.00  0.00    +0.001 A 
ATOM     31  C   UNL     1      -4.082  -1.412  24.065  0.00  0.00    +0.004 A 
ATOM     32  C   UNL     1      -4.099  -2.236  24.019  0.00  0.00    +0.071 A 
ATOM     33  C   UNL     1      -3.444  -2.676  24.259  0.00  0.00    +0.004 A 
ATOM     34  C   UNL     1      -2.771  -2.292  24.545  0.00  0.00    +0.001 A 
BRANCH  32  35
ATOM     35  C   UNL     1      -4.771  -2.619  23.732  0.00  0.00    +0.419 C 
ATOM     36  F   UNL     1      -5.443  -3.002  23.446  0.00  0.00    -0.166 F 
ATOM     37  F   UNL     1      -4.371  -3.340  23.760  0.00  0.00    -0.166 F 
ATOM     38  F   UNL     1      -5.171  -1.898  23.705  0.00  0.00    -0.166 F 
ENDBRANCH  32  35
ENDBRANCH   4  29
ENDBRANCH   8   6
BRANCH  15  16
ATOM     16  C   UNL     1       1.706  -0.023  22.718  0.00  0.00    +0.131 C 
BRANCH  16  17
ATOM     17  N   UNL     1       2.431  -0.087  23.107  0.00  0.00    -0.200 NA
ATOM     18  C   UNL     1       3.129  -0.141  22.671  0.00  0.00    +0.265 C 
ATOM     19  O   UNL     1       3.103  -0.131  21.846  0.00  0.00    -0.268 OA
BRANCH  18  20
ATOM     20  C   UNL     1       3.854  -0.206  23.060  0.00  0.00    +0.061 A 
ATOM     21  C   UNL     1       4.045  -0.900  23.463  0.00  0.00    +0.005 A 
ATOM     22  C   UNL     1       4.770  -0.965  23.852  0.00  0.00    +0.000 A 
ATOM     23  C   UNL     1       5.303  -0.336  23.838  0.00  0.00    +0.000 A 
ATOM     24  C   UNL     1       5.112   0.358  23.435  0.00  0.00    +0.007 A 
ATOM     25  C   UNL     1       4.388   0.423  23.046  0.00  0.00    +0.084 A 
BRANCH  25  26
ATOM     26  C   UNL     1       4.196   1.117  22.643  0.00  0.00    +0.388 C 
ATOM     27  O   UNL     1       3.913   1.771  23.058  0.00  0.00    -0.241 OA
ATOM     28  O   UNL     1       4.289   1.157  21.824  0.00  0.00    -0.241 OA
ENDBRANCH  25  26
ENDBRANCH  18  20
ENDBRANCH  16  17
ENDBRANCH  15  16
TORSDOF 7
ENDMDL
MODEL 10
REMARK VINA RESULT:      -9.5      4.324      6.087
REMARK  Name = 
REMARK  7 active torsions:
REMARK  status: ('A' for Active; 'I' for Inactive)
REMARK    1  A    between atoms: C_4  and  C_29
REMARK    2  A    between atoms: C_6  and  C_8
REMARK    3  A    between atoms: C_15  and  C_16
REMARK    4  A    between atoms: C_16  and  N_17
REMARK    5  A    between atoms: C_18  and  C_20
REMARK    6  A    between atoms: C_25  and  C_26
REMARK    7  A    between atoms: C_32  and  C_35
REMARK                            x       y       z     vdW  Elec       q    Type
REMARK                         _______ _______ _______ _____ _____    ______ ____
ROOT
ATOM      8  C   UNL     1       0.478  -0.223  23.499  0.00  0.00    +0.056 C 
ATOM      9  C   UNL     1       0.205  -0.921  23.706  0.00  0.00    +0.078 C 
ATOM     10  N   UNL     1      -0.070  -0.191  23.976  0.00  0.00    -0.272 NA
ATOM     11  C   UNL     1       0.507   0.549  23.508  0.00  0.00    +0.072 C 
ATOM     12  C   UNL     1       0.652   1.178  23.410  0.00  0.00    +0.018 C 
ATOM     13  C   UNL     1       0.203   0.490  23.769  0.00  0.00    +0.010 C 
ATOM     14  C   UNL     1      -0.436   0.698  24.333  0.00  0.00    +0.018 C 
ATOM     15  C   UNL     1      -0.733   0.033  24.561  0.00  0.00    +0.079 C 
ENDROOT
BRANCH   8   6
ATOM      1  C   UNL     1       1.422  -0.321  20.803  0.00  0.00    +0.074 C 
ATOM      2  C   UNL     1       1.574  -0.255  21.611  0.00  0.00    +0.139 A 
ATOM      3  N   UNL     1       2.350  -0.171  21.879  0.00  0.00    -0.231 NA
ATOM      4  C   UNL     1       2.502  -0.105  22.687  0.00  0.00    +0.084 A 
ATOM      5  C   UNL     1       1.879  -0.122  23.227  0.00  0.00    +0.034 A 
ATOM      6  C   UNL     1       1.103  -0.205  22.958  0.00  0.00    +0.063 A 
ATOM      7  N   UNL     1       0.950  -0.272  22.151  0.00  0.00    -0.235 NA
BRANCH   4  29
ATOM     29  C   UNL     1       3.278  -0.021  22.956  0.00  0.00    +0.018 A 
ATOM     30  C   UNL     1       3.683   0.686  22.833  0.00  0.00    +0.001 A 
ATOM     31  C   UNL     1       4.459   0.770  23.101  0.00  0.00    +0.004 A 
ATOM     32  C   UNL     1       4.829   0.145  23.493  0.00  0.00    +0.071 A 
ATOM     33  C   UNL     1       4.424  -0.563  23.616  0.00  0.00    +0.004 A 
ATOM     34  C   UNL     1       3.648  -0.646  23.348  0.00  0.00    +0.001 A 
BRANCH  32  35
ATOM     35  C   UNL     1       5.604   0.229  23.761  0.00  0.00    +0.419 C 
ATOM     36  F   UNL     1       6.380   0.313  24.029  0.00  0.00    -0.166 F 
ATOM     37  F   UNL     1       5.880  -0.132  23.073  0.00  0.00    -0.166 F 
ATOM     38  F   UNL     1       5.328   0.591  24.449  0.00  0.00    -0.166 F 
ENDBRANCH  32  35
ENDBRANCH   4  29
ENDBRANCH   8   6
BRANCH  15  16
ATOM     16  C   UNL     1      -1.312  -0.292  25.049  0.00  0.00    +0.131 C 
BRANCH  16  17
ATOM     17  N   UNL     1      -1.885  -0.794  24.733  0.00  0.00    -0.200 NA
ATOM     18  C   UNL     1      -2.582  -0.939  25.150  0.00  0.00    +0.265 C 
ATOM     19  O   UNL     1      -2.707  -0.581  25.883  0.00  0.00    -0.268 OA
BRANCH  18  20
ATOM     20  C   UNL     1      -3.155  -1.441  24.834  0.00  0.00    +0.061 A 
ATOM     21  C   UNL     1      -3.015  -2.253  24.794  0.00  0.00    +0.005 A 
ATOM     22  C   UNL     1      -3.588  -2.756  24.478  0.00  0.00    +0.000 A 
ATOM     23  C   UNL     1      -4.301  -2.446  24.201  0.00  0.00    +0.000 A 
ATOM     24  C   UNL     1      -4.441  -1.634  24.240  0.00  0.00    +0.007 A 
ATOM     25  C   UNL     1      -3.868  -1.132  24.556  0.00  0.00    +0.084 A 
BRANCH  25  26
ATOM     26  C   UNL     1      -4.008  -0.319  24.596  0.00  0.00    +0.388 C 
ATOM     27  O   UNL     1      -3.874   0.155  23.934  0.00  0.00    -0.241 OA
ATOM     28  O   UNL     1      -4.282   0.019  25.296  0.00  0.00    -0.241 OA
ENDBRANCH  25  26
ENDBRANCH  18  20
ENDBRANCH  16  17
ENDBRANCH  15  16
TORSDOF 7
ENDMDL
