MODEL 1
REMARK VINA RESULT:     -10.9      0.000      0.000
REMARK  Name = 
REMARK  5 active torsions:
REMARK  status: ('A' for Active; 'I' for Inactive)
REMARK    1  A    between atoms: C_2  and  C_3
REMARK    2  A    between atoms: C_5  and  C_6
REMARK    3  A    between atoms: C_6  and  N_7
REMARK    4  A    between atoms: C_8  and  C_10
REMARK    5  A    between atoms: C_18  and  N_21
REMARK                            x       y       z     vdW  Elec       q    Type
REMARK                         _______ _______ _______ _____ _____    ______ ____
ROOT
ATOM      3  C   UNL     1      -1.120   1.996  24.446  0.00  0.00    +0.180 C 
ATOM      4  O   UNL     1      -1.634   1.361  24.562  0.00  0.00    -0.350 OA
ATOM      5  C   UNL     1      -2.388   1.666  24.698  0.00  0.00    +0.154 C 
ATOM     18  C   UNL     1      -2.339   2.489  24.667  0.00  0.00    +0.120 C 
ATOM     19  C   UNL     1      -1.556   2.692  24.510  0.00  0.00    +0.198 C 
ATOM     20  O   UNL     1      -1.260   3.459  24.432  0.00  0.00    -0.219 OA
ENDROOT
BRANCH  18  21
ATOM     21  N   UNL     1      -2.966   3.016  24.772  0.00  0.00    -0.270 NA
ATOM     22  C   UNL     1      -3.193   3.361  25.486  0.00  0.00    +0.072 C 
ATOM     23  C   UNL     1      -3.843   3.849  25.337  0.00  0.00    +0.019 C 
ATOM     24  C   UNL     1      -4.016   3.804  24.532  0.00  0.00    +0.019 C 
ATOM     25  C   UNL     1      -3.474   3.290  24.183  0.00  0.00    +0.072 C 
ENDBRANCH  18  21
BRANCH   3   2
ATOM      1  O   UNL     1       0.065   1.208  24.308  0.00  0.00    -0.218 OA
ATOM      2  C   UNL     1      -0.311   1.942  24.292  0.00  0.00    +0.214 C 
ENDBRANCH   3   2
BRANCH   5   6
ATOM      6  C   UNL     1      -3.071   1.225  24.842  0.00  0.00    +0.146 C 
BRANCH   6   7
ATOM      7  N   UNL     1      -3.053   0.404  24.776  0.00  0.00    -0.199 NA
ATOM      8  C   UNL     1      -3.718  -0.041  24.979  0.00  0.00    +0.265 C 
ATOM      9  O   UNL     1      -4.399   0.336  25.249  0.00  0.00    -0.268 OA
BRANCH   8  10
ATOM     10  C   UNL     1      -3.699  -0.863  24.913  0.00  0.00    +0.056 A 
ATOM     11  C   UNL     1      -4.010  -1.230  24.242  0.00  0.00    +0.018 A 
ATOM     12  C   UNL     1      -3.993  -2.051  24.175  0.00  0.00    +0.085 A 
ATOM     13 CL   UNL     1      -4.303  -2.417  23.504  0.00  0.00    -0.080 Cl
ATOM     14  C   UNL     1      -3.664  -2.508  24.779  0.00  0.00    +0.151 A 
ATOM     15  F   UNL     1      -3.646  -3.329  24.712  0.00  0.00    -0.203 F 
ATOM     16  C   UNL     1      -3.353  -2.141  25.450  0.00  0.00    +0.031 A 
ATOM     17  C   UNL     1      -3.371  -1.319  25.516  0.00  0.00    +0.007 A 
ENDBRANCH   8  10
ENDBRANCH   6   7
ENDBRANCH   5   6
TORSDOF 5
ENDMDL
MODEL 2
REMARK VINA RESULT:     -10.8      1.328      2.517
REMARK  Name = 
REMARK  5 active torsions:
REMARK  status: ('A' for Active; 'I' for Inactive)
REMARK    1  A    between atoms: C_2  and  C_3
REMARK    2  A    between atoms: C_5  and  C_6
REMARK    3  A    between atoms: C_6  and  N_7
REMARK    4  A    between atoms: C_8  and  C_10
REMARK    5  A    between atoms: C_18  and  N_21
REMARK                            x       y       z     vdW  Elec       q    Type
REMARK                         _______ _______ _______ _____ _____    ______ ____
ROOT
ATOM      3  C   UNL     1      -5.252   2.447  25.248  0.00  0.00    +0.180 C 
ATOM      4  O   UNL     1      -4.867   1.738  25.074  0.00  0.00    -0.350 OA
ATOM      5  C   UNL     1      -4.060   1.895  25.009  0.00  0.00    +0.154 C 
ATOM     18  C   UNL     1      -3.946   2.701  25.143  0.00  0.00    +0.120 C 
ATOM     19  C   UNL     1      -4.682   3.042  25.291  0.00  0.00    +0.198 C 
ATOM     20  O   UNL     1      -4.825   3.839  25.452  0.00  0.00    -0.219 OA
ENDROOT
BRANCH  18  21
ATOM     21  N   UNL     1      -3.222   3.097  25.132  0.00  0.00    -0.270 NA
ATOM     22  C   UNL     1      -2.861   3.428  24.469  0.00  0.00    +0.072 C 
ATOM     23  C   UNL     1      -2.147   3.767  24.710  0.00  0.00    +0.019 C 
ATOM     24  C   UNL     1      -2.068   3.644  25.522  0.00  0.00    +0.019 C 
ATOM     25  C   UNL     1      -2.732   3.230  25.783  0.00  0.00    +0.072 C 
ENDBRANCH  18  21
BRANCH   3   2
ATOM      1  O   UNL     1      -6.588   1.967  25.089  0.00  0.00    -0.218 OA
ATOM      2  C   UNL     1      -6.063   2.543  25.359  0.00  0.00    +0.214 C 
ENDBRANCH   3   2
BRANCH   5   6
ATOM      6  C   UNL     1      -3.470   1.343  24.841  0.00  0.00    +0.146 C 
BRANCH   6   7
ATOM      7  N   UNL     1      -3.626   0.537  24.916  0.00  0.00    -0.199 NA
ATOM      8  C   UNL     1      -3.086  -0.016  24.626  0.00  0.00    +0.265 C 
ATOM      9  O   UNL     1      -2.391   0.237  24.263  0.00  0.00    -0.268 OA
BRANCH   8  10
ATOM     10  C   UNL     1      -3.242  -0.822  24.701  0.00  0.00    +0.056 A 
ATOM     11  C   UNL     1      -3.690  -1.211  24.127  0.00  0.00    +0.018 A 
ATOM     12  C   UNL     1      -3.846  -2.017  24.201  0.00  0.00    +0.085 A 
ATOM     13 CL   UNL     1      -4.294  -2.405  23.626  0.00  0.00    -0.080 Cl
ATOM     14  C   UNL     1      -3.555  -2.436  24.850  0.00  0.00    +0.151 A 
ATOM     15  F   UNL     1      -3.712  -3.242  24.924  0.00  0.00    -0.203 F 
ATOM     16  C   UNL     1      -3.108  -2.048  25.424  0.00  0.00    +0.031 A 
ATOM     17  C   UNL     1      -2.951  -1.241  25.349  0.00  0.00    +0.007 A 
ENDBRANCH   8  10
ENDBRANCH   6   7
ENDBRANCH   5   6
TORSDOF 5
ENDMDL
MODEL 3
REMARK VINA RESULT:     -10.1      2.470      4.330
REMARK  Name = 
REMARK  5 active torsions:
REMARK  status: ('A' for Active; 'I' for Inactive)
REMARK    1  A    between atoms: C_2  and  C_3
REMARK    2  A    between atoms: C_5  and  C_6
REMARK    3  A    between atoms: C_6  and  N_7
REMARK    4  A    between atoms: C_8  and  C_10
REMARK    5  A    between atoms: C_18  and  N_21
REMARK                            x       y       z     vdW  Elec       q    Type
REMARK                         _______ _______ _______ _____ _____    ______ ____
ROOT
ATOM      3  C   UNL     1      -1.384  -0.123  24.916  0.00  0.00    +0.180 C 
ATOM      4  O   UNL     1      -2.067   0.341  24.902  0.00  0.00    -0.350 OA
ATOM      5  C   UNL     1      -2.716  -0.165  24.843  0.00  0.00    +0.154 C 
ATOM     18  C   UNL     1      -2.434  -0.940  24.822  0.00  0.00    +0.120 C 
ATOM     19  C   UNL     1      -1.612  -0.914  24.867  0.00  0.00    +0.198 C 
ATOM     20  O   UNL     1      -1.104  -1.565  24.863  0.00  0.00    -0.219 OA
ENDROOT
BRANCH  18  21
ATOM     21  N   UNL     1      -2.896  -1.622  24.765  0.00  0.00    -0.270 NA
ATOM     22  C   UNL     1      -3.188  -2.063  25.398  0.00  0.00    +0.072 C 
ATOM     23  C   UNL     1      -3.619  -2.696  25.089  0.00  0.00    +0.019 C 
ATOM     24  C   UNL     1      -3.592  -2.646  24.266  0.00  0.00    +0.019 C 
ATOM     25  C   UNL     1      -3.145  -1.982  24.066  0.00  0.00    +0.072 C 
ENDBRANCH  18  21
BRANCH   3   2
ATOM      1  O   UNL     1      -0.464   0.969  24.982  0.00  0.00    -0.218 OA
ATOM      2  C   UNL     1      -0.610   0.157  24.970  0.00  0.00    +0.214 C 
ENDBRANCH   3   2
BRANCH   5   6
ATOM      6  C   UNL     1      -3.508   0.064  24.812  0.00  0.00    +0.146 C 
BRANCH   6   7
ATOM      7  N   UNL     1      -3.720   0.841  24.991  0.00  0.00    -0.199 NA
ATOM      8  C   UNL     1      -4.493   1.098  24.860  0.00  0.00    +0.265 C 
ATOM      9  O   UNL     1      -5.054   0.579  24.551  0.00  0.00    -0.268 OA
BRANCH   8  10
ATOM     10  C   UNL     1      -4.705   1.875  25.039  0.00  0.00    +0.056 A 
ATOM     11  C   UNL     1      -4.298   2.504  24.692  0.00  0.00    +0.018 A 
ATOM     12  C   UNL     1      -4.509   3.280  24.870  0.00  0.00    +0.085 A 
ATOM     13 CL   UNL     1      -4.102   3.909  24.523  0.00  0.00    -0.080 Cl
ATOM     14  C   UNL     1      -5.127   3.430  25.396  0.00  0.00    +0.151 A 
ATOM     15  F   UNL     1      -5.337   4.207  25.575  0.00  0.00    -0.203 F 
ATOM     16  C   UNL     1      -5.534   2.802  25.744  0.00  0.00    +0.031 A 
ATOM     17  C   UNL     1      -5.322   2.025  25.565  0.00  0.00    +0.007 A 
ENDBRANCH   8  10
ENDBRANCH   6   7
ENDBRANCH   5   6
TORSDOF 5
ENDMDL
