MODEL 1
REMARK VINA RESULT:     -15.8      0.000      0.000
REMARK  Name = 
REMARK  4 active torsions:
REMARK  status: ('A' for Active; 'I' for Inactive)
REMARK    1  A    between atoms: C_2  and  C_3
REMARK    2  A    between atoms: C_11  and  C_12
REMARK    3  A    between atoms: C_12  and  C_13
REMARK    4  A    between atoms: C_28  and  C_30
REMARK                            x       y       z     vdW  Elec       q    Type
REMARK                         _______ _______ _______ _____ _____    ______ ____
ROOT
ATOM      1  C   UNL     1      -0.439   4.382  24.691  0.00  0.00    +0.005 C 
ATOM      2  C   UNL     1      -1.116   3.931  24.827  0.00  0.00    +0.059 C 
ATOM      5  C   UNL     1      -1.390   4.674  25.057  0.00  0.00    +0.154 C 
ATOM      6  O   UNL     1      -0.891   5.329  25.017  0.00  0.00    -0.223 OA
ATOM      7  C   UNL     1      -2.166   4.762  25.327  0.00  0.00    +0.033 C 
ATOM      8  C   UNL     1      -2.666   4.108  25.366  0.00  0.00    +0.003 C 
ATOM      9  C   UNL     1      -2.392   3.365  25.136  0.00  0.00    +0.006 C 
ATOM     10  C   UNL     1      -3.165   3.453  25.406  0.00  0.00    +0.000 C 
ATOM     11  C   UNL     1      -2.891   2.710  25.176  0.00  0.00    +0.050 C 
ATOM     21  C   UNL     1      -2.617   1.967  24.946  0.00  0.00    +0.063 A 
ATOM     22  C   UNL     1      -1.842   1.878  24.676  0.00  0.00    +0.023 A 
ATOM     23  C   UNL     1      -1.342   2.533  24.636  0.00  0.00    +0.034 C 
ATOM     24  C   UNL     1      -1.616   3.277  24.866  0.00  0.00    +0.010 C 
ATOM     25  S   UNL     1      -1.727   1.083  24.488  0.00  0.00    -0.054 S 
ATOM     26  C   UNL     1      -2.430   0.680  24.642  0.00  0.00    +0.185 A 
ATOM     27  N   UNL     1      -2.561  -0.127  24.532  0.00  0.00    -0.151 NA
ATOM     28  C   UNL     1      -3.296  -0.454  24.710  0.00  0.00    +0.271 C 
ATOM     29  O   UNL     1      -3.902   0.026  24.999  0.00  0.00    -0.268 OA
ATOM     37  N   UNL     1      -2.980   1.226  24.924  0.00  0.00    -0.227 NA
ENDROOT
BRANCH  28  30
ATOM     30  C   UNL     1      -3.426  -1.261  24.600  0.00  0.00    +0.056 A 
ATOM     31  C   UNL     1      -3.057  -1.810  25.094  0.00  0.00    +0.007 A 
ATOM     32  C   UNL     1      -3.187  -2.617  24.984  0.00  0.00    +0.030 A 
ATOM     33  C   UNL     1      -3.687  -2.875  24.380  0.00  0.00    +0.140 A 
ATOM     34  F   UNL     1      -3.817  -3.683  24.270  0.00  0.00    -0.204 F 
ATOM     35  C   UNL     1      -4.056  -2.327  23.888  0.00  0.00    +0.030 A 
ATOM     36  C   UNL     1      -3.926  -1.520  23.997  0.00  0.00    +0.007 A 
ENDBRANCH  28  30
BRANCH   2   3
ATOM      3  C   UNL     1      -0.607   3.345  24.549  0.00  0.00    +0.184 C 
ATOM      4  O   UNL     1       0.139   3.549  24.259  0.00  0.00    -0.220 OA
ENDBRANCH   2   3
BRANCH  11  12
ATOM     12  C   UNL     1      -3.666   2.798  25.446  0.00  0.00    +0.091 C 
BRANCH  12  13
ATOM     13  C   UNL     1      -4.297   2.731  24.918  0.00  0.00    +0.226 C 
ATOM     14  O   UNL     1      -4.172   2.839  24.110  0.00  0.00    -0.275 OA
ATOM     15  N   UNL     1      -5.052   2.556  25.198  0.00  0.00    -0.280 N 
ATOM     16  C   UNL     1      -5.683   2.489  24.671  0.00  0.00    +0.093 C 
ATOM     17  C   UNL     1      -6.439   2.314  24.952  0.00  0.00    +0.022 C 
ATOM     18  C   UNL     1      -6.564   2.206  25.759  0.00  0.00    +0.004 C 
ATOM     19  C   UNL     1      -5.933   2.273  26.287  0.00  0.00    +0.022 C 
ATOM     20  C   UNL     1      -5.178   2.448  26.007  0.00  0.00    +0.093 C 
ENDBRANCH  12  13
ENDBRANCH  11  12
TORSDOF 4
ENDMDL
MODEL 2
REMARK VINA RESULT:     -15.7      2.178      4.163
REMARK  Name = 
REMARK  4 active torsions:
REMARK  status: ('A' for Active; 'I' for Inactive)
REMARK    1  A    between atoms: C_2  and  C_3
REMARK    2  A    between atoms: C_11  and  C_12
REMARK    3  A    between atoms: C_12  and  C_13
REMARK    4  A    between atoms: C_28  and  C_30
REMARK                            x       y       z     vdW  Elec       q    Type
REMARK                         _______ _______ _______ _____ _____    ______ ____
ROOT
ATOM      1  C   UNL     1      -5.131   3.503  25.512  0.00  0.00    +0.005 C 
ATOM      2  C   UNL     1      -4.754   2.812  25.263  0.00  0.00    +0.059 C 
ATOM      5  C   UNL     1      -5.515   2.522  25.395  0.00  0.00    +0.154 C 
ATOM      6  O   UNL     1      -6.111   3.027  25.659  0.00  0.00    -0.223 OA
ATOM      7  C   UNL     1      -5.680   1.723  25.262  0.00  0.00    +0.033 C 
ATOM      8  C   UNL     1      -5.085   1.218  24.998  0.00  0.00    +0.003 C 
ATOM      9  C   UNL     1      -4.325   1.508  24.866  0.00  0.00    +0.006 C 
ATOM     10  C   UNL     1      -4.490   0.712  24.734  0.00  0.00    +0.000 C 
ATOM     11  C   UNL     1      -3.729   1.003  24.602  0.00  0.00    +0.050 C 
ATOM     21  C   UNL     1      -2.969   1.293  24.470  0.00  0.00    +0.063 A 
ATOM     22  C   UNL     1      -2.803   2.092  24.603  0.00  0.00    +0.023 A 
ATOM     23  C   UNL     1      -3.398   2.597  24.867  0.00  0.00    +0.034 C 
ATOM     24  C   UNL     1      -4.159   2.307  24.999  0.00  0.00    +0.010 C 
ATOM     25  S   UNL     1      -2.007   2.219  24.427  0.00  0.00    -0.054 S 
ATOM     26  C   UNL     1      -1.681   1.501  24.185  0.00  0.00    +0.185 A 
ATOM     27  N   UNL     1      -0.898   1.377  23.956  0.00  0.00    -0.151 NA
ATOM     28  C   UNL     1      -0.650   0.625  23.727  0.00  0.00    +0.271 C 
ATOM     29  O   UNL     1      -1.184  -0.004  23.726  0.00  0.00    -0.268 OA
ATOM     37  N   UNL     1      -2.275   0.930  24.212  0.00  0.00    -0.227 NA
ENDROOT
BRANCH  28  30
ATOM     30  C   UNL     1       0.133   0.501  23.499  0.00  0.00    +0.056 A 
ATOM     31  C   UNL     1       0.330  -0.157  23.041  0.00  0.00    +0.007 A 
ATOM     32  C   UNL     1       1.113  -0.281  22.812  0.00  0.00    +0.030 A 
ATOM     33  C   UNL     1       1.699   0.253  23.042  0.00  0.00    +0.140 A 
ATOM     34  F   UNL     1       2.482   0.129  22.813  0.00  0.00    -0.204 F 
ATOM     35  C   UNL     1       1.502   0.910  23.499  0.00  0.00    +0.030 A 
ATOM     36  C   UNL     1       0.720   1.034  23.727  0.00  0.00    +0.007 A 
ENDBRANCH  28  30
BRANCH   2   3
ATOM      3  C   UNL     1      -4.125   3.343  25.218  0.00  0.00    +0.184 C 
ATOM      4  O   UNL     1      -4.235   4.133  25.432  0.00  0.00    -0.220 OA
ENDBRANCH   2   3
BRANCH  11  12
ATOM     12  C   UNL     1      -3.894   0.205  24.469  0.00  0.00    +0.091 C 
BRANCH  12  13
ATOM     13  C   UNL     1      -3.637  -0.365  25.008  0.00  0.00    +0.226 C 
ATOM     14  O   UNL     1      -3.355  -0.134  25.748  0.00  0.00    -0.275 OA
ATOM     15  N   UNL     1      -3.663  -1.164  24.807  0.00  0.00    -0.280 N 
ATOM     16  C   UNL     1      -3.406  -1.734  25.345  0.00  0.00    +0.093 C 
ATOM     17  C   UNL     1      -3.432  -2.533  25.144  0.00  0.00    +0.022 C 
ATOM     18  C   UNL     1      -3.714  -2.763  24.404  0.00  0.00    +0.004 C 
ATOM     19  C   UNL     1      -3.970  -2.193  23.864  0.00  0.00    +0.022 C 
ATOM     20  C   UNL     1      -3.945  -1.394  24.066  0.00  0.00    +0.093 C 
ENDBRANCH  12  13
ENDBRANCH  11  12
TORSDOF 4
ENDMDL
MODEL 3
REMARK VINA RESULT:     -15.7      2.081      4.920
REMARK  Name = 
REMARK  4 active torsions:
REMARK  status: ('A' for Active; 'I' for Inactive)
REMARK    1  A    between atoms: C_2  and  C_3
REMARK    2  A    between atoms: C_11  and  C_12
REMARK    3  A    between atoms: C_12  and  C_13
REMARK    4  A    between atoms: C_28  and  C_30
REMARK                            x       y       z     vdW  Elec       q    Type
REMARK                         _______ _______ _______ _____ _____    ______ ____
ROOT
ATOM      1  C   UNL     1      -2.027  -2.688  24.501  0.00  0.00    +0.005 C 
ATOM      2  C   UNL     1      -2.372  -1.956  24.663  0.00  0.00    +0.059 C 
ATOM      5  C   UNL     1      -3.021  -2.450  24.784  0.00  0.00    +0.154 C 
ATOM      6  O   UNL     1      -2.944  -3.265  24.684  0.00  0.00    -0.223 OA
ATOM      7  C   UNL     1      -3.748  -2.128  25.006  0.00  0.00    +0.033 C 
ATOM      8  C   UNL     1      -3.826  -1.314  25.106  0.00  0.00    +0.003 C 
ATOM      9  C   UNL     1      -3.177  -0.820  24.985  0.00  0.00    +0.006 C 
ATOM     10  C   UNL     1      -3.903  -0.499  25.206  0.00  0.00    +0.000 C 
ATOM     11  C   UNL     1      -3.254  -0.004  25.085  0.00  0.00    +0.050 C 
ATOM     21  C   UNL     1      -2.605   0.489  24.964  0.00  0.00    +0.063 A 
ATOM     22  C   UNL     1      -1.877   0.168  24.742  0.00  0.00    +0.023 A 
ATOM     23  C   UNL     1      -1.800  -0.647  24.642  0.00  0.00    +0.034 C 
ATOM     24  C   UNL     1      -2.449  -1.141  24.763  0.00  0.00    +0.010 C 
ATOM     25  S   UNL     1      -1.339   0.788  24.662  0.00  0.00    -0.054 S 
ATOM     26  C   UNL     1      -1.732   1.492  24.834  0.00  0.00    +0.185 A 
ATOM     27  N   UNL     1      -1.402   2.248  24.822  0.00  0.00    -0.151 NA
ATOM     28  C   UNL     1      -1.866   2.904  25.008  0.00  0.00    +0.271 C 
ATOM     29  O   UNL     1      -2.661   2.805  25.206  0.00  0.00    -0.268 OA
ATOM     37  N   UNL     1      -2.514   1.308  25.020  0.00  0.00    -0.227 NA
ENDROOT
BRANCH  28  30
ATOM     30  C   UNL     1      -1.536   3.660  24.996  0.00  0.00    +0.056 A 
ATOM     31  C   UNL     1      -1.948   4.296  25.323  0.00  0.00    +0.007 A 
ATOM     32  C   UNL     1      -1.618   5.052  25.311  0.00  0.00    +0.030 A 
ATOM     33  C   UNL     1      -0.876   5.171  24.971  0.00  0.00    +0.140 A 
ATOM     34  F   UNL     1      -0.545   5.927  24.959  0.00  0.00    -0.204 F 
ATOM     35  C   UNL     1      -0.464   4.537  24.644  0.00  0.00    +0.030 A 
ATOM     36  C   UNL     1      -0.794   3.781  24.656  0.00  0.00    +0.007 A 
ENDBRANCH  28  30
BRANCH   2   3
ATOM      3  C   UNL     1      -1.603  -1.716  24.485  0.00  0.00    +0.184 C 
ATOM      4  O   UNL     1      -1.031  -2.278  24.287  0.00  0.00    -0.220 OA
ENDBRANCH   2   3
BRANCH  11  12
ATOM     12  C   UNL     1      -3.981   0.317  25.306  0.00  0.00    +0.091 C 
BRANCH  12  13
ATOM     13  C   UNL     1      -4.438   0.724  24.752  0.00  0.00    +0.226 C 
ATOM     14  O   UNL     1      -4.268   0.657  23.948  0.00  0.00    -0.275 OA
ATOM     15  N   UNL     1      -5.064   1.197  25.003  0.00  0.00    -0.280 N 
ATOM     16  C   UNL     1      -5.521   1.605  24.450  0.00  0.00    +0.093 C 
ATOM     17  C   UNL     1      -6.148   2.078  24.701  0.00  0.00    +0.022 C 
ATOM     18  C   UNL     1      -6.318   2.145  25.505  0.00  0.00    +0.004 C 
ATOM     19  C   UNL     1      -5.861   1.738  26.059  0.00  0.00    +0.022 C 
ATOM     20  C   UNL     1      -5.234   1.265  25.808  0.00  0.00    +0.093 C 
ENDBRANCH  12  13
ENDBRANCH  11  12
TORSDOF 4
ENDMDL
MODEL 4
REMARK VINA RESULT:     -14.5      2.228      5.404
REMARK  Name = 
REMARK  4 active torsions:
REMARK  status: ('A' for Active; 'I' for Inactive)
REMARK    1  A    between atoms: C_2  and  C_3
REMARK    2  A    between atoms: C_11  and  C_12
REMARK    3  A    between atoms: C_12  and  C_13
REMARK    4  A    between atoms: C_28  and  C_30
REMARK                            x       y       z     vdW  Elec       q    Type
REMARK                         _______ _______ _______ _____ _____    ______ ____
ROOT
ATOM      1  C   UNL     1      -2.963  -3.020  24.216  0.00  0.00    +0.005 C 
ATOM      2  C   UNL     1      -2.785  -2.245  24.435  0.00  0.00    +0.059 C 
ATOM      5  C   UNL     1      -2.035  -2.584  24.483  0.00  0.00    +0.154 C 
ATOM      6  O   UNL     1      -1.930  -3.383  24.307  0.00  0.00    -0.223 OA
ATOM      7  C   UNL     1      -1.387  -2.122  24.708  0.00  0.00    +0.033 C 
ATOM      8  C   UNL     1      -1.491  -1.324  24.883  0.00  0.00    +0.003 C 
ATOM      9  C   UNL     1      -2.242  -0.985  24.835  0.00  0.00    +0.006 C 
ATOM     10  C   UNL     1      -1.596  -0.525  25.059  0.00  0.00    +0.000 C 
ATOM     11  C   UNL     1      -2.346  -0.186  25.011  0.00  0.00    +0.050 C 
ATOM     21  C   UNL     1      -3.096   0.153  24.963  0.00  0.00    +0.063 A 
ATOM     22  C   UNL     1      -3.744  -0.309  24.738  0.00  0.00    +0.023 A 
ATOM     23  C   UNL     1      -3.640  -1.107  24.563  0.00  0.00    +0.034 C 
ATOM     24  C   UNL     1      -2.889  -1.447  24.611  0.00  0.00    +0.010 C 
ATOM     25  S   UNL     1      -4.413   0.175  24.739  0.00  0.00    -0.054 S 
ATOM     26  C   UNL     1      -4.180   0.933  24.964  0.00  0.00    +0.185 A 
ATOM     27  N   UNL     1      -4.673   1.590  25.038  0.00  0.00    -0.151 NA
ATOM     28  C   UNL     1      -4.360   2.317  25.268  0.00  0.00    +0.271 C 
ATOM     29  O   UNL     1      -3.553   2.388  25.426  0.00  0.00    -0.268 OA
ATOM     37  N   UNL     1      -3.367   0.920  25.102  0.00  0.00    -0.227 NA
ENDROOT
BRANCH  28  30
ATOM     30  C   UNL     1      -4.854   2.974  25.342  0.00  0.00    +0.056 A 
ATOM     31  C   UNL     1      -4.615   3.706  25.043  0.00  0.00    +0.007 A 
ATOM     32  C   UNL     1      -5.108   4.363  25.117  0.00  0.00    +0.030 A 
ATOM     33  C   UNL     1      -5.841   4.288  25.489  0.00  0.00    +0.140 A 
ATOM     34  F   UNL     1      -6.334   4.945  25.563  0.00  0.00    -0.204 F 
ATOM     35  C   UNL     1      -6.080   3.558  25.788  0.00  0.00    +0.030 A 
ATOM     36  C   UNL     1      -5.586   2.901  25.714  0.00  0.00    +0.007 A 
ENDBRANCH  28  30
BRANCH   2   3
ATOM      3  C   UNL     1      -3.597  -2.176  24.311  0.00  0.00    +0.184 C 
ATOM      4  O   UNL     1      -4.034  -2.831  24.061  0.00  0.00    -0.220 OA
ENDBRANCH   2   3
BRANCH  11  12
ATOM     12  C   UNL     1      -1.700   0.275  25.235  0.00  0.00    +0.091 C 
BRANCH  12  13
ATOM     13  C   UNL     1      -1.362   0.802  24.697  0.00  0.00    +0.226 C 
ATOM     14  O   UNL     1      -1.535   0.737  23.893  0.00  0.00    -0.275 OA
ATOM     15  N   UNL     1      -0.852   1.392  24.963  0.00  0.00    -0.280 N 
ATOM     16  C   UNL     1      -0.514   1.919  24.425  0.00  0.00    +0.093 C 
ATOM     17  C   UNL     1      -0.004   2.510  24.691  0.00  0.00    +0.022 C 
ATOM     18  C   UNL     1       0.169   2.574  25.495  0.00  0.00    +0.004 C 
ATOM     19  C   UNL     1      -0.169   2.048  26.033  0.00  0.00    +0.022 C 
ATOM     20  C   UNL     1      -0.679   1.457  25.767  0.00  0.00    +0.093 C 
ENDBRANCH  12  13
ENDBRANCH  11  12
TORSDOF 4
ENDMDL
MODEL 5
REMARK VINA RESULT:     -13.0      1.534      3.310
REMARK  Name = 
REMARK  4 active torsions:
REMARK  status: ('A' for Active; 'I' for Inactive)
REMARK    1  A    between atoms: C_2  and  C_3
REMARK    2  A    between atoms: C_11  and  C_12
REMARK    3  A    between atoms: C_12  and  C_13
REMARK    4  A    between atoms: C_28  and  C_30
REMARK                            x       y       z     vdW  Elec       q    Type
REMARK                         _______ _______ _______ _____ _____    ______ ____
ROOT
ATOM      1  C   UNL     1      -5.533   4.288  25.605  0.00  0.00    +0.005 C 
ATOM      2  C   UNL     1      -4.943   3.761  25.372  0.00  0.00    +0.059 C 
ATOM      5  C   UNL     1      -4.531   4.473  25.310  0.00  0.00    +0.154 C 
ATOM      6  O   UNL     1      -4.907   5.185  25.493  0.00  0.00    -0.223 OA
ATOM      7  C   UNL     1      -3.743   4.474  25.064  0.00  0.00    +0.033 C 
ATOM      8  C   UNL     1      -3.367   3.763  24.881  0.00  0.00    +0.003 C 
ATOM      9  C   UNL     1      -3.779   3.052  24.943  0.00  0.00    +0.006 C 
ATOM     10  C   UNL     1      -2.992   3.053  24.698  0.00  0.00    +0.000 C 
ATOM     11  C   UNL     1      -3.403   2.340  24.760  0.00  0.00    +0.050 C 
ATOM     21  C   UNL     1      -3.815   1.628  24.821  0.00  0.00    +0.063 A 
ATOM     22  C   UNL     1      -4.603   1.627  25.067  0.00  0.00    +0.023 A 
ATOM     23  C   UNL     1      -4.979   2.338  25.250  0.00  0.00    +0.034 C 
ATOM     24  C   UNL     1      -4.567   3.051  25.188  0.00  0.00    +0.010 C 
ATOM     25  S   UNL     1      -4.866   0.845  25.076  0.00  0.00    -0.054 S 
ATOM     26  C   UNL     1      -4.241   0.363  24.836  0.00  0.00    +0.185 A 
ATOM     27  N   UNL     1      -4.262  -0.459  24.766  0.00  0.00    -0.151 NA
ATOM     28  C   UNL     1      -3.590  -0.869  24.519  0.00  0.00    +0.271 C 
ATOM     29  O   UNL     1      -2.897  -0.457  24.341  0.00  0.00    -0.268 OA
ATOM     37  N   UNL     1      -3.592   0.847  24.679  0.00  0.00    -0.227 NA
ENDROOT
BRANCH  28  30
ATOM     30  C   UNL     1      -3.611  -1.690  24.449  0.00  0.00    +0.056 A 
ATOM     31  C   UNL     1      -3.197  -2.161  24.985  0.00  0.00    +0.007 A 
ATOM     32  C   UNL     1      -3.217  -2.983  24.915  0.00  0.00    +0.030 A 
ATOM     33  C   UNL     1      -3.653  -3.334  24.308  0.00  0.00    +0.140 A 
ATOM     34  F   UNL     1      -3.673  -4.156  24.238  0.00  0.00    -0.204 F 
ATOM     35  C   UNL     1      -4.067  -2.864  23.772  0.00  0.00    +0.030 A 
ATOM     36  C   UNL     1      -4.046  -2.042  23.842  0.00  0.00    +0.007 A 
ENDBRANCH  28  30
BRANCH   2   3
ATOM      3  C   UNL     1      -5.559   3.233  25.514  0.00  0.00    +0.184 C 
ATOM      4  O   UNL     1      -6.269   3.504  25.837  0.00  0.00    -0.220 OA
ENDBRANCH   2   3
BRANCH  11  12
ATOM     12  C   UNL     1      -2.615   2.341  24.515  0.00  0.00    +0.091 C 
BRANCH  12  13
ATOM     13  C   UNL     1      -2.016   2.151  25.050  0.00  0.00    +0.226 C 
ATOM     14  O   UNL     1      -2.186   2.094  25.855  0.00  0.00    -0.275 OA
ATOM     15  N   UNL     1      -1.249   2.019  24.780  0.00  0.00    -0.280 N 
ATOM     16  C   UNL     1      -0.650   1.829  25.314  0.00  0.00    +0.093 C 
ATOM     17  C   UNL     1       0.118   1.697  25.043  0.00  0.00    +0.022 C 
ATOM     18  C   UNL     1       0.287   1.754  24.239  0.00  0.00    +0.004 C 
ATOM     19  C   UNL     1      -0.311   1.943  23.703  0.00  0.00    +0.022 C 
ATOM     20  C   UNL     1      -1.079   2.076  23.974  0.00  0.00    +0.093 C 
ENDBRANCH  12  13
ENDBRANCH  11  12
TORSDOF 4
ENDMDL
MODEL 6
REMARK VINA RESULT:     -12.9      1.610      3.375
REMARK  Name = 
REMARK  4 active torsions:
REMARK  status: ('A' for Active; 'I' for Inactive)
REMARK    1  A    between atoms: C_2  and  C_3
REMARK    2  A    between atoms: C_11  and  C_12
REMARK    3  A    between atoms: C_12  and  C_13
REMARK    4  A    between atoms: C_28  and  C_30
REMARK                            x       y       z     vdW  Elec       q    Type
REMARK                         _______ _______ _______ _____ _____    ______ ____
ROOT
ATOM      1  C   UNL     1      -2.396   4.758  25.674  0.00  0.00    +0.005 C 
ATOM      2  C   UNL     1      -2.141   4.055  25.326  0.00  0.00    +0.059 C 
ATOM      5  C   UNL     1      -1.502   4.543  25.146  0.00  0.00    +0.154 C 
ATOM      6  O   UNL     1      -1.503   5.332  25.389  0.00  0.00    -0.223 OA
ATOM      7  C   UNL     1      -0.859   4.244  24.722  0.00  0.00    +0.033 C 
ATOM      8  C   UNL     1      -0.857   3.456  24.479  0.00  0.00    +0.003 C 
ATOM      9  C   UNL     1      -1.496   2.967  24.659  0.00  0.00    +0.006 C 
ATOM     10  C   UNL     1      -0.855   2.668  24.236  0.00  0.00    +0.000 C 
ATOM     11  C   UNL     1      -1.495   2.179  24.416  0.00  0.00    +0.050 C 
ATOM     21  C   UNL     1      -2.133   1.690  24.597  0.00  0.00    +0.063 A 
ATOM     22  C   UNL     1      -2.776   1.989  25.021  0.00  0.00    +0.023 A 
ATOM     23  C   UNL     1      -2.778   2.777  25.263  0.00  0.00    +0.034 C 
ATOM     24  C   UNL     1      -2.139   3.267  25.083  0.00  0.00    +0.010 C 
ATOM     25  S   UNL     1      -3.324   1.380  25.117  0.00  0.00    -0.054 S 
ATOM     26  C   UNL     1      -3.021   0.704  24.753  0.00  0.00    +0.185 A 
ATOM     27  N   UNL     1      -3.389  -0.033  24.717  0.00  0.00    -0.151 NA
ATOM     28  C   UNL     1      -3.017  -0.661  24.332  0.00  0.00    +0.271 C 
ATOM     29  O   UNL     1      -2.278  -0.552  23.983  0.00  0.00    -0.268 OA
ATOM     37  N   UNL     1      -2.286   0.896  24.432  0.00  0.00    -0.227 NA
ENDROOT
BRANCH  28  30
ATOM     30  C   UNL     1      -3.385  -1.398  24.296  0.00  0.00    +0.056 A 
ATOM     31  C   UNL     1      -3.059  -2.042  24.696  0.00  0.00    +0.007 A 
ATOM     32  C   UNL     1      -3.427  -2.780  24.660  0.00  0.00    +0.030 A 
ATOM     33  C   UNL     1      -4.121  -2.873  24.223  0.00  0.00    +0.140 A 
ATOM     34  F   UNL     1      -4.489  -3.611  24.187  0.00  0.00    -0.204 F 
ATOM     35  C   UNL     1      -4.447  -2.230  23.823  0.00  0.00    +0.030 A 
ATOM     36  C   UNL     1      -4.079  -1.493  23.860  0.00  0.00    +0.007 A 
ENDBRANCH  28  30
BRANCH   2   3
ATOM      3  C   UNL     1      -2.868   3.810  25.627  0.00  0.00    +0.184 C 
ATOM      4  O   UNL     1      -3.307   4.317  26.109  0.00  0.00    -0.220 OA
ENDBRANCH   2   3
BRANCH  11  12
ATOM     12  C   UNL     1      -0.853   1.879  23.993  0.00  0.00    +0.091 C 
BRANCH  12  13
ATOM     13  C   UNL     1      -0.325   1.359  24.356  0.00  0.00    +0.226 C 
ATOM     14  O   UNL     1      -0.273   1.333  25.179  0.00  0.00    -0.275 OA
ATOM     15  N   UNL     1       0.149   0.866  23.897  0.00  0.00    -0.280 N 
ATOM     16  C   UNL     1       0.677   0.345  24.259  0.00  0.00    +0.093 C 
ATOM     17  C   UNL     1       1.152  -0.148  23.800  0.00  0.00    +0.022 C 
ATOM     18  C   UNL     1       1.099  -0.122  22.977  0.00  0.00    +0.004 C 
ATOM     19  C   UNL     1       0.572   0.398  22.614  0.00  0.00    +0.022 C 
ATOM     20  C   UNL     1       0.097   0.892  23.073  0.00  0.00    +0.093 C 
ENDBRANCH  12  13
ENDBRANCH  11  12
TORSDOF 4
ENDMDL
MODEL 7
REMARK VINA RESULT:     -12.4      3.014      5.300
REMARK  Name = 
REMARK  4 active torsions:
REMARK  status: ('A' for Active; 'I' for Inactive)
REMARK    1  A    between atoms: C_2  and  C_3
REMARK    2  A    between atoms: C_11  and  C_12
REMARK    3  A    between atoms: C_12  and  C_13
REMARK    4  A    between atoms: C_28  and  C_30
REMARK                            x       y       z     vdW  Elec       q    Type
REMARK                         _______ _______ _______ _____ _____    ______ ____
ROOT
ATOM      1  C   UNL     1      -3.370  -1.913  25.260  0.00  0.00    +0.005 C 
ATOM      2  C   UNL     1      -2.902  -1.262  25.065  0.00  0.00    +0.059 C 
ATOM      5  C   UNL     1      -3.572  -0.876  25.352  0.00  0.00    +0.154 C 
ATOM      6  O   UNL     1      -4.217  -1.314  25.622  0.00  0.00    -0.223 OA
ATOM      7  C   UNL     1      -3.598  -0.051  25.367  0.00  0.00    +0.033 C 
ATOM      8  C   UNL     1      -2.953   0.387  25.097  0.00  0.00    +0.003 C 
ATOM      9  C   UNL     1      -2.283   0.001  24.811  0.00  0.00    +0.006 C 
ATOM     10  C   UNL     1      -2.309   0.824  24.827  0.00  0.00    +0.000 C 
ATOM     11  C   UNL     1      -1.638   0.438  24.540  0.00  0.00    +0.050 C 
ATOM     21  C   UNL     1      -0.968   0.052  24.254  0.00  0.00    +0.063 A 
ATOM     22  C   UNL     1      -0.943  -0.773  24.238  0.00  0.00    +0.023 A 
ATOM     23  C   UNL     1      -1.587  -1.211  24.509  0.00  0.00    +0.034 C 
ATOM     24  C   UNL     1      -2.258  -0.825  24.795  0.00  0.00    +0.010 C 
ATOM     25  S   UNL     1      -0.213  -0.999  23.927  0.00  0.00    -0.054 S 
ATOM     26  C   UNL     1       0.213  -0.315  23.751  0.00  0.00    +0.185 A 
ATOM     27  N   UNL     1       0.972  -0.285  23.430  0.00  0.00    -0.151 NA
ATOM     28  C   UNL     1       1.329   0.443  23.283  0.00  0.00    +0.271 C 
ATOM     29  O   UNL     1       0.928   1.143  23.457  0.00  0.00    -0.268 OA
ATOM     37  N   UNL     1      -0.254   0.334  23.953  0.00  0.00    -0.227 NA
ENDROOT
BRANCH  28  30
ATOM     30  C   UNL     1       2.089   0.473  22.962  0.00  0.00    +0.056 A 
ATOM     31  C   UNL     1       2.663   0.958  23.303  0.00  0.00    +0.007 A 
ATOM     32  C   UNL     1       3.422   0.988  22.981  0.00  0.00    +0.030 A 
ATOM     33  C   UNL     1       3.607   0.532  22.319  0.00  0.00    +0.140 A 
ATOM     34  F   UNL     1       4.366   0.562  21.997  0.00  0.00    -0.204 F 
ATOM     35  C   UNL     1       3.034   0.048  21.977  0.00  0.00    +0.030 A 
ATOM     36  C   UNL     1       2.275   0.018  22.299  0.00  0.00    +0.007 A 
ENDBRANCH  28  30
BRANCH   2   3
ATOM      3  C   UNL     1      -2.395  -1.875  24.847  0.00  0.00    +0.184 C 
ATOM      4  O   UNL     1      -2.644  -2.659  24.909  0.00  0.00    -0.220 OA
ENDBRANCH   2   3
BRANCH  11  12
ATOM     12  C   UNL     1      -1.664   1.263  24.556  0.00  0.00    +0.091 C 
BRANCH  12  13
ATOM     13  C   UNL     1      -1.273   1.677  25.154  0.00  0.00    +0.226 C 
ATOM     14  O   UNL     1      -0.984   1.273  25.813  0.00  0.00    -0.275 OA
ATOM     15  N   UNL     1      -1.172   2.492  25.093  0.00  0.00    -0.280 N 
ATOM     16  C   UNL     1      -0.782   2.906  25.690  0.00  0.00    +0.093 C 
ATOM     17  C   UNL     1      -0.681   3.723  25.629  0.00  0.00    +0.022 C 
ATOM     18  C   UNL     1      -0.971   4.125  24.971  0.00  0.00    +0.004 C 
ATOM     19  C   UNL     1      -1.362   3.712  24.373  0.00  0.00    +0.022 C 
ATOM     20  C   UNL     1      -1.462   2.896  24.434  0.00  0.00    +0.093 C 
ENDBRANCH  12  13
ENDBRANCH  11  12
TORSDOF 4
ENDMDL
MODEL 8
REMARK VINA RESULT:     -12.1      2.255      4.456
REMARK  Name = 
REMARK  4 active torsions:
REMARK  status: ('A' for Active; 'I' for Inactive)
REMARK    1  A    between atoms: C_2  and  C_3
REMARK    2  A    between atoms: C_11  and  C_12
REMARK    3  A    between atoms: C_12  and  C_13
REMARK    4  A    between atoms: C_28  and  C_30
REMARK                            x       y       z     vdW  Elec       q    Type
REMARK                         _______ _______ _______ _____ _____    ______ ____
ROOT
ATOM      1  C   UNL     1       1.498   0.981  23.584  0.00  0.00    +0.005 C 
ATOM      2  C   UNL     1       0.712   0.777  23.728  0.00  0.00    +0.059 C 
ATOM      5  C   UNL     1       1.021   0.035  23.546  0.00  0.00    +0.154 C 
ATOM      6  O   UNL     1       1.820  -0.045  23.356  0.00  0.00    -0.223 OA
ATOM      7  C   UNL     1       0.530  -0.629  23.554  0.00  0.00    +0.033 C 
ATOM      8  C   UNL     1      -0.268  -0.550  23.744  0.00  0.00    +0.003 C 
ATOM      9  C   UNL     1      -0.577   0.193  23.926  0.00  0.00    +0.006 C 
ATOM     10  C   UNL     1      -1.067  -0.470  23.934  0.00  0.00    +0.000 C 
ATOM     11  C   UNL     1      -1.376   0.273  24.116  0.00  0.00    +0.050 C 
ATOM     21  C   UNL     1      -1.685   1.015  24.298  0.00  0.00    +0.063 A 
ATOM     22  C   UNL     1      -1.194   1.680  24.290  0.00  0.00    +0.023 A 
ATOM     23  C   UNL     1      -0.396   1.600  24.100  0.00  0.00    +0.034 C 
ATOM     24  C   UNL     1      -0.086   0.857  23.918  0.00  0.00    +0.010 C 
ATOM     25  S   UNL     1      -1.652   2.336  24.491  0.00  0.00    -0.054 S 
ATOM     26  C   UNL     1      -2.424   2.078  24.624  0.00  0.00    +0.185 A 
ATOM     27  N   UNL     1      -3.064   2.553  24.839  0.00  0.00    -0.151 NA
ATOM     28  C   UNL     1      -3.807   2.216  24.953  0.00  0.00    +0.271 C 
ATOM     29  O   UNL     1      -3.912   1.404  24.852  0.00  0.00    -0.268 OA
ATOM     37  N   UNL     1      -2.444   1.263  24.504  0.00  0.00    -0.227 NA
ENDROOT
BRANCH  28  30
ATOM     30  C   UNL     1      -4.447   2.691  25.167  0.00  0.00    +0.056 A 
ATOM     31  C   UNL     1      -5.152   2.344  25.420  0.00  0.00    +0.007 A 
ATOM     32  C   UNL     1      -5.792   2.819  25.635  0.00  0.00    +0.030 A 
ATOM     33  C   UNL     1      -5.726   3.641  25.597  0.00  0.00    +0.140 A 
ATOM     34  F   UNL     1      -6.365   4.116  25.811  0.00  0.00    -0.204 F 
ATOM     35  C   UNL     1      -5.022   3.987  25.344  0.00  0.00    +0.030 A 
ATOM     36  C   UNL     1      -4.382   3.512  25.129  0.00  0.00    +0.007 A 
ENDBRANCH  28  30
BRANCH   2   3
ATOM      3  C   UNL     1       0.676   1.591  23.860  0.00  0.00    +0.184 C 
ATOM      4  O   UNL     1       1.366   2.044  23.833  0.00  0.00    -0.220 OA
ENDBRANCH   2   3
BRANCH  11  12
ATOM     12  C   UNL     1      -1.866  -0.391  24.124  0.00  0.00    +0.091 C 
BRANCH  12  13
ATOM     13  C   UNL     1      -2.078  -0.739  24.842  0.00  0.00    +0.226 C 
ATOM     14  O   UNL     1      -1.706  -0.503  25.539  0.00  0.00    -0.275 OA
ATOM     15  N   UNL     1      -2.660  -1.322  24.861  0.00  0.00    -0.280 N 
ATOM     16  C   UNL     1      -2.872  -1.671  25.578  0.00  0.00    +0.093 C 
ATOM     17  C   UNL     1      -3.455  -2.254  25.598  0.00  0.00    +0.022 C 
ATOM     18  C   UNL     1      -3.826  -2.489  24.900  0.00  0.00    +0.004 C 
ATOM     19  C   UNL     1      -3.615  -2.142  24.182  0.00  0.00    +0.022 C 
ATOM     20  C   UNL     1      -3.032  -1.558  24.163  0.00  0.00    +0.093 C 
ENDBRANCH  12  13
ENDBRANCH  11  12
TORSDOF 4
ENDMDL
