MODEL 1
REMARK VINA RESULT:      -8.9      0.000      0.000
REMARK  Name = 
REMARK  10 active torsions:
REMARK  status: ('A' for Active; 'I' for Inactive)
REMARK    1  A    between atoms: O_2  and  C_3
REMARK    2  A    between atoms: C_3  and  C_4
REMARK    3  A    between atoms: C_4  and  C_5
REMARK    4  A    between atoms: N_7  and  C_8
REMARK    5  A    between atoms: C_8  and  C_9
REMARK    6  A    between atoms: C_13  and  C_14
REMARK    7  A    between atoms: C_14  and  C_15
REMARK    8  A    between atoms: N_17  and  C_18
REMARK    9  A    between atoms: C_18  and  C_19
REMARK   10  A    between atoms: C_26  and  C_27
REMARK                            x       y       z     vdW  Elec       q    Type
REMARK                         _______ _______ _______ _____ _____    ______ ____
ROOT
ATOM      9  C   UNL     1      -0.783   1.152  24.434  0.00  0.00    +0.043 C 
ATOM     10  C   UNL     1      -0.473   1.915  24.377  0.00  0.00    -0.033 C 
ATOM     11  C   UNL     1      -0.899   2.556  24.675  0.00  0.00    -0.048 C 
ATOM     12  C   UNL     1      -0.588   3.318  24.618  0.00  0.00    +0.026 C 
ATOM     13  C   UNL     1      -1.634   2.435  25.029  0.00  0.00    +0.027 C 
ATOM     25  C   UNL     1      -1.943   1.672  25.085  0.00  0.00    +0.005 C 
ATOM     26  C   UNL     1      -1.518   1.031  24.788  0.00  0.00    +0.006 C 
ENDROOT
BRANCH  26  27
ATOM     27  C   UNL     1      -1.827   0.268  24.844  0.00  0.00    +0.000 C 
ATOM     28  C   UNL     1      -2.305  -0.029  24.242  0.00  0.00    +0.000 C 
ATOM     29  C   UNL     1      -1.657  -0.198  25.504  0.00  0.00    +0.000 C 
ENDBRANCH  26  27
BRANCH   9   8
ATOM      8  C   UNL     1      -0.357   0.511  24.136  0.00  0.00    +0.119 C 
BRANCH   8   7
ATOM      5  C   UNL     1       0.704   0.012  23.319  0.00  0.00    +0.244 C 
ATOM      6  O   UNL     1       0.650  -0.719  23.695  0.00  0.00    -0.273 OA
ATOM      7  N   UNL     1       0.201   0.628  23.539  0.00  0.00    -0.205 NA
BRANCH   5   4
ATOM      4  C   UNL     1       1.262   0.129  22.722  0.00  0.00    +0.119 C 
BRANCH   4   3
ATOM      3  C   UNL     1       2.065   0.030  22.884  0.00  0.00    +0.152 C 
BRANCH   3   2
ATOM      1  C   UNL     1       3.383   0.440  22.512  0.00  0.00    +0.174 C 
ATOM      2  O   UNL     1       2.625   0.189  22.299  0.00  0.00    -0.351 OA
ENDBRANCH   3   2
ENDBRANCH   4   3
ENDBRANCH   5   4
ENDBRANCH   8   7
ENDBRANCH   9   8
BRANCH  13  14
ATOM     14  C   UNL     1      -2.059   3.075  25.326  0.00  0.00    +0.091 C 
BRANCH  14  15
ATOM     15  C   UNL     1      -2.788   3.277  24.996  0.00  0.00    +0.242 C 
ATOM     16  O   UNL     1      -2.817   3.705  24.292  0.00  0.00    -0.273 OA
ATOM     17  N   UNL     1      -3.487   3.051  25.370  0.00  0.00    -0.199 NA
BRANCH  17  18
ATOM     18  C   UNL     1      -4.215   3.252  25.040  0.00  0.00    +0.160 C 
BRANCH  18  19
ATOM     19  C   UNL     1      -4.894   2.833  25.251  0.00  0.00    +0.081 A 
ATOM     20  N   UNL     1      -5.250   2.964  25.984  0.00  0.00    -0.246 NA
ATOM     21  C   UNL     1      -5.929   2.545  26.194  0.00  0.00    +0.099 A 
ATOM     22  C   UNL     1      -6.252   1.996  25.671  0.00  0.00    +0.021 A 
ATOM     23  C   UNL     1      -5.897   1.864  24.938  0.00  0.00    +0.003 A 
ATOM     24  C   UNL     1      -5.218   2.284  24.728  0.00  0.00    +0.017 A 
ENDBRANCH  18  19
ENDBRANCH  17  18
ENDBRANCH  14  15
ENDBRANCH  13  14
TORSDOF 10
ENDMDL
MODEL 2
REMARK VINA RESULT:      -8.8      2.723      4.401
REMARK  Name = 
REMARK  10 active torsions:
REMARK  status: ('A' for Active; 'I' for Inactive)
REMARK    1  A    between atoms: O_2  and  C_3
REMARK    2  A    between atoms: C_3  and  C_4
REMARK    3  A    between atoms: C_4  and  C_5
REMARK    4  A    between atoms: N_7  and  C_8
REMARK    5  A    between atoms: C_8  and  C_9
REMARK    6  A    between atoms: C_13  and  C_14
REMARK    7  A    between atoms: C_14  and  C_15
REMARK    8  A    between atoms: N_17  and  C_18
REMARK    9  A    between atoms: C_18  and  C_19
REMARK   10  A    between atoms: C_26  and  C_27
REMARK                            x       y       z     vdW  Elec       q    Type
REMARK                         _______ _______ _______ _____ _____    ______ ____
ROOT
ATOM      9  C   UNL     1      -4.059   0.957  24.167  0.00  0.00    +0.043 C 
ATOM     10  C   UNL     1      -4.705   1.085  24.664  0.00  0.00    -0.033 C 
ATOM     11  C   UNL     1      -4.836   1.835  24.984  0.00  0.00    -0.048 C 
ATOM     12  C   UNL     1      -5.482   1.963  25.481  0.00  0.00    +0.026 C 
ATOM     13  C   UNL     1      -4.320   2.454  24.809  0.00  0.00    +0.027 C 
ATOM     25  C   UNL     1      -3.674   2.324  24.312  0.00  0.00    +0.005 C 
ATOM     26  C   UNL     1      -3.543   1.576  23.992  0.00  0.00    +0.006 C 
ENDROOT
BRANCH  26  27
ATOM     27  C   UNL     1      -2.897   1.446  23.495  0.00  0.00    +0.000 C 
ATOM     28  C   UNL     1      -2.193   1.149  23.803  0.00  0.00    +0.000 C 
ATOM     29  C   UNL     1      -2.957   1.614  22.690  0.00  0.00    +0.000 C 
ENDBRANCH  26  27
BRANCH   9   8
ATOM      8  C   UNL     1      -3.929   0.207  23.846  0.00  0.00    +0.119 C 
BRANCH   8   7
ATOM      5  C   UNL     1      -4.097  -1.208  23.956  0.00  0.00    +0.244 C 
ATOM      6  O   UNL     1      -4.047  -1.277  23.137  0.00  0.00    -0.273 OA
ATOM      7  N   UNL     1      -4.038  -0.465  24.312  0.00  0.00    -0.205 NA
BRANCH   5   4
ATOM      4  C   UNL     1      -4.206  -1.880  24.422  0.00  0.00    +0.119 C 
BRANCH   4   3
ATOM      3  C   UNL     1      -3.623  -2.463  24.447  0.00  0.00    +0.152 C 
BRANCH   3   2
ATOM      1  C   UNL     1      -2.884  -3.261  25.375  0.00  0.00    +0.174 C 
ATOM      2  O   UNL     1      -3.607  -3.004  25.070  0.00  0.00    -0.351 OA
ENDBRANCH   3   2
ENDBRANCH   4   3
ENDBRANCH   5   4
ENDBRANCH   8   7
ENDBRANCH   9   8
BRANCH  13  14
ATOM     14  C   UNL     1      -4.451   3.202  25.129  0.00  0.00    +0.091 C 
BRANCH  14  15
ATOM     15  C   UNL     1      -3.882   3.548  25.618  0.00  0.00    +0.242 C 
ATOM     16  O   UNL     1      -3.919   3.437  26.435  0.00  0.00    -0.273 OA
ATOM     17  N   UNL     1      -3.278   4.003  25.291  0.00  0.00    -0.199 NA
BRANCH  17  18
ATOM     18  C   UNL     1      -2.711   4.348  25.779  0.00  0.00    +0.160 C 
BRANCH  18  19
ATOM     19  C   UNL     1      -1.984   4.584  25.467  0.00  0.00    +0.081 A 
ATOM     20  N   UNL     1      -1.342   4.066  25.477  0.00  0.00    -0.246 NA
ATOM     21  C   UNL     1      -0.617   4.302  25.165  0.00  0.00    +0.099 A 
ATOM     22  C   UNL     1      -0.532   5.056  24.841  0.00  0.00    +0.021 A 
ATOM     23  C   UNL     1      -1.174   5.575  24.830  0.00  0.00    +0.003 A 
ATOM     24  C   UNL     1      -1.900   5.338  25.143  0.00  0.00    +0.017 A 
ENDBRANCH  18  19
ENDBRANCH  17  18
ENDBRANCH  14  15
ENDBRANCH  13  14
TORSDOF 10
ENDMDL
MODEL 3
REMARK VINA RESULT:      -8.3      1.267      2.126
REMARK  Name = 
REMARK  10 active torsions:
REMARK  status: ('A' for Active; 'I' for Inactive)
REMARK    1  A    between atoms: O_2  and  C_3
REMARK    2  A    between atoms: C_3  and  C_4
REMARK    3  A    between atoms: C_4  and  C_5
REMARK    4  A    between atoms: N_7  and  C_8
REMARK    5  A    between atoms: C_8  and  C_9
REMARK    6  A    between atoms: C_13  and  C_14
REMARK    7  A    between atoms: C_14  and  C_15
REMARK    8  A    between atoms: N_17  and  C_18
REMARK    9  A    between atoms: C_18  and  C_19
REMARK   10  A    between atoms: C_26  and  C_27
REMARK                            x       y       z     vdW  Elec       q    Type
REMARK                         _______ _______ _______ _____ _____    ______ ____
ROOT
ATOM      9  C   UNL     1      -0.741   0.708  24.331  0.00  0.00    +0.043 C 
ATOM     10  C   UNL     1      -0.858  -0.108  24.353  0.00  0.00    -0.033 C 
ATOM     11  C   UNL     1      -1.589  -0.413  24.587  0.00  0.00    -0.048 C 
ATOM     12  C   UNL     1      -1.706  -1.229  24.609  0.00  0.00    +0.026 C 
ATOM     13  C   UNL     1      -2.201   0.098  24.798  0.00  0.00    +0.027 C 
ATOM     25  C   UNL     1      -2.083   0.914  24.776  0.00  0.00    +0.005 C 
ATOM     26  C   UNL     1      -1.353   1.219  24.542  0.00  0.00    +0.006 C 
ENDROOT
BRANCH  26  27
ATOM     27  C   UNL     1      -1.235   2.036  24.520  0.00  0.00    +0.000 C 
ATOM     28  C   UNL     1      -0.962   2.432  25.189  0.00  0.00    +0.000 C 
ATOM     29  C   UNL     1      -1.389   2.455  23.826  0.00  0.00    +0.000 C 
ENDBRANCH  26  27
BRANCH   9   8
ATOM      8  C   UNL     1      -0.011   1.014  24.097  0.00  0.00    +0.119 C 
BRANCH   8   7
ATOM      5  C   UNL     1       1.277   0.809  23.513  0.00  0.00    +0.244 C 
ATOM      6  O   UNL     1       1.530   1.532  23.818  0.00  0.00    -0.273 OA
ATOM      7  N   UNL     1       0.506   0.549  23.652  0.00  0.00    -0.205 NA
BRANCH   5   4
ATOM      4  C   UNL     1       1.794   0.345  23.068  0.00  0.00    +0.119 C 
BRANCH   4   3
ATOM      3  C   UNL     1       2.567   0.603  22.932  0.00  0.00    +0.152 C 
BRANCH   3   2
ATOM      1  C   UNL     1       3.873   0.356  22.407  0.00  0.00    +0.174 C 
ATOM      2  O   UNL     1       3.074   0.153  22.463  0.00  0.00    -0.351 OA
ENDBRANCH   3   2
ENDBRANCH   4   3
ENDBRANCH   5   4
ENDBRANCH   8   7
ENDBRANCH   9   8
BRANCH  13  14
ATOM     14  C   UNL     1      -2.931  -0.207  25.032  0.00  0.00    +0.091 C 
BRANCH  14  15
ATOM     15  C   UNL     1      -3.627   0.087  24.700  0.00  0.00    +0.242 C 
ATOM     16  O   UNL     1      -3.854  -0.149  23.943  0.00  0.00    -0.273 OA
ATOM     17  N   UNL     1      -4.095   0.616  25.125  0.00  0.00    -0.199 NA
BRANCH  17  18
ATOM     18  C   UNL     1      -4.791   0.910  24.794  0.00  0.00    +0.160 C 
BRANCH  18  19
ATOM     19  C   UNL     1      -5.150   1.580  25.113  0.00  0.00    +0.081 A 
ATOM     20  N   UNL     1      -5.654   1.509  25.763  0.00  0.00    -0.246 NA
ATOM     21  C   UNL     1      -6.013   2.179  26.083  0.00  0.00    +0.099 A 
ATOM     22  C   UNL     1      -5.869   2.921  25.752  0.00  0.00    +0.021 A 
ATOM     23  C   UNL     1      -5.366   2.993  25.102  0.00  0.00    +0.003 A 
ATOM     24  C   UNL     1      -5.007   2.322  24.783  0.00  0.00    +0.017 A 
ENDBRANCH  18  19
ENDBRANCH  17  18
ENDBRANCH  14  15
ENDBRANCH  13  14
TORSDOF 10
ENDMDL
MODEL 4
REMARK VINA RESULT:      -8.3      1.998      2.863
REMARK  Name = 
REMARK  10 active torsions:
REMARK  status: ('A' for Active; 'I' for Inactive)
REMARK    1  A    between atoms: O_2  and  C_3
REMARK    2  A    between atoms: C_3  and  C_4
REMARK    3  A    between atoms: C_4  and  C_5
REMARK    4  A    between atoms: N_7  and  C_8
REMARK    5  A    between atoms: C_8  and  C_9
REMARK    6  A    between atoms: C_13  and  C_14
REMARK    7  A    between atoms: C_14  and  C_15
REMARK    8  A    between atoms: N_17  and  C_18
REMARK    9  A    between atoms: C_18  and  C_19
REMARK   10  A    between atoms: C_26  and  C_27
REMARK                            x       y       z     vdW  Elec       q    Type
REMARK                         _______ _______ _______ _____ _____    ______ ____
ROOT
ATOM      9  C   UNL     1      -0.884   1.570  24.153  0.00  0.00    +0.043 C 
ATOM     10  C   UNL     1      -1.254   1.583  23.416  0.00  0.00    -0.033 C 
ATOM     11  C   UNL     1      -2.078   1.578  23.369  0.00  0.00    -0.048 C 
ATOM     12  C   UNL     1      -2.448   1.592  22.632  0.00  0.00    +0.026 C 
ATOM     13  C   UNL     1      -2.531   1.559  24.058  0.00  0.00    +0.027 C 
ATOM     25  C   UNL     1      -2.160   1.546  24.795  0.00  0.00    +0.005 C 
ATOM     26  C   UNL     1      -1.337   1.551  24.842  0.00  0.00    +0.006 C 
ENDROOT
BRANCH  26  27
ATOM     27  C   UNL     1      -0.965   1.537  25.579  0.00  0.00    +0.000 C 
ATOM     28  C   UNL     1      -0.791   0.817  25.940  0.00  0.00    +0.000 C 
ATOM     29  C   UNL     1      -0.769   2.245  25.954  0.00  0.00    +0.000 C 
ENDBRANCH  26  27
BRANCH   9   8
ATOM      8  C   UNL     1      -0.059   1.575  24.201  0.00  0.00    +0.119 C 
BRANCH   8   7
ATOM      5  C   UNL     1       1.191   1.234  23.598  0.00  0.00    +0.244 C 
ATOM      6  O   UNL     1       1.551   1.863  23.991  0.00  0.00    -0.273 OA
ATOM      7  N   UNL     1       0.385   1.090  23.703  0.00  0.00    -0.205 NA
BRANCH   5   4
ATOM      4  C   UNL     1       1.635   0.749  23.100  0.00  0.00    +0.119 C 
BRANCH   4   3
ATOM      3  C   UNL     1       2.457   0.822  23.080  0.00  0.00    +0.152 C 
BRANCH   3   2
ATOM      1  C   UNL     1       3.711   0.484  22.484  0.00  0.00    +0.174 C 
ATOM      2  O   UNL     1       2.899   0.356  22.562  0.00  0.00    -0.351 OA
ENDBRANCH   3   2
ENDBRANCH   4   3
ENDBRANCH   5   4
ENDBRANCH   8   7
ENDBRANCH   9   8
BRANCH  13  14
ATOM     14  C   UNL     1      -3.354   1.554  24.010  0.00  0.00    +0.091 C 
BRANCH  14  15
ATOM     15  C   UNL     1      -3.790   1.001  24.441  0.00  0.00    +0.242 C 
ATOM     16  O   UNL     1      -4.219   1.242  25.103  0.00  0.00    -0.273 OA
ATOM     17  N   UNL     1      -3.796   0.210  24.211  0.00  0.00    -0.199 NA
BRANCH  17  18
ATOM     18  C   UNL     1      -4.231  -0.342  24.642  0.00  0.00    +0.160 C 
BRANCH  18  19
ATOM     19  C   UNL     1      -4.084  -1.148  24.548  0.00  0.00    +0.081 A 
ATOM     20  N   UNL     1      -4.371  -1.547  23.886  0.00  0.00    -0.246 NA
ATOM     21  C   UNL     1      -4.224  -2.353  23.793  0.00  0.00    +0.099 A 
ATOM     22  C   UNL     1      -3.789  -2.761  24.363  0.00  0.00    +0.021 A 
ATOM     23  C   UNL     1      -3.502  -2.364  25.026  0.00  0.00    +0.003 A 
ATOM     24  C   UNL     1      -3.649  -1.557  25.119  0.00  0.00    +0.017 A 
ENDBRANCH  18  19
ENDBRANCH  17  18
ENDBRANCH  14  15
ENDBRANCH  13  14
TORSDOF 10
ENDMDL
MODEL 5
REMARK VINA RESULT:      -8.1      1.775      5.112
REMARK  Name = 
REMARK  10 active torsions:
REMARK  status: ('A' for Active; 'I' for Inactive)
REMARK    1  A    between atoms: O_2  and  C_3
REMARK    2  A    between atoms: C_3  and  C_4
REMARK    3  A    between atoms: C_4  and  C_5
REMARK    4  A    between atoms: N_7  and  C_8
REMARK    5  A    between atoms: C_8  and  C_9
REMARK    6  A    between atoms: C_13  and  C_14
REMARK    7  A    between atoms: C_14  and  C_15
REMARK    8  A    between atoms: N_17  and  C_18
REMARK    9  A    between atoms: C_18  and  C_19
REMARK   10  A    between atoms: C_26  and  C_27
REMARK                            x       y       z     vdW  Elec       q    Type
REMARK                         _______ _______ _______ _____ _____    ______ ____
ROOT
ATOM      9  C   UNL     1      -2.227   2.247  24.392  0.00  0.00    +0.043 C 
ATOM     10  C   UNL     1      -1.771   2.240  25.079  0.00  0.00    -0.033 C 
ATOM     11  C   UNL     1      -1.175   1.676  25.173  0.00  0.00    -0.048 C 
ATOM     12  C   UNL     1      -0.719   1.669  25.859  0.00  0.00    +0.026 C 
ATOM     13  C   UNL     1      -1.036   1.120  24.579  0.00  0.00    +0.027 C 
ATOM     25  C   UNL     1      -1.494   1.128  23.892  0.00  0.00    +0.005 C 
ATOM     26  C   UNL     1      -2.089   1.691  23.799  0.00  0.00    +0.006 C 
ENDROOT
BRANCH  26  27
ATOM     27  C   UNL     1      -2.546   1.699  23.112  0.00  0.00    +0.000 C 
ATOM     28  C   UNL     1      -2.317   2.161  22.469  0.00  0.00    +0.000 C 
ATOM     29  C   UNL     1      -3.233   1.244  23.069  0.00  0.00    +0.000 C 
ENDBRANCH  26  27
BRANCH   9   8
ATOM      8  C   UNL     1      -2.823   2.811  24.299  0.00  0.00    +0.119 C 
BRANCH   8   7
ATOM      5  C   UNL     1      -3.857   3.601  24.889  0.00  0.00    +0.244 C 
ATOM      6  O   UNL     1      -3.793   4.145  24.274  0.00  0.00    -0.273 OA
ATOM      7  N   UNL     1      -3.372   2.933  24.903  0.00  0.00    -0.205 NA
BRANCH   5   4
ATOM      4  C   UNL     1      -4.406   3.723  25.493  0.00  0.00    +0.119 C 
BRANCH   4   3
ATOM      3  C   UNL     1      -5.162   3.396  25.435  0.00  0.00    +0.152 C 
BRANCH   3   2
ATOM      1  C   UNL     1      -6.124   2.611  26.144  0.00  0.00    +0.174 C 
ATOM      2  O   UNL     1      -5.601   3.250  26.118  0.00  0.00    -0.351 OA
ENDBRANCH   3   2
ENDBRANCH   4   3
ENDBRANCH   5   4
ENDBRANCH   8   7
ENDBRANCH   9   8
BRANCH  13  14
ATOM     14  C   UNL     1      -0.441   0.557  24.672  0.00  0.00    +0.091 C 
BRANCH  14  15
ATOM     15  C   UNL     1      -0.573  -0.225  24.444  0.00  0.00    +0.242 C 
ATOM     16  O   UNL     1      -0.189  -0.531  23.781  0.00  0.00    -0.273 OA
ATOM     17  N   UNL     1      -1.087  -0.701  24.878  0.00  0.00    -0.199 NA
BRANCH  17  18
ATOM     18  C   UNL     1      -1.218  -1.482  24.649  0.00  0.00    +0.160 C 
BRANCH  18  19
ATOM     19  C   UNL     1      -1.949  -1.838  24.794  0.00  0.00    +0.081 A 
ATOM     20  N   UNL     1      -2.389  -1.625  25.458  0.00  0.00    -0.246 NA
ATOM     21  C   UNL     1      -3.118  -1.981  25.603  0.00  0.00    +0.099 A 
ATOM     22  C   UNL     1      -3.409  -2.551  25.082  0.00  0.00    +0.021 A 
ATOM     23  C   UNL     1      -2.970  -2.765  24.417  0.00  0.00    +0.003 A 
ATOM     24  C   UNL     1      -2.239  -2.409  24.273  0.00  0.00    +0.017 A 
ENDBRANCH  18  19
ENDBRANCH  17  18
ENDBRANCH  14  15
ENDBRANCH  13  14
TORSDOF 10
ENDMDL
MODEL 6
REMARK VINA RESULT:      -8.1      1.734      5.033
REMARK  Name = 
REMARK  10 active torsions:
REMARK  status: ('A' for Active; 'I' for Inactive)
REMARK    1  A    between atoms: O_2  and  C_3
REMARK    2  A    between atoms: C_3  and  C_4
REMARK    3  A    between atoms: C_4  and  C_5
REMARK    4  A    between atoms: N_7  and  C_8
REMARK    5  A    between atoms: C_8  and  C_9
REMARK    6  A    between atoms: C_13  and  C_14
REMARK    7  A    between atoms: C_14  and  C_15
REMARK    8  A    between atoms: N_17  and  C_18
REMARK    9  A    between atoms: C_18  and  C_19
REMARK   10  A    between atoms: C_26  and  C_27
REMARK                            x       y       z     vdW  Elec       q    Type
REMARK                         _______ _______ _______ _____ _____    ______ ____
ROOT
ATOM      9  C   UNL     1      -1.358   2.416  24.718  0.00  0.00    +0.043 C 
ATOM     10  C   UNL     1      -1.680   2.133  24.013  0.00  0.00    -0.033 C 
ATOM     11  C   UNL     1      -1.402   1.427  23.687  0.00  0.00    -0.048 C 
ATOM     12  C   UNL     1      -1.724   1.144  22.982  0.00  0.00    +0.026 C 
ATOM     13  C   UNL     1      -0.804   1.004  24.067  0.00  0.00    +0.027 C 
ATOM     25  C   UNL     1      -0.483   1.288  24.773  0.00  0.00    +0.005 C 
ATOM     26  C   UNL     1      -0.760   1.993  25.098  0.00  0.00    +0.006 C 
ENDROOT
BRANCH  26  27
ATOM     27  C   UNL     1      -0.439   2.278  25.803  0.00  0.00    +0.000 C 
ATOM     28  C   UNL     1      -0.759   2.043  26.526  0.00  0.00    +0.000 C 
ATOM     29  C   UNL     1       0.202   2.796  25.784  0.00  0.00    +0.000 C 
ENDBRANCH  26  27
BRANCH   9   8
ATOM      8  C   UNL     1      -1.636   3.122  25.043  0.00  0.00    +0.119 C 
BRANCH   8   7
ATOM      5  C   UNL     1      -2.686   4.078  25.199  0.00  0.00    +0.244 C 
ATOM      6  O   UNL     1      -2.152   4.610  25.533  0.00  0.00    -0.273 OA
ATOM      7  N   UNL     1      -2.428   3.334  24.953  0.00  0.00    -0.205 NA
BRANCH   5   4
ATOM      4  C   UNL     1      -3.478   4.290  25.109  0.00  0.00    +0.119 C 
BRANCH   4   3
ATOM      3  C   UNL     1      -4.060   3.905  25.552  0.00  0.00    +0.152 C 
BRANCH   3   2
ATOM      1  C   UNL     1      -5.426   3.502  25.663  0.00  0.00    +0.174 C 
ATOM      2  O   UNL     1      -4.857   4.028  25.379  0.00  0.00    -0.351 OA
ENDBRANCH   3   2
ENDBRANCH   4   3
ENDBRANCH   5   4
ENDBRANCH   8   7
ENDBRANCH   9   8
BRANCH  13  14
ATOM     14  C   UNL     1      -0.527   0.299  23.742  0.00  0.00    +0.091 C 
BRANCH  14  15
ATOM     15  C   UNL     1      -0.573  -0.402  24.175  0.00  0.00    +0.242 C 
ATOM     16  O   UNL     1       0.096  -0.693  24.560  0.00  0.00    -0.273 OA
ATOM     17  N   UNL     1      -1.287  -0.811  24.224  0.00  0.00    -0.199 NA
BRANCH  17  18
ATOM     18  C   UNL     1      -1.333  -1.511  24.656  0.00  0.00    +0.160 C 
BRANCH  18  19
ATOM     19  C   UNL     1      -2.056  -1.900  24.738  0.00  0.00    +0.081 A 
ATOM     20  N   UNL     1      -2.249  -2.524  24.234  0.00  0.00    -0.246 NA
ATOM     21  C   UNL     1      -2.972  -2.913  24.316  0.00  0.00    +0.099 A 
ATOM     22  C   UNL     1      -3.502  -2.677  24.903  0.00  0.00    +0.021 A 
ATOM     23  C   UNL     1      -3.310  -2.053  25.407  0.00  0.00    +0.003 A 
ATOM     24  C   UNL     1      -2.587  -1.665  25.324  0.00  0.00    +0.017 A 
ENDBRANCH  18  19
ENDBRANCH  17  18
ENDBRANCH  14  15
ENDBRANCH  13  14
TORSDOF 10
ENDMDL
MODEL 7
REMARK VINA RESULT:      -8.0      1.668      5.567
REMARK  Name = 
REMARK  10 active torsions:
REMARK  status: ('A' for Active; 'I' for Inactive)
REMARK    1  A    between atoms: O_2  and  C_3
REMARK    2  A    between atoms: C_3  and  C_4
REMARK    3  A    between atoms: C_4  and  C_5
REMARK    4  A    between atoms: N_7  and  C_8
REMARK    5  A    between atoms: C_8  and  C_9
REMARK    6  A    between atoms: C_13  and  C_14
REMARK    7  A    between atoms: C_14  and  C_15
REMARK    8  A    between atoms: N_17  and  C_18
REMARK    9  A    between atoms: C_18  and  C_19
REMARK   10  A    between atoms: C_26  and  C_27
REMARK                            x       y       z     vdW  Elec       q    Type
REMARK                         _______ _______ _______ _____ _____    ______ ____
ROOT
ATOM      9  C   UNL     1      -2.929   3.200  24.572  0.00  0.00    +0.043 C 
ATOM     10  C   UNL     1      -3.079   2.718  23.920  0.00  0.00    -0.033 C 
ATOM     11  C   UNL     1      -2.453   2.346  23.531  0.00  0.00    -0.048 C 
ATOM     12  C   UNL     1      -2.603   1.863  22.879  0.00  0.00    +0.026 C 
ATOM     13  C   UNL     1      -1.679   2.456  23.794  0.00  0.00    +0.027 C 
ATOM     25  C   UNL     1      -1.531   2.939  24.446  0.00  0.00    +0.005 C 
ATOM     26  C   UNL     1      -2.155   3.311  24.836  0.00  0.00    +0.006 C 
ENDROOT
BRANCH  26  27
ATOM     27  C   UNL     1      -2.007   3.793  25.488  0.00  0.00    +0.000 C 
ATOM     28  C   UNL     1      -1.994   3.470  26.246  0.00  0.00    +0.000 C 
ATOM     29  C   UNL     1      -1.870   4.600  25.381  0.00  0.00    +0.000 C 
ENDBRANCH  26  27
BRANCH   9   8
ATOM      8  C   UNL     1      -3.555   3.573  24.962  0.00  0.00    +0.119 C 
BRANCH   8   7
ATOM      5  C   UNL     1      -4.935   3.588  25.334  0.00  0.00    +0.244 C 
ATOM      6  O   UNL     1      -4.879   4.391  25.509  0.00  0.00    -0.273 OA
ATOM      7  N   UNL     1      -4.272   3.178  25.060  0.00  0.00    -0.205 NA
BRANCH   5   4
ATOM      4  C   UNL     1      -5.652   3.193  25.432  0.00  0.00    +0.119 C 
BRANCH   4   3
ATOM      3  C   UNL     1      -5.751   2.668  26.061  0.00  0.00    +0.152 C 
BRANCH   3   2
ATOM      1  C   UNL     1      -6.520   1.645  26.697  0.00  0.00    +0.174 C 
ATOM      2  O   UNL     1      -6.335   2.086  26.025  0.00  0.00    -0.351 OA
ENDBRANCH   3   2
ENDBRANCH   4   3
ENDBRANCH   5   4
ENDBRANCH   8   7
ENDBRANCH   9   8
BRANCH  13  14
ATOM     14  C   UNL     1      -1.055   2.084  23.405  0.00  0.00    +0.091 C 
BRANCH  14  15
ATOM     15  C   UNL     1      -0.543   1.589  23.823  0.00  0.00    +0.242 C 
ATOM     16  O   UNL     1       0.182   1.878  24.089  0.00  0.00    -0.273 OA
ATOM     17  N   UNL     1      -0.756   0.808  23.973  0.00  0.00    -0.199 NA
BRANCH  17  18
ATOM     18  C   UNL     1      -0.245   0.314  24.391  0.00  0.00    +0.160 C 
BRANCH  18  19
ATOM     19  C   UNL     1      -0.506  -0.423  24.656  0.00  0.00    +0.081 A 
ATOM     20  N   UNL     1      -0.441  -1.085  24.167  0.00  0.00    -0.246 NA
ATOM     21  C   UNL     1      -0.702  -1.821  24.432  0.00  0.00    +0.099 A 
ATOM     22  C   UNL     1      -1.029  -1.896  25.186  0.00  0.00    +0.021 A 
ATOM     23  C   UNL     1      -1.094  -1.235  25.675  0.00  0.00    +0.003 A 
ATOM     24  C   UNL     1      -0.832  -0.498  25.410  0.00  0.00    +0.017 A 
ENDBRANCH  18  19
ENDBRANCH  17  18
ENDBRANCH  14  15
ENDBRANCH  13  14
TORSDOF 10
ENDMDL
MODEL 8
REMARK VINA RESULT:      -8.0      1.450      2.096
REMARK  Name = 
REMARK  10 active torsions:
REMARK  status: ('A' for Active; 'I' for Inactive)
REMARK    1  A    between atoms: O_2  and  C_3
REMARK    2  A    between atoms: C_3  and  C_4
REMARK    3  A    between atoms: C_4  and  C_5
REMARK    4  A    between atoms: N_7  and  C_8
REMARK    5  A    between atoms: C_8  and  C_9
REMARK    6  A    between atoms: C_13  and  C_14
REMARK    7  A    between atoms: C_14  and  C_15
REMARK    8  A    between atoms: N_17  and  C_18
REMARK    9  A    between atoms: C_18  and  C_19
REMARK   10  A    between atoms: C_26  and  C_27
REMARK                            x       y       z     vdW  Elec       q    Type
REMARK                         _______ _______ _______ _____ _____    ______ ____
ROOT
ATOM      9  C   UNL     1      -1.512   1.877  24.170  0.00  0.00    +0.043 C 
ATOM     10  C   UNL     1      -1.284   2.213  24.888  0.00  0.00    -0.033 C 
ATOM     11  C   UNL     1      -1.696   2.863  25.187  0.00  0.00    -0.048 C 
ATOM     12  C   UNL     1      -1.468   3.200  25.905  0.00  0.00    +0.026 C 
ATOM     13  C   UNL     1      -2.334   3.177  24.768  0.00  0.00    +0.027 C 
ATOM     25  C   UNL     1      -2.560   2.839  24.050  0.00  0.00    +0.005 C 
ATOM     26  C   UNL     1      -2.150   2.190  23.751  0.00  0.00    +0.006 C 
ENDROOT
BRANCH  26  27
ATOM     27  C   UNL     1      -2.377   1.853  23.033  0.00  0.00    +0.000 C 
ATOM     28  C   UNL     1      -2.044   2.120  22.328  0.00  0.00    +0.000 C 
ATOM     29  C   UNL     1      -2.937   1.247  23.021  0.00  0.00    +0.000 C 
ENDBRANCH  26  27
BRANCH   9   8
ATOM      8  C   UNL     1      -1.101   1.227  23.871  0.00  0.00    +0.119 C 
BRANCH   8   7
ATOM      5  C   UNL     1      -0.376   0.027  24.150  0.00  0.00    +0.244 C 
ATOM      6  O   UNL     1       0.080   0.145  23.474  0.00  0.00    -0.273 OA
ATOM      7  N   UNL     1      -0.967   0.568  24.349  0.00  0.00    -0.205 NA
BRANCH   5   4
ATOM      4  C   UNL     1      -0.242  -0.631  24.629  0.00  0.00    +0.119 C 
BRANCH   4   3
ATOM      3  C   UNL     1      -0.657  -1.332  24.491  0.00  0.00    +0.152 C 
BRANCH   3   2
ATOM      1  C   UNL     1      -1.284  -2.499  25.026  0.00  0.00    +0.174 C 
ATOM      2  O   UNL     1      -0.725  -1.895  25.090  0.00  0.00    -0.351 OA
ENDBRANCH   3   2
ENDBRANCH   4   3
ENDBRANCH   5   4
ENDBRANCH   8   7
ENDBRANCH   9   8
BRANCH  13  14
ATOM     14  C   UNL     1      -2.744   3.826  25.068  0.00  0.00    +0.091 C 
BRANCH  14  15
ATOM     15  C   UNL     1      -3.556   3.896  24.940  0.00  0.00    +0.242 C 
ATOM     16  O   UNL     1      -3.838   4.383  24.337  0.00  0.00    -0.273 OA
ATOM     17  N   UNL     1      -4.086   3.480  25.415  0.00  0.00    -0.199 NA
BRANCH  17  18
ATOM     18  C   UNL     1      -4.898   3.550  25.287  0.00  0.00    +0.160 C 
BRANCH  18  19
ATOM     19  C   UNL     1      -5.406   2.940  25.512  0.00  0.00    +0.081 A 
ATOM     20  N   UNL     1      -5.624   2.853  26.303  0.00  0.00    -0.246 NA
ATOM     21  C   UNL     1      -6.131   2.243  26.527  0.00  0.00    +0.099 A 
ATOM     22  C   UNL     1      -6.422   1.719  25.960  0.00  0.00    +0.021 A 
ATOM     23  C   UNL     1      -6.205   1.805  25.168  0.00  0.00    +0.003 A 
ATOM     24  C   UNL     1      -5.696   2.416  24.945  0.00  0.00    +0.017 A 
ENDBRANCH  18  19
ENDBRANCH  17  18
ENDBRANCH  14  15
ENDBRANCH  13  14
TORSDOF 10
ENDMDL
MODEL 9
REMARK VINA RESULT:      -7.9      2.799      5.145
REMARK  Name = 
REMARK  10 active torsions:
REMARK  status: ('A' for Active; 'I' for Inactive)
REMARK    1  A    between atoms: O_2  and  C_3
REMARK    2  A    between atoms: C_3  and  C_4
REMARK    3  A    between atoms: C_4  and  C_5
REMARK    4  A    between atoms: N_7  and  C_8
REMARK    5  A    between atoms: C_8  and  C_9
REMARK    6  A    between atoms: C_13  and  C_14
REMARK    7  A    between atoms: C_14  and  C_15
REMARK    8  A    between atoms: N_17  and  C_18
REMARK    9  A    between atoms: C_18  and  C_19
REMARK   10  A    between atoms: C_26  and  C_27
REMARK                            x       y       z     vdW  Elec       q    Type
REMARK                         _______ _______ _______ _____ _____    ______ ____
ROOT
ATOM      9  C   UNL     1      -4.073   2.282  24.654  0.00  0.00    +0.043 C 
ATOM     10  C   UNL     1      -3.465   2.128  24.119  0.00  0.00    -0.033 C 
ATOM     11  C   UNL     1      -3.414   1.389  23.755  0.00  0.00    -0.048 C 
ATOM     12  C   UNL     1      -2.805   1.234  23.220  0.00  0.00    +0.026 C 
ATOM     13  C   UNL     1      -3.971   0.805  23.927  0.00  0.00    +0.027 C 
ATOM     25  C   UNL     1      -4.579   0.960  24.462  0.00  0.00    +0.005 C 
ATOM     26  C   UNL     1      -4.631   1.698  24.826  0.00  0.00    +0.006 C 
ENDROOT
BRANCH  26  27
ATOM     27  C   UNL     1      -5.239   1.854  25.361  0.00  0.00    +0.000 C 
ATOM     28  C   UNL     1      -5.143   1.673  26.160  0.00  0.00    +0.000 C 
ATOM     29  C   UNL     1      -5.944   2.191  25.097  0.00  0.00    +0.000 C 
ENDBRANCH  26  27
BRANCH   9   8
ATOM      8  C   UNL     1      -4.125   3.022  25.018  0.00  0.00    +0.119 C 
BRANCH   8   7
ATOM      5  C   UNL     1      -3.349   4.166  25.379  0.00  0.00    +0.244 C 
ATOM      6  O   UNL     1      -3.631   4.113  26.152  0.00  0.00    -0.273 OA
ATOM      7  N   UNL     1      -3.596   3.620  24.811  0.00  0.00    -0.205 NA
BRANCH   5   4
ATOM      4  C   UNL     1      -2.820   4.764  25.173  0.00  0.00    +0.119 C 
BRANCH   4   3
ATOM      3  C   UNL     1      -2.030   4.716  25.410  0.00  0.00    +0.152 C 
BRANCH   3   2
ATOM      1  C   UNL     1      -0.722   5.038  24.935  0.00  0.00    +0.174 C 
ATOM      2  O   UNL     1      -1.485   5.274  25.142  0.00  0.00    -0.351 OA
ENDBRANCH   3   2
ENDBRANCH   4   3
ENDBRANCH   5   4
ENDBRANCH   8   7
ENDBRANCH   9   8
BRANCH  13  14
ATOM     14  C   UNL     1      -3.919   0.067  23.563  0.00  0.00    +0.091 C 
BRANCH  14  15
ATOM     15  C   UNL     1      -3.790  -0.610  24.018  0.00  0.00    +0.242 C 
ATOM     16  O   UNL     1      -4.431  -1.051  24.291  0.00  0.00    -0.273 OA
ATOM     17  N   UNL     1      -3.021  -0.845  24.199  0.00  0.00    -0.199 NA
BRANCH  17  18
ATOM     18  C   UNL     1      -2.893  -1.521  24.653  0.00  0.00    +0.160 C 
BRANCH  18  19
ATOM     19  C   UNL     1      -2.123  -1.754  24.839  0.00  0.00    +0.081 A 
ATOM     20  N   UNL     1      -1.680  -1.321  25.383  0.00  0.00    -0.246 NA
ATOM     21  C   UNL     1      -0.911  -1.554  25.569  0.00  0.00    +0.099 A 
ATOM     22  C   UNL     1      -0.585  -2.221  25.210  0.00  0.00    +0.021 A 
ATOM     23  C   UNL     1      -1.027  -2.655  24.665  0.00  0.00    +0.003 A 
ATOM     24  C   UNL     1      -1.797  -2.421  24.480  0.00  0.00    +0.017 A 
ENDBRANCH  18  19
ENDBRANCH  17  18
ENDBRANCH  14  15
ENDBRANCH  13  14
TORSDOF 10
ENDMDL
