REMARK  Name = 
REMARK  7 active torsions:
REMARK  status: ('A' for Active; 'I' for Inactive)
REMARK    1  A    between atoms: O_2  and  C_3
REMARK    2  A    between atoms: C_6  and  S_9
REMARK    3  A    between atoms: S_9  and  N_12
REMARK    4  A    between atoms: N_12  and  C_13
REMARK    5  A    between atoms: C_13  and  C_14
REMARK    6  A    between atoms: C_16  and  C_17
REMARK    7  A    between atoms: C_21  and  N_22
REMARK                            x       y       z     vdW  Elec       q    Type
REMARK                         _______ _______ _______ _____ _____    ______ ____
ROOT
ATOM     14  C   UNL     1       0.715  -3.712   0.000  0.00  0.00    +0.152 C 
ATOM     15  O   UNL     1       1.382  -4.197   0.000  0.00  0.00    -0.350 OA
ATOM     16  C   UNL     1       1.127  -4.982   0.000  0.00  0.00    +0.180 C 
ATOM     19  C   UNL     1       0.302  -4.982   0.000  0.00  0.00    +0.198 C 
ATOM     20  O   UNL     1      -0.183  -5.649   0.000  0.00  0.00    -0.219 OA
ATOM     21  C   UNL     1       0.047  -4.197   0.000  0.00  0.00    +0.120 C 
ENDROOT
BRANCH  21  22
ATOM     22  N   UNL     1      -0.738  -3.942   0.000  0.00  0.00    -0.267 NA
ATOM     23  C   UNL     1      -1.351  -4.495   0.000  0.00  0.00    +0.094 C 
ATOM     24  C   UNL     1      -2.135  -4.240   0.000  0.00  0.00    +0.109 C 
ATOM     25  N   UNL     1      -2.307  -3.433   0.000  0.00  0.00    -0.290 N 
ATOM     26  C   UNL     1      -1.694  -2.881   0.000  0.00  0.00    +0.109 C 
ATOM     27  C   UNL     1      -0.909  -3.135   0.000  0.00  0.00    +0.094 C 
ATOM     28  C   UNL     1      -3.091  -3.178   0.000  0.00  0.00    +0.132 A 
ATOM     29  N   UNL     1      -3.704  -3.730   0.000  0.00  0.00    -0.229 NA
ATOM     30  C   UNL     1      -4.489  -3.475   0.000  0.00  0.00    +0.100 A 
ATOM     31  C   UNL     1      -4.661  -2.668   0.000  0.00  0.00    +0.021 A 
ATOM     32  C   UNL     1      -4.048  -2.116   0.000  0.00  0.00    +0.004 A 
ATOM     33  C   UNL     1      -3.263  -2.371   0.000  0.00  0.00    +0.034 A 
ENDBRANCH  21  22
BRANCH  16  17
ATOM     17  C   UNL     1       1.612  -5.649   0.000  0.00  0.00    +0.214 C 
ATOM     18  O   UNL     1       1.276  -6.403   0.000  0.00  0.00    -0.218 OA
ENDBRANCH  16  17
BRANCH  14  13
ATOM     13  C   UNL     1       0.715  -2.888   0.000  0.00  0.00    +0.146 C 
BRANCH  13  12
ATOM     12  N   UNL     1       1.429  -2.475   0.000  0.00  0.00    -0.075 NA
BRANCH  12   9
ATOM      9  S   UNL     1       1.429  -1.650   0.000  0.00  0.00    +0.077 S 
ATOM     10  O   UNL     1       0.604  -1.650   0.000  0.00  0.00    -0.152 OA
ATOM     11  O   UNL     1       2.254  -1.650   0.000  0.00  0.00    -0.152 OA
BRANCH   9   6
ATOM      3  C   UNL     1       1.429   0.825   0.000  0.00  0.00    +0.139 A 
ATOM      4  C   UNL     1       2.143   0.412   0.000  0.00  0.00    +0.038 A 
ATOM      5  C   UNL     1       2.143  -0.412   0.000  0.00  0.00    +0.023 A 
ATOM      6  C   UNL     1       1.429  -0.825   0.000  0.00  0.00    +0.124 A 
ATOM      7  C   UNL     1       0.715  -0.412   0.000  0.00  0.00    +0.023 A 
ATOM      8  C   UNL     1       0.715   0.412   0.000  0.00  0.00    +0.038 A 
BRANCH   3   2
ATOM      1  C   UNL     1       0.715   2.062   0.000  0.00  0.00    +0.252 C 
ATOM      2  O   UNL     1       1.429   1.650   0.000  0.00  0.00    -0.471 OA
ENDBRANCH   3   2
ENDBRANCH   9   6
ENDBRANCH  12   9
ENDBRANCH  13  12
ENDBRANCH  14  13
TORSDOF 7
