REMARK  Name = 
REMARK  7 active torsions:
REMARK  status: ('A' for Active; 'I' for Inactive)
REMARK    1  A    between atoms: N_4  and  C_24
REMARK    2  A    between atoms: C_7  and  C_8
REMARK    3  A    between atoms: C_10  and  N_11
REMARK    4  A    between atoms: C_12  and  C_14
REMARK    5  A    between atoms: C_14  and  O_15
REMARK    6  A    between atoms: O_15  and  C_16
REMARK    7  A    between atoms: C_27  and  C_30
REMARK                            x       y       z     vdW  Elec       q    Type
REMARK                         _______ _______ _______ _____ _____    ______ ____
ROOT
ATOM      1  C   UNL     1       0.715  -0.412   0.000  0.00  0.00    +0.054 C 
ATOM      2  C   UNL     1       0.715  -1.238   0.000  0.00  0.00    +0.077 A 
ATOM      3  N   UNL     1       1.382  -1.722   0.000  0.00  0.00    -0.170 NA
ATOM      4  N   UNL     1       1.127  -2.507   0.000  0.00  0.00    -0.234 N 
ATOM      5  C   UNL     1       0.302  -2.507   0.000  0.00  0.00    +0.058 A 
ATOM      6  C   UNL     1      -0.183  -3.175   0.000  0.00  0.00    +0.052 C 
ATOM      7  C   UNL     1       0.047  -1.722   0.000  0.00  0.00    +0.010 A 
ENDROOT
BRANCH   4  24
ATOM     24  C   UNL     1       1.612  -3.175   0.000  0.00  0.00    +0.082 A 
ATOM     25  C   UNL     1       2.432  -3.088   0.000  0.00  0.00    +0.019 A 
ATOM     26  C   UNL     1       2.917  -3.756   0.000  0.00  0.00    +0.005 A 
ATOM     27  C   UNL     1       2.582  -4.509   0.000  0.00  0.00    +0.072 A 
ATOM     28  C   UNL     1       1.761  -4.596   0.000  0.00  0.00    +0.005 A 
ATOM     29  C   UNL     1       1.276  -3.928   0.000  0.00  0.00    +0.019 A 
BRANCH  27  30
ATOM     30  C   UNL     1       3.067  -5.177   0.000  0.00  0.00    +0.419 C 
ATOM     31  F   UNL     1       3.552  -5.844   0.000  0.00  0.00    -0.166 F 
ATOM     32  F   UNL     1       2.399  -5.662   0.000  0.00  0.00    -0.166 F 
ATOM     33  F   UNL     1       3.734  -4.692   0.000  0.00  0.00    -0.166 F 
ENDBRANCH  27  30
ENDBRANCH   4  24
BRANCH   7   8
ATOM      8  C   UNL     1      -0.738  -1.468   0.000  0.00  0.00    +0.048 C 
ATOM      9  C   UNL     1      -1.405  -1.952   0.000  0.00  0.00    +0.035 C 
ATOM     10  C   UNL     1      -2.072  -1.468   0.000  0.00  0.00    +0.118 C 
ATOM     22  C   UNL     1      -1.817  -0.683   0.000  0.00  0.00    -0.009 C 
ATOM     23  C   UNL     1      -0.993  -0.683   0.000  0.00  0.00    -0.025 C 
BRANCH  10  11
ATOM     11  N   UNL     1      -2.857  -1.722   0.000  0.00  0.00    -0.200 NA
ATOM     12  C   UNL     1      -3.470  -1.170   0.000  0.00  0.00    +0.286 C 
ATOM     13  O   UNL     1      -3.299  -0.363   0.000  0.00  0.00    -0.269 OA
BRANCH  12  14
ATOM     14  C   UNL     1      -4.255  -1.425   0.000  0.00  0.00    +0.291 C 
BRANCH  14  15
ATOM     15  O   UNL     1      -4.868  -0.873   0.000  0.00  0.00    -0.466 OA
BRANCH  15  16
ATOM     16  C   UNL     1      -5.652  -1.128   0.000  0.00  0.00    +0.139 A 
ATOM     17  C   UNL     1      -5.824  -1.935   0.000  0.00  0.00    +0.037 A 
ATOM     18  C   UNL     1      -6.609  -2.190   0.000  0.00  0.00    +0.003 A 
ATOM     19  C   UNL     1      -7.222  -1.638   0.000  0.00  0.00    +0.000 A 
ATOM     20  C   UNL     1      -7.050  -0.831   0.000  0.00  0.00    +0.003 A 
ATOM     21  C   UNL     1      -6.266  -0.576   0.000  0.00  0.00    +0.037 A 
ENDBRANCH  15  16
ENDBRANCH  14  15
ENDBRANCH  12  14
ENDBRANCH  10  11
ENDBRANCH   7   8
TORSDOF 7
