REMARK  Name = 
REMARK  6 active torsions:
REMARK  status: ('A' for Active; 'I' for Inactive)
REMARK    1  A    between atoms: C_5  and  S_8
REMARK    2  A    between atoms: S_8  and  N_11
REMARK    3  A    between atoms: N_11  and  C_12
REMARK    4  A    between atoms: C_12  and  C_13
REMARK    5  A    between atoms: C_20  and  C_21
REMARK    6  A    between atoms: C_21  and  N_22
REMARK                            x       y       z     vdW  Elec       q    Type
REMARK                         _______ _______ _______ _____ _____    ______ ____
ROOT
ATOM     13  C   UNL     1      -1.253  -4.317   0.000  0.00  0.00    +0.077 C 
ATOM     14  C   UNL     1      -0.661  -3.813   0.000  0.00  0.00    +0.018 C 
ATOM     15  C   UNL     1      -0.730  -3.006   0.000  0.00  0.00    +0.005 C 
ATOM     16  C   UNL     1       0.071  -2.602   0.000  0.00  0.00    +0.017 C 
ATOM     17  C   UNL     1      -0.339  -3.111   0.000  0.00  0.00    +0.072 C 
ATOM     18  N   UNL     1      -1.314  -3.495   0.000  0.00  0.00    -0.272 NA
ATOM     19  C   UNL     1      -2.037  -2.937   0.000  0.00  0.00    +0.073 C 
ATOM     20  C   UNL     1      -1.429  -2.475   0.000  0.00  0.00    +0.032 C 
ENDROOT
BRANCH  13  12
ATOM     12  C   UNL     1      -1.570  -5.079   0.000  0.00  0.00    +0.131 C 
BRANCH  12  11
ATOM     11  N   UNL     1      -2.389  -5.185   0.000  0.00  0.00    -0.076 NA
BRANCH  11   8
ATOM      8  S   UNL     1      -2.706  -5.946   0.000  0.00  0.00    +0.077 S 
ATOM      9  O   UNL     1      -1.945  -6.264   0.000  0.00  0.00    -0.152 OA
ATOM     10  O   UNL     1      -3.468  -5.628   0.000  0.00  0.00    -0.152 OA
BRANCH   8   5
ATOM      1  C   UNL     1      -3.976  -8.992   0.000  0.00  0.00    +0.031 C 
ATOM      2  C   UNL     1      -3.659  -8.230   0.000  0.00  0.00    -0.022 A 
ATOM      3  C   UNL     1      -4.160  -7.575   0.000  0.00  0.00    -0.003 A 
ATOM      4  C   UNL     1      -3.842  -6.813   0.000  0.00  0.00    +0.020 A 
ATOM      5  C   UNL     1      -3.024  -6.707   0.000  0.00  0.00    +0.124 A 
ATOM      6  C   UNL     1      -2.523  -7.363   0.000  0.00  0.00    +0.020 A 
ATOM      7  C   UNL     1      -2.841  -8.125   0.000  0.00  0.00    -0.003 A 
ENDBRANCH   8   5
ENDBRANCH  11   8
ENDBRANCH  12  11
ENDBRANCH  13  12
BRANCH  20  21
ATOM     21  C   UNL     1      -1.429  -1.650   0.000  0.00  0.00    +0.074 C 
BRANCH  21  22
ATOM     22  N   UNL     1      -0.715  -1.238   0.000  0.00  0.00    -0.269 NA
ATOM     23  C   UNL     1       0.000  -1.650   0.000  0.00  0.00    +0.077 C 
ATOM     24  C   UNL     1       0.715  -1.238   0.000  0.00  0.00    +0.043 C 
ATOM     25  C   UNL     1       0.715  -0.412   0.000  0.00  0.00    -0.023 A 
ATOM     26  C   UNL     1       0.000   0.000   0.000  0.00  0.00    -0.010 A 
ATOM     27  C   UNL     1      -0.715  -0.412   0.000  0.00  0.00    +0.099 C 
ATOM     28  C   UNL     1       0.000   0.825   0.000  0.00  0.00    -0.003 A 
ATOM     29  C   UNL     1       0.715   1.238   0.000  0.00  0.00    -0.000 A 
ATOM     30  C   UNL     1       1.429   0.825   0.000  0.00  0.00    -0.000 A 
ATOM     31  C   UNL     1       1.429   0.000   0.000  0.00  0.00    -0.004 A 
ENDBRANCH  21  22
ENDBRANCH  20  21
TORSDOF 6
