MODEL 1
REMARK VINA RESULT:     -14.8      0.000      0.000
REMARK  Name = 
REMARK  6 active torsions:
REMARK  status: ('A' for Active; 'I' for Inactive)
REMARK    1  A    between atoms: C_5  and  C_8
REMARK    2  A    between atoms: N_10  and  C_11
REMARK    3  A    between atoms: N_19  and  C_20
REMARK    4  A    between atoms: C_20  and  C_21
REMARK    5  A    between atoms: C_21  and  C_22
REMARK    6  A    between atoms: C_22  and  C_23
REMARK                            x       y       z     vdW  Elec       q    Type
REMARK                         _______ _______ _______ _____ _____    ______ ____
ROOT
ATOM     11  C   UNL     1      -3.137   2.527  24.820  0.00  0.00    +0.130 A 
ATOM     12  C   UNL     1      -3.330   3.307  25.005  0.00  0.00    +0.023 A 
ATOM     13  C   UNL     1      -4.098   3.498  25.240  0.00  0.00    +0.014 A 
ATOM     14  C   UNL     1      -4.672   2.909  25.290  0.00  0.00    +0.041 A 
ATOM     15  C   UNL     1      -5.558   2.792  25.503  0.00  0.00    +0.054 C 
ATOM     16  C   UNL     1      -6.125   3.148  25.714  0.00  0.00    +0.011 C 
ATOM     17  C   UNL     1      -5.931   2.378  25.531  0.00  0.00    +0.039 C 
ATOM     18  C   UNL     1      -5.894   1.407  25.355  0.00  0.00    +0.074 C 
ATOM     19  N   UNL     1      -5.092   1.336  25.131  0.00  0.00    -0.272 NA
ATOM     29  C   UNL     1      -5.538   1.852  25.337  0.00  0.00    +0.078 C 
ATOM     30  C   UNL     1      -5.005   2.490  25.306  0.00  0.00    +0.110 C 
ATOM     31  N   UNL     1      -4.479   2.128  25.105  0.00  0.00    -0.298 N 
ATOM     32  C   UNL     1      -3.712   1.937  24.870  0.00  0.00    +0.276 A 
ATOM     33  O   UNL     1      -3.519   1.156  24.686  0.00  0.00    -0.266 OA
ENDROOT
BRANCH  11  10
ATOM      8  C   UNL     1      -1.725   2.636  25.004  0.00  0.00    +0.269 C 
ATOM      9  O   UNL     1      -1.848   3.124  25.657  0.00  0.00    -0.268 OA
ATOM     10  N   UNL     1      -2.370   2.337  24.585  0.00  0.00    -0.171 NA
BRANCH   8   5
ATOM      1  F   UNL     1       1.347   1.876  24.068  0.00  0.00    -0.204 F 
ATOM      2  C   UNL     1       0.578   2.066  24.303  0.00  0.00    +0.140 A 
ATOM      3  C   UNL     1       0.175   1.575  24.827  0.00  0.00    +0.030 A 
ATOM      4  C   UNL     1      -0.594   1.765  25.061  0.00  0.00    +0.007 A 
ATOM      5  C   UNL     1      -0.957   2.446  24.770  0.00  0.00    +0.056 A 
ATOM      6  C   UNL     1      -0.553   2.937  24.245  0.00  0.00    +0.007 A 
ATOM      7  C   UNL     1       0.215   2.748  24.011  0.00  0.00    +0.030 A 
ENDBRANCH   8   5
ENDBRANCH  11  10
BRANCH  19  20
ATOM     20  C   UNL     1      -4.390   0.978  24.885  0.00  0.00    +0.072 C 
BRANCH  20  21
ATOM     21  C   UNL     1      -4.300   0.161  24.948  0.00  0.00    +0.022 C 
BRANCH  21  22
ATOM     22  C   UNL     1      -3.999  -0.272  24.314  0.00  0.00    +0.028 C 
BRANCH  22  23
ATOM     23  C   UNL     1      -3.915  -1.090  24.375  0.00  0.00    -0.022 A 
ATOM     24  C   UNL     1      -3.466  -1.413  24.988  0.00  0.00    -0.004 A 
ATOM     25  C   UNL     1      -3.382  -2.231  25.049  0.00  0.00    -0.000 A 
ATOM     26  C   UNL     1      -3.746  -2.727  24.500  0.00  0.00    -0.000 A 
ATOM     27  C   UNL     1      -4.196  -2.403  23.888  0.00  0.00    -0.000 A 
ATOM     28  C   UNL     1      -4.280  -1.585  23.826  0.00  0.00    -0.004 A 
ENDBRANCH  22  23
ENDBRANCH  21  22
ENDBRANCH  20  21
ENDBRANCH  19  20
TORSDOF 6
ENDMDL
MODEL 2
REMARK VINA RESULT:     -14.8      1.636      3.927
REMARK  Name = 
REMARK  6 active torsions:
REMARK  status: ('A' for Active; 'I' for Inactive)
REMARK    1  A    between atoms: C_5  and  C_8
REMARK    2  A    between atoms: N_10  and  C_11
REMARK    3  A    between atoms: N_19  and  C_20
REMARK    4  A    between atoms: C_20  and  C_21
REMARK    5  A    between atoms: C_21  and  C_22
REMARK    6  A    between atoms: C_22  and  C_23
REMARK                            x       y       z     vdW  Elec       q    Type
REMARK                         _______ _______ _______ _____ _____    ______ ____
ROOT
ATOM     11  C   UNL     1      -3.636   0.545  24.947  0.00  0.00    +0.130 A 
ATOM     12  C   UNL     1      -4.323   0.088  24.930  0.00  0.00    +0.023 A 
ATOM     13  C   UNL     1      -5.063   0.453  24.960  0.00  0.00    +0.014 A 
ATOM     14  C   UNL     1      -5.115   1.275  25.008  0.00  0.00    +0.041 A 
ATOM     15  C   UNL     1      -5.738   1.949  25.055  0.00  0.00    +0.054 C 
ATOM     16  C   UNL     1      -6.431   2.057  25.070  0.00  0.00    +0.011 C 
ATOM     17  C   UNL     1      -5.751   2.505  25.087  0.00  0.00    +0.039 C 
ATOM     18  C   UNL     1      -5.057   3.208  25.119  0.00  0.00    +0.074 C 
ATOM     19  N   UNL     1      -4.373   2.730  25.082  0.00  0.00    -0.272 NA
ATOM     29  C   UNL     1      -5.079   2.639  25.086  0.00  0.00    +0.078 C 
ATOM     30  C   UNL     1      -5.093   1.808  25.038  0.00  0.00    +0.110 C 
ATOM     31  N   UNL     1      -4.428   1.732  25.026  0.00  0.00    -0.298 N 
ATOM     32  C   UNL     1      -3.689   1.367  24.995  0.00  0.00    +0.276 A 
ATOM     33  O   UNL     1      -3.002   1.824  25.013  0.00  0.00    -0.266 OA
ENDROOT
BRANCH  11  10
ATOM      8  C   UNL     1      -2.777  -0.538  25.306  0.00  0.00    +0.269 C 
ATOM      9  O   UNL     1      -3.395  -0.889  25.725  0.00  0.00    -0.268 OA
ATOM     10  N   UNL     1      -2.898   0.180  24.917  0.00  0.00    -0.171 NA
BRANCH   8   5
ATOM      1  F   UNL     1       0.178  -2.003  25.188  0.00  0.00    -0.204 F 
ATOM      2  C   UNL     1      -0.562  -1.636  25.217  0.00  0.00    +0.140 A 
ATOM      3  C   UNL     1      -0.686  -1.001  25.728  0.00  0.00    +0.030 A 
ATOM      4  C   UNL     1      -1.425  -0.635  25.758  0.00  0.00    +0.007 A 
ATOM      5  C   UNL     1      -2.039  -0.904  25.276  0.00  0.00    +0.056 A 
ATOM      6  C   UNL     1      -1.913  -1.540  24.765  0.00  0.00    +0.007 A 
ATOM      7  C   UNL     1      -1.175  -1.906  24.736  0.00  0.00    +0.030 A 
ENDBRANCH   8   5
ENDBRANCH  11  10
BRANCH  19  20
ATOM     20  C   UNL     1      -3.571   2.534  25.061  0.00  0.00    +0.072 C 
BRANCH  20  21
ATOM     21  C   UNL     1      -3.010   3.111  24.885  0.00  0.00    +0.022 C 
BRANCH  21  22
ATOM     22  C   UNL     1      -2.431   3.307  25.439  0.00  0.00    +0.028 C 
BRANCH  22  23
ATOM     23  C   UNL     1      -1.870   3.886  25.263  0.00  0.00    -0.022 A 
ATOM     24  C   UNL     1      -2.067   4.685  25.332  0.00  0.00    -0.004 A 
ATOM     25  C   UNL     1      -1.507   5.264  25.156  0.00  0.00    -0.000 A 
ATOM     26  C   UNL     1      -0.751   5.046  24.911  0.00  0.00    -0.000 A 
ATOM     27  C   UNL     1      -0.554   4.247  24.841  0.00  0.00    -0.000 A 
ATOM     28  C   UNL     1      -1.114   3.668  25.017  0.00  0.00    -0.004 A 
ENDBRANCH  22  23
ENDBRANCH  21  22
ENDBRANCH  20  21
ENDBRANCH  19  20
TORSDOF 6
ENDMDL
MODEL 3
REMARK VINA RESULT:     -14.0      1.417      3.984
REMARK  Name = 
REMARK  6 active torsions:
REMARK  status: ('A' for Active; 'I' for Inactive)
REMARK    1  A    between atoms: C_5  and  C_8
REMARK    2  A    between atoms: N_10  and  C_11
REMARK    3  A    between atoms: N_19  and  C_20
REMARK    4  A    between atoms: C_20  and  C_21
REMARK    5  A    between atoms: C_21  and  C_22
REMARK    6  A    between atoms: C_22  and  C_23
REMARK                            x       y       z     vdW  Elec       q    Type
REMARK                         _______ _______ _______ _____ _____    ______ ____
ROOT
ATOM     11  C   UNL     1      -4.454   0.992  24.714  0.00  0.00    +0.130 A 
ATOM     12  C   UNL     1      -5.242   1.097  24.934  0.00  0.00    +0.023 A 
ATOM     13  C   UNL     1      -5.510   1.843  25.163  0.00  0.00    +0.014 A 
ATOM     14  C   UNL     1      -4.990   2.483  25.172  0.00  0.00    +0.041 A 
ATOM     15  C   UNL     1      -4.969   3.382  25.361  0.00  0.00    +0.054 C 
ATOM     16  C   UNL     1      -5.378   3.909  25.578  0.00  0.00    +0.011 C 
ATOM     17  C   UNL     1      -4.601   3.801  25.360  0.00  0.00    +0.039 C 
ATOM     18  C   UNL     1      -3.641   3.872  25.136  0.00  0.00    +0.074 C 
ATOM     19  N   UNL     1      -3.488   3.079  24.925  0.00  0.00    -0.272 NA
ATOM     29  C   UNL     1      -4.042   3.467  25.148  0.00  0.00    +0.078 C 
ATOM     30  C   UNL     1      -4.614   2.862  25.160  0.00  0.00    +0.110 C 
ATOM     31  N   UNL     1      -4.202   2.378  24.952  0.00  0.00    -0.298 N 
ATOM     32  C   UNL     1      -3.934   1.632  24.723  0.00  0.00    +0.276 A 
ATOM     33  O   UNL     1      -3.146   1.526  24.503  0.00  0.00    -0.266 OA
ENDROOT
BRANCH  11  10
ATOM      8  C   UNL     1      -4.279  -0.398  24.993  0.00  0.00    +0.269 C 
ATOM      9  O   UNL     1      -4.639  -0.296  25.728  0.00  0.00    -0.268 OA
ATOM     10  N   UNL     1      -4.186   0.246  24.485  0.00  0.00    -0.171 NA
BRANCH   8   5
ATOM      1  F   UNL     1      -3.209  -3.385  24.082  0.00  0.00    -0.204 F 
ATOM      2  C   UNL     1      -3.477  -2.638  24.310  0.00  0.00    +0.140 A 
ATOM      3  C   UNL     1      -3.185  -2.288  24.997  0.00  0.00    +0.030 A 
ATOM      4  C   UNL     1      -3.453  -1.540  25.224  0.00  0.00    +0.007 A 
ATOM      5  C   UNL     1      -4.012  -1.145  24.765  0.00  0.00    +0.056 A 
ATOM      6  C   UNL     1      -4.304  -1.496  24.077  0.00  0.00    +0.007 A 
ATOM      7  C   UNL     1      -4.037  -2.242  23.849  0.00  0.00    +0.030 A 
ENDBRANCH   8   5
ENDBRANCH  11  10
BRANCH  19  20
ATOM     20  C   UNL     1      -3.062   2.417  24.675  0.00  0.00    +0.072 C 
BRANCH  20  21
ATOM     21  C   UNL     1      -2.239   2.411  24.732  0.00  0.00    +0.022 C 
BRANCH  21  22
ATOM     22  C   UNL     1      -1.780   2.256  24.064  0.00  0.00    +0.028 C 
BRANCH  22  23
ATOM     23  C   UNL     1      -0.974   2.103  24.144  0.00  0.00    -0.022 A 
ATOM     24  C   UNL     1      -0.677   1.354  23.966  0.00  0.00    -0.004 A 
ATOM     25  C   UNL     1       0.130   1.201  24.046  0.00  0.00    -0.000 A 
ATOM     26  C   UNL     1       0.639   1.796  24.304  0.00  0.00    -0.000 A 
ATOM     27  C   UNL     1       0.342   2.545  24.482  0.00  0.00    -0.000 A 
ATOM     28  C   UNL     1      -0.464   2.698  24.402  0.00  0.00    -0.004 A 
ENDBRANCH  22  23
ENDBRANCH  21  22
ENDBRANCH  20  21
ENDBRANCH  19  20
TORSDOF 6
ENDMDL
MODEL 4
REMARK VINA RESULT:     -13.9      1.388      3.704
REMARK  Name = 
REMARK  6 active torsions:
REMARK  status: ('A' for Active; 'I' for Inactive)
REMARK    1  A    between atoms: C_5  and  C_8
REMARK    2  A    between atoms: N_10  and  C_11
REMARK    3  A    between atoms: N_19  and  C_20
REMARK    4  A    between atoms: C_20  and  C_21
REMARK    5  A    between atoms: C_21  and  C_22
REMARK    6  A    between atoms: C_22  and  C_23
REMARK                            x       y       z     vdW  Elec       q    Type
REMARK                         _______ _______ _______ _____ _____    ______ ____
ROOT
ATOM     11  C   UNL     1      -1.930  -0.345  25.098  0.00  0.00    +0.130 A 
ATOM     12  C   UNL     1      -1.483  -1.038  25.066  0.00  0.00    +0.023 A 
ATOM     13  C   UNL     1      -1.836  -1.746  24.831  0.00  0.00    +0.014 A 
ATOM     14  C   UNL     1      -2.635  -1.760  24.628  0.00  0.00    +0.041 A 
ATOM     15  C   UNL     1      -3.289  -2.340  24.344  0.00  0.00    +0.054 C 
ATOM     16  C   UNL     1      -3.393  -3.014  24.178  0.00  0.00    +0.011 C 
ATOM     17  C   UNL     1      -3.831  -2.328  24.210  0.00  0.00    +0.039 C 
ATOM     18  C   UNL     1      -4.516  -1.616  24.186  0.00  0.00    +0.074 C 
ATOM     19  N   UNL     1      -4.053  -0.967  24.437  0.00  0.00    -0.272 NA
ATOM     29  C   UNL     1      -3.963  -1.663  24.315  0.00  0.00    +0.078 C 
ATOM     30  C   UNL     1      -3.154  -1.714  24.507  0.00  0.00    +0.110 C 
ATOM     31  N   UNL     1      -3.082  -1.067  24.660  0.00  0.00    -0.298 N 
ATOM     32  C   UNL     1      -2.729  -0.359  24.895  0.00  0.00    +0.276 A 
ATOM     33  O   UNL     1      -3.175   0.334  24.927  0.00  0.00    -0.266 OA
ENDROOT
BRANCH  11  10
ATOM      8  C   UNL     1      -0.856   0.593  25.002  0.00  0.00    +0.269 C 
ATOM      9  O   UNL     1      -0.491   0.117  24.436  0.00  0.00    -0.268 OA
ATOM     10  N   UNL     1      -1.576   0.362  25.333  0.00  0.00    -0.171 NA
BRANCH   8   5
ATOM      1  F   UNL     1       0.561   3.421  25.942  0.00  0.00    -0.204 F 
ATOM      2  C   UNL     1       0.206   2.714  25.707  0.00  0.00    +0.140 A 
ATOM      3  C   UNL     1      -0.168   2.236  26.264  0.00  0.00    +0.030 A 
ATOM      4  C   UNL     1      -0.523   1.528  26.029  0.00  0.00    +0.007 A 
ATOM      5  C   UNL     1      -0.502   1.300  25.237  0.00  0.00    +0.056 A 
ATOM      6  C   UNL     1      -0.127   1.779  24.679  0.00  0.00    +0.007 A 
ATOM      7  C   UNL     1       0.227   2.486  24.914  0.00  0.00    +0.030 A 
ENDBRANCH   8   5
ENDBRANCH  11  10
BRANCH  19  20
ATOM     20  C   UNL     1      -3.864  -0.191  24.645  0.00  0.00    +0.072 C 
BRANCH  20  21
ATOM     21  C   UNL     1      -4.462   0.337  24.854  0.00  0.00    +0.022 C 
BRANCH  21  22
ATOM     22  C   UNL     1      -4.516   1.069  24.479  0.00  0.00    +0.028 C 
BRANCH  22  23
ATOM     23  C   UNL     1      -4.953   1.678  24.823  0.00  0.00    -0.022 A 
ATOM     24  C   UNL     1      -4.616   2.426  24.916  0.00  0.00    -0.004 A 
ATOM     25  C   UNL     1      -5.054   3.034  25.260  0.00  0.00    -0.000 A 
ATOM     26  C   UNL     1      -5.827   2.897  25.511  0.00  0.00    -0.000 A 
ATOM     27  C   UNL     1      -6.164   2.149  25.417  0.00  0.00    -0.000 A 
ATOM     28  C   UNL     1      -5.727   1.540  25.073  0.00  0.00    -0.004 A 
ENDBRANCH  22  23
ENDBRANCH  21  22
ENDBRANCH  20  21
ENDBRANCH  19  20
TORSDOF 6
ENDMDL
MODEL 5
REMARK VINA RESULT:     -13.8      1.773      3.945
REMARK  Name = 
REMARK  6 active torsions:
REMARK  status: ('A' for Active; 'I' for Inactive)
REMARK    1  A    between atoms: C_5  and  C_8
REMARK    2  A    between atoms: N_10  and  C_11
REMARK    3  A    between atoms: N_19  and  C_20
REMARK    4  A    between atoms: C_20  and  C_21
REMARK    5  A    between atoms: C_21  and  C_22
REMARK    6  A    between atoms: C_22  and  C_23
REMARK                            x       y       z     vdW  Elec       q    Type
REMARK                         _______ _______ _______ _____ _____    ______ ____
ROOT
ATOM     11  C   UNL     1      -1.133   1.902  25.211  0.00  0.00    +0.130 A 
ATOM     12  C   UNL     1      -0.346   2.150  25.185  0.00  0.00    +0.023 A 
ATOM     13  C   UNL     1      -0.168   2.954  25.142  0.00  0.00    +0.014 A 
ATOM     14  C   UNL     1      -0.776   3.511  25.126  0.00  0.00    +0.041 A 
ATOM     15  C   UNL     1      -0.912   4.419  25.083  0.00  0.00    +0.054 C 
ATOM     16  C   UNL     1      -0.563   5.027  25.047  0.00  0.00    +0.011 C 
ATOM     17  C   UNL     1      -1.338   4.778  25.073  0.00  0.00    +0.039 C 
ATOM     18  C   UNL     1      -2.321   4.679  25.096  0.00  0.00    +0.074 C 
ATOM     19  N   UNL     1      -2.377   3.847  25.138  0.00  0.00    -0.272 NA
ATOM     29  C   UNL     1      -1.864   4.339  25.105  0.00  0.00    +0.078 C 
ATOM     30  C   UNL     1      -1.206   3.828  25.118  0.00  0.00    +0.110 C 
ATOM     31  N   UNL     1      -1.563   3.263  25.152  0.00  0.00    -0.298 N 
ATOM     32  C   UNL     1      -1.741   2.459  25.195  0.00  0.00    +0.276 A 
ATOM     33  O   UNL     1      -2.528   2.211  25.221  0.00  0.00    -0.266 OA
ENDROOT
BRANCH  11  10
ATOM      8  C   UNL     1      -0.916   0.563  24.765  0.00  0.00    +0.269 C 
ATOM      9  O   UNL     1      -0.346   0.832  24.233  0.00  0.00    -0.268 OA
ATOM     10  N   UNL     1      -1.310   1.098  25.254  0.00  0.00    -0.171 NA
BRANCH   8   5
ATOM      1  F   UNL     1      -1.622  -2.657  24.934  0.00  0.00    -0.204 F 
ATOM      2  C   UNL     1      -1.445  -1.851  24.891  0.00  0.00    +0.140 A 
ATOM      3  C   UNL     1      -0.703  -1.580  25.125  0.00  0.00    +0.030 A 
ATOM      4  C   UNL     1      -0.527  -0.774  25.082  0.00  0.00    +0.007 A 
ATOM      5  C   UNL     1      -1.093  -0.242  24.807  0.00  0.00    +0.056 A 
ATOM      6  C   UNL     1      -1.836  -0.514  24.573  0.00  0.00    +0.007 A 
ATOM      7  C   UNL     1      -2.013  -1.319  24.616  0.00  0.00    +0.030 A 
ENDBRANCH   8   5
ENDBRANCH  11  10
BRANCH  19  20
ATOM     20  C   UNL     1      -2.725   3.100  25.181  0.00  0.00    +0.072 C 
BRANCH  20  21
ATOM     21  C   UNL     1      -3.524   3.028  25.374  0.00  0.00    +0.022 C 
BRANCH  21  22
ATOM     22  C   UNL     1      -4.061   2.752  24.812  0.00  0.00    +0.028 C 
BRANCH  22  23
ATOM     23  C   UNL     1      -4.820   2.526  25.043  0.00  0.00    -0.022 A 
ATOM     24  C   UNL     1      -5.133   1.808  24.782  0.00  0.00    -0.004 A 
ATOM     25  C   UNL     1      -5.893   1.583  25.013  0.00  0.00    -0.000 A 
ATOM     26  C   UNL     1      -6.338   2.072  25.503  0.00  0.00    -0.000 A 
ATOM     27  C   UNL     1      -6.024   2.790  25.764  0.00  0.00    -0.000 A 
ATOM     28  C   UNL     1      -5.265   3.016  25.534  0.00  0.00    -0.004 A 
ENDBRANCH  22  23
ENDBRANCH  21  22
ENDBRANCH  20  21
ENDBRANCH  19  20
TORSDOF 6
ENDMDL
MODEL 6
REMARK VINA RESULT:     -13.6      1.771      4.048
REMARK  Name = 
REMARK  6 active torsions:
REMARK  status: ('A' for Active; 'I' for Inactive)
REMARK    1  A    between atoms: C_5  and  C_8
REMARK    2  A    between atoms: N_10  and  C_11
REMARK    3  A    between atoms: N_19  and  C_20
REMARK    4  A    between atoms: C_20  and  C_21
REMARK    5  A    between atoms: C_21  and  C_22
REMARK    6  A    between atoms: C_22  and  C_23
REMARK                            x       y       z     vdW  Elec       q    Type
REMARK                         _______ _______ _______ _____ _____    ______ ____
ROOT
ATOM     11  C   UNL     1      -2.037   2.105  24.883  0.00  0.00    +0.130 A 
ATOM     12  C   UNL     1      -1.486   2.716  24.821  0.00  0.00    +0.023 A 
ATOM     13  C   UNL     1      -0.718   2.555  24.567  0.00  0.00    +0.014 A 
ATOM     14  C   UNL     1      -0.500   1.783  24.375  0.00  0.00    +0.041 A 
ATOM     15  C   UNL     1       0.222   1.297  24.082  0.00  0.00    +0.054 C 
ATOM     16  C   UNL     1       0.895   1.369  23.895  0.00  0.00    +0.011 C 
ATOM     17  C   UNL     1       0.349   0.768  23.957  0.00  0.00    +0.039 C 
ATOM     18  C   UNL     1      -0.159  -0.080  23.967  0.00  0.00    +0.074 C 
ATOM     19  N   UNL     1      -0.899   0.203  24.233  0.00  0.00    -0.272 NA
ATOM     29  C   UNL     1      -0.255   0.469  24.086  0.00  0.00    +0.078 C 
ATOM     30  C   UNL     1      -0.412   1.267  24.264  0.00  0.00    +0.110 C 
ATOM     31  N   UNL     1      -1.051   1.171  24.437  0.00  0.00    -0.298 N 
ATOM     32  C   UNL     1      -1.820   1.332  24.691  0.00  0.00    +0.276 A 
ATOM     33  O   UNL     1      -2.370   0.721  24.753  0.00  0.00    -0.266 OA
ENDROOT
BRANCH  11  10
ATOM      8  C   UNL     1      -3.224   2.896  24.806  0.00  0.00    +0.269 C 
ATOM      9  O   UNL     1      -2.875   3.362  24.222  0.00  0.00    -0.268 OA
ATOM     10  N   UNL     1      -2.805   2.266  25.136  0.00  0.00    -0.171 NA
BRANCH   8   5
ATOM      1  F   UNL     1      -6.297   3.545  25.818  0.00  0.00    -0.204 F 
ATOM      2  C   UNL     1      -5.528   3.382  25.565  0.00  0.00    +0.140 A 
ATOM      3  C   UNL     1      -5.391   2.765  25.037  0.00  0.00    +0.030 A 
ATOM      4  C   UNL     1      -4.622   2.602  24.784  0.00  0.00    +0.007 A 
ATOM      5  C   UNL     1      -3.992   3.058  25.059  0.00  0.00    +0.056 A 
ATOM      6  C   UNL     1      -4.130   3.677  25.587  0.00  0.00    +0.007 A 
ATOM      7  C   UNL     1      -4.898   3.839  25.841  0.00  0.00    +0.030 A 
ENDBRANCH   8   5
ENDBRANCH  11  10
BRANCH  19  20
ATOM     20  C   UNL     1      -1.691   0.187  24.464  0.00  0.00    +0.072 C 
BRANCH  20  21
ATOM     21  C   UNL     1      -2.171  -0.447  24.247  0.00  0.00    +0.022 C 
BRANCH  21  22
ATOM     22  C   UNL     1      -2.637  -0.825  24.813  0.00  0.00    +0.028 C 
BRANCH  22  23
ATOM     23  C   UNL     1      -3.107  -1.468  24.598  0.00  0.00    -0.022 A 
ATOM     24  C   UNL     1      -2.912  -2.226  24.860  0.00  0.00    -0.004 A 
ATOM     25  C   UNL     1      -3.382  -2.869  24.645  0.00  0.00    -0.000 A 
ATOM     26  C   UNL     1      -4.046  -2.755  24.170  0.00  0.00    -0.000 A 
ATOM     27  C   UNL     1      -4.241  -1.997  23.908  0.00  0.00    -0.000 A 
ATOM     28  C   UNL     1      -3.771  -1.354  24.123  0.00  0.00    -0.004 A 
ENDBRANCH  22  23
ENDBRANCH  21  22
ENDBRANCH  20  21
ENDBRANCH  19  20
TORSDOF 6
ENDMDL
