MODEL 1
REMARK VINA RESULT:      -9.8      0.000      0.000
REMARK  Name = 
REMARK  7 active torsions:
REMARK  status: ('A' for Active; 'I' for Inactive)
REMARK    1  A    between atoms: C_2  and  C_5
REMARK    2  A    between atoms: C_5  and  C_6
REMARK    3  A    between atoms: N_8  and  C_9
REMARK    4  A    between atoms: C_9  and  C_10
REMARK    5  A    between atoms: C_13  and  N_14
REMARK    6  A    between atoms: N_14  and  C_15
REMARK    7  A    between atoms: C_15  and  C_16
REMARK                            x       y       z     vdW  Elec       q    Type
REMARK                         _______ _______ _______ _____ _____    ______ ____
ROOT
ATOM     10  C   UNL     1      -3.689   2.024  24.599  0.00  0.00    +0.169 C 
ATOM     11  O   UNL     1      -4.265   1.826  25.155  0.00  0.00    -0.350 OA
ATOM     12  C   UNL     1      -4.412   1.018  25.093  0.00  0.00    +0.162 C 
ATOM     13  C   UNL     1      -3.928   0.715  24.498  0.00  0.00    +0.135 C 
ATOM     22  C   UNL     1      -3.481   1.336  24.192  0.00  0.00    +0.199 C 
ATOM     23  O   UNL     1      -2.923   1.281  23.587  0.00  0.00    -0.219 OA
ENDROOT
BRANCH  10   9
ATOM      9  C   UNL     1      -3.376   2.776  24.471  0.00  0.00    +0.147 C 
BRANCH   9   8
ATOM      6  C   UNL     1      -2.569   3.871  24.910  0.00  0.00    +0.241 C 
ATOM      7  O   UNL     1      -2.826   4.319  24.267  0.00  0.00    -0.273 OA
ATOM      8  N   UNL     1      -2.844   3.099  25.011  0.00  0.00    -0.203 NA
BRANCH   6   5
ATOM      5  C   UNL     1      -2.036   4.193  25.452  0.00  0.00    +0.087 C 
BRANCH   5   2
ATOM      1  C   UNL     1      -0.831   5.192  24.928  0.00  0.00    +0.000 C 
ATOM      2  C   UNL     1      -1.434   4.693  25.190  0.00  0.00    +0.009 C 
ATOM      3  C   UNL     1      -1.942   5.339  25.255  0.00  0.00    +0.000 C 
ATOM      4  C   UNL     1      -0.926   4.046  25.125  0.00  0.00    +0.000 C 
ENDBRANCH   5   2
ENDBRANCH   6   5
ENDBRANCH   9   8
ENDBRANCH  10   9
BRANCH  13  14
ATOM     14  N   UNL     1      -3.897  -0.073  24.252  0.00  0.00    -0.209 NA
BRANCH  14  15
ATOM     15  C   UNL     1      -4.156  -0.673  24.756  0.00  0.00    +0.115 C 
BRANCH  15  16
ATOM     16  C   UNL     1      -3.985  -1.461  24.579  0.00  0.00    -0.002 A 
ATOM     17  C   UNL     1      -4.294  -1.806  23.897  0.00  0.00    +0.018 A 
ATOM     18  C   UNL     1      -4.124  -2.594  23.720  0.00  0.00    +0.099 A 
ATOM     19  N   UNL     1      -3.645  -3.036  24.226  0.00  0.00    -0.242 NA
ATOM     20  C   UNL     1      -3.336  -2.690  24.909  0.00  0.00    +0.099 A 
ATOM     21  C   UNL     1      -3.507  -1.902  25.085  0.00  0.00    +0.018 A 
ENDBRANCH  15  16
ENDBRANCH  14  15
ENDBRANCH  13  14
TORSDOF 7
ENDMDL
MODEL 2
REMARK VINA RESULT:      -9.3      1.738      5.873
REMARK  Name = 
REMARK  7 active torsions:
REMARK  status: ('A' for Active; 'I' for Inactive)
REMARK    1  A    between atoms: C_2  and  C_5
REMARK    2  A    between atoms: C_5  and  C_6
REMARK    3  A    between atoms: N_8  and  C_9
REMARK    4  A    between atoms: C_9  and  C_10
REMARK    5  A    between atoms: C_13  and  N_14
REMARK    6  A    between atoms: N_14  and  C_15
REMARK    7  A    between atoms: C_15  and  C_16
REMARK                            x       y       z     vdW  Elec       q    Type
REMARK                         _______ _______ _______ _____ _____    ______ ____
ROOT
ATOM     10  C   UNL     1      -1.420   0.303  24.957  0.00  0.00    +0.169 C 
ATOM     11  O   UNL     1      -1.062   0.432  25.689  0.00  0.00    -0.350 OA
ATOM     12  C   UNL     1      -0.911   1.240  25.760  0.00  0.00    +0.162 C 
ATOM     13  C   UNL     1      -1.176   1.610  25.072  0.00  0.00    +0.135 C 
ATOM     22  C   UNL     1      -1.491   1.032  24.576  0.00  0.00    +0.199 C 
ATOM     23  O   UNL     1      -1.818   1.159  23.830  0.00  0.00    -0.219 OA
ENDROOT
BRANCH  10   9
ATOM      9  C   UNL     1      -1.665  -0.426  24.659  0.00  0.00    +0.147 C 
BRANCH   9   8
ATOM      6  C   UNL     1      -2.583  -1.521  24.678  0.00  0.00    +0.241 C 
ATOM      7  O   UNL     1      -2.073  -1.957  24.198  0.00  0.00    -0.273 OA
ATOM      8  N   UNL     1      -2.378  -0.755  24.909  0.00  0.00    -0.203 NA
BRANCH   6   5
ATOM      5  C   UNL     1      -3.297  -1.850  24.929  0.00  0.00    +0.087 C 
BRANCH   5   2
ATOM      1  C   UNL     1      -4.180  -2.786  23.896  0.00  0.00    +0.000 C 
ATOM      2  C   UNL     1      -3.738  -2.318  24.412  0.00  0.00    +0.009 C 
ATOM      3  C   UNL     1      -4.118  -1.643  24.125  0.00  0.00    +0.000 C 
ATOM      4  C   UNL     1      -3.359  -2.992  24.699  0.00  0.00    +0.000 C 
ENDBRANCH   5   2
ENDBRANCH   6   5
ENDBRANCH   9   8
ENDBRANCH  10   9
BRANCH  13  14
ATOM     14  N   UNL     1      -1.134   2.419  24.910  0.00  0.00    -0.209 NA
BRANCH  14  15
ATOM     15  C   UNL     1      -1.137   2.965  25.529  0.00  0.00    +0.115 C 
BRANCH  15  16
ATOM     16  C   UNL     1      -1.233   3.768  25.369  0.00  0.00    -0.002 A 
ATOM     17  C   UNL     1      -1.924   4.155  25.601  0.00  0.00    +0.018 A 
ATOM     18  C   UNL     1      -2.020   4.958  25.441  0.00  0.00    +0.099 A 
ATOM     19  N   UNL     1      -1.425   5.375  25.049  0.00  0.00    -0.242 NA
ATOM     20  C   UNL     1      -0.735   4.988  24.817  0.00  0.00    +0.099 A 
ATOM     21  C   UNL     1      -0.639   4.185  24.977  0.00  0.00    +0.018 A 
ENDBRANCH  15  16
ENDBRANCH  14  15
ENDBRANCH  13  14
TORSDOF 7
ENDMDL
MODEL 3
REMARK VINA RESULT:      -9.1      0.940      1.176
REMARK  Name = 
REMARK  7 active torsions:
REMARK  status: ('A' for Active; 'I' for Inactive)
REMARK    1  A    between atoms: C_2  and  C_5
REMARK    2  A    between atoms: C_5  and  C_6
REMARK    3  A    between atoms: N_8  and  C_9
REMARK    4  A    between atoms: C_9  and  C_10
REMARK    5  A    between atoms: C_13  and  N_14
REMARK    6  A    between atoms: N_14  and  C_15
REMARK    7  A    between atoms: C_15  and  C_16
REMARK                            x       y       z     vdW  Elec       q    Type
REMARK                         _______ _______ _______ _____ _____    ______ ____
ROOT
ATOM     10  C   UNL     1      -2.343   1.683  24.473  0.00  0.00    +0.169 C 
ATOM     11  O   UNL     1      -3.107   1.740  24.779  0.00  0.00    -0.350 OA
ATOM     12  C   UNL     1      -3.456   0.995  24.733  0.00  0.00    +0.162 C 
ATOM     13  C   UNL     1      -2.908   0.477  24.398  0.00  0.00    +0.135 C 
ATOM     22  C   UNL     1      -2.221   0.902  24.237  0.00  0.00    +0.199 C 
ATOM     23  O   UNL     1      -1.531   0.600  23.900  0.00  0.00    -0.219 OA
ENDROOT
BRANCH  10   9
ATOM      9  C   UNL     1      -1.797   2.299  24.412  0.00  0.00    +0.147 C 
BRANCH   9   8
ATOM      6  C   UNL     1      -1.308   3.565  24.860  0.00  0.00    +0.241 C 
ATOM      7  O   UNL     1      -0.787   3.590  24.222  0.00  0.00    -0.273 OA
ATOM      8  N   UNL     1      -1.814   2.919  24.956  0.00  0.00    -0.203 NA
BRANCH   6   5
ATOM      5  C   UNL     1      -1.325   4.186  25.404  0.00  0.00    +0.087 C 
BRANCH   5   2
ATOM      1  C   UNL     1      -1.336   5.747  24.872  0.00  0.00    +0.000 C 
ATOM      2  C   UNL     1      -1.330   4.966  25.138  0.00  0.00    +0.009 C 
ATOM      3  C   UNL     1      -2.125   5.033  25.349  0.00  0.00    +0.000 C 
ATOM      4  C   UNL     1      -0.536   4.900  24.927  0.00  0.00    +0.000 C 
ENDBRANCH   5   2
ENDBRANCH   6   5
ENDBRANCH   9   8
ENDBRANCH  10   9
BRANCH  13  14
ATOM     14  N   UNL     1      -3.028  -0.326  24.250  0.00  0.00    -0.209 NA
BRANCH  14  15
ATOM     15  C   UNL     1      -3.635  -0.731  24.637  0.00  0.00    +0.115 C 
BRANCH  15  16
ATOM     16  C   UNL     1      -3.723  -1.544  24.527  0.00  0.00    -0.002 A 
ATOM     17  C   UNL     1      -3.353  -2.072  25.041  0.00  0.00    +0.018 A 
ATOM     18  C   UNL     1      -3.441  -2.885  24.931  0.00  0.00    +0.099 A 
ATOM     19  N   UNL     1      -3.900  -3.170  24.306  0.00  0.00    -0.242 NA
ATOM     20  C   UNL     1      -4.270  -2.641  23.793  0.00  0.00    +0.099 A 
ATOM     21  C   UNL     1      -4.182  -1.828  23.903  0.00  0.00    +0.018 A 
ENDBRANCH  15  16
ENDBRANCH  14  15
ENDBRANCH  13  14
TORSDOF 7
ENDMDL
