MODEL 1
REMARK VINA RESULT:     -13.2      0.000      0.000
REMARK  Name = 
REMARK  7 active torsions:
REMARK  status: ('A' for Active; 'I' for Inactive)
REMARK    1  A    between atoms: C_5  and  N_6
REMARK    2  A    between atoms: N_9  and  C_10
REMARK    3  A    between atoms: C_12  and  C_18
REMARK    4  A    between atoms: N_20  and  C_21
REMARK    5  A    between atoms: C_21  and  C_22
REMARK    6  A    between atoms: C_21  and  C_30
REMARK    7  A    between atoms: C_22  and  C_23
REMARK                            x       y       z     vdW  Elec       q    Type
REMARK                         _______ _______ _______ _____ _____    ______ ____
ROOT
ATOM     10  C   UNL     1      -4.933   1.947  24.897  0.00  0.00    +0.152 C 
ATOM     11  C   UNL     1      -4.200   2.281  24.719  0.00  0.00    -0.002 C 
ATOM     12  C   UNL     1      -4.017   3.041  24.984  0.00  0.00    +0.033 C 
ATOM     13  C   UNL     1      -4.567   3.466  25.428  0.00  0.00    +0.066 C 
ATOM     14  C   UNL     1      -5.300   3.132  25.607  0.00  0.00    +0.189 C 
ATOM     15  O   UNL     1      -5.851   3.557  26.051  0.00  0.00    -0.220 OA
ATOM     16  C   UNL     1      -5.483   2.372  25.342  0.00  0.00    +0.206 C 
ATOM     17  O   UNL     1      -6.216   2.038  25.521  0.00  0.00    -0.218 OA
ENDROOT
BRANCH  10   9
ATOM      6  N   UNL     1      -4.764  -0.189  24.483  0.00  0.00    -0.161 NA
ATOM      7  C   UNL     1      -4.582   0.571  24.748  0.00  0.00    +0.344 C 
ATOM      8  O   UNL     1      -3.864   0.712  25.130  0.00  0.00    -0.249 OA
ATOM      9  N   UNL     1      -5.116   1.188  24.632  0.00  0.00    -0.181 NA
BRANCH   6   5
ATOM      1  C   UNL     1      -2.627  -2.660  24.946  0.00  0.00    +0.031 C 
ATOM      2  C   UNL     1      -3.161  -2.042  24.831  0.00  0.00    -0.022 A 
ATOM      3  C   UNL     1      -3.432  -1.604  25.475  0.00  0.00    -0.003 A 
ATOM      4  C   UNL     1      -3.966  -0.987  25.360  0.00  0.00    +0.016 A 
ATOM      5  C   UNL     1      -4.230  -0.806  24.599  0.00  0.00    +0.075 A 
ATOM     33  C   UNL     1      -3.960  -1.244  23.954  0.00  0.00    +0.016 A 
ATOM     34  C   UNL     1      -3.425  -1.862  24.070  0.00  0.00    -0.003 A 
ENDBRANCH   6   5
ENDBRANCH  10   9
BRANCH  12  18
ATOM     18  C   UNL     1      -3.285   3.375  24.805  0.00  0.00    +0.261 C 
ATOM     19  O   UNL     1      -3.241   4.030  24.307  0.00  0.00    -0.269 OA
ATOM     20  N   UNL     1      -2.596   3.054  25.126  0.00  0.00    -0.194 NA
BRANCH  20  21
ATOM     21  C   UNL     1      -1.863   3.388  24.948  0.00  0.00    +0.179 C 
BRANCH  21  30
ATOM     30  C   UNL     1      -1.578   4.020  25.396  0.00  0.00    +0.281 C 
ATOM     31  N   UNL     1      -1.235   4.670  25.021  0.00  0.00    -0.086 NA
ATOM     32  O   UNL     1      -1.637   4.002  26.219  0.00  0.00    -0.270 OA
ENDBRANCH  21  30
BRANCH  21  22
ATOM     22  C   UNL     1      -1.415   3.091  24.323  0.00  0.00    +0.057 C 
BRANCH  22  23
ATOM     23  C   UNL     1      -1.095   2.331  24.369  0.00  0.00    -0.020 A 
ATOM     24  C   UNL     1      -0.712   2.086  25.058  0.00  0.00    -0.001 A 
ATOM     25  C   UNL     1      -0.392   1.328  25.104  0.00  0.00    +0.042 A 
ATOM     26  C   UNL     1      -0.454   0.813  24.461  0.00  0.00    +0.196 A 
ATOM     27  O   UNL     1      -0.134   0.055  24.507  0.00  0.00    -0.287 OA
ATOM     28  C   UNL     1      -0.836   1.059  23.773  0.00  0.00    +0.042 A 
ATOM     29  C   UNL     1      -1.157   1.818  23.727  0.00  0.00    -0.001 A 
ENDBRANCH  22  23
ENDBRANCH  21  22
ENDBRANCH  20  21
ENDBRANCH  12  18
TORSDOF 7
ENDMDL
MODEL 2
REMARK VINA RESULT:     -12.9      1.196      3.588
REMARK  Name = 
REMARK  7 active torsions:
REMARK  status: ('A' for Active; 'I' for Inactive)
REMARK    1  A    between atoms: C_5  and  N_6
REMARK    2  A    between atoms: N_9  and  C_10
REMARK    3  A    between atoms: C_12  and  C_18
REMARK    4  A    between atoms: N_20  and  C_21
REMARK    5  A    between atoms: C_21  and  C_22
REMARK    6  A    between atoms: C_21  and  C_30
REMARK    7  A    between atoms: C_22  and  C_23
REMARK                            x       y       z     vdW  Elec       q    Type
REMARK                         _______ _______ _______ _____ _____    ______ ____
ROOT
ATOM     10  C   UNL     1      -0.946   0.962  25.092  0.00  0.00    +0.152 C 
ATOM     11  C   UNL     1      -1.440   1.621  25.135  0.00  0.00    -0.002 C 
ATOM     12  C   UNL     1      -1.199   2.342  24.813  0.00  0.00    +0.033 C 
ATOM     13  C   UNL     1      -0.462   2.403  24.446  0.00  0.00    +0.066 C 
ATOM     14  C   UNL     1       0.033   1.744  24.403  0.00  0.00    +0.189 C 
ATOM     15  O   UNL     1       0.770   1.805  24.036  0.00  0.00    -0.220 OA
ATOM     16  C   UNL     1      -0.209   1.023  24.726  0.00  0.00    +0.206 C 
ATOM     17  O   UNL     1       0.286   0.365  24.682  0.00  0.00    -0.218 OA
ENDROOT
BRANCH  10   9
ATOM      6  N   UNL     1      -2.021  -0.916  25.369  0.00  0.00    -0.161 NA
ATOM      7  C   UNL     1      -1.779  -0.196  25.046  0.00  0.00    +0.344 C 
ATOM      8  O   UNL     1      -2.131   0.084  24.355  0.00  0.00    -0.249 OA
ATOM      9  N   UNL     1      -1.187   0.243  25.415  0.00  0.00    -0.181 NA
BRANCH   6   5
ATOM      1  C   UNL     1      -4.393  -2.675  23.894  0.00  0.00    +0.031 C 
ATOM      2  C   UNL     1      -3.799  -2.234  24.263  0.00  0.00    -0.022 A 
ATOM      3  C   UNL     1      -3.989  -1.535  24.656  0.00  0.00    -0.003 A 
ATOM      4  C   UNL     1      -3.397  -1.096  25.025  0.00  0.00    +0.016 A 
ATOM      5  C   UNL     1      -2.614  -1.355  25.000  0.00  0.00    +0.075 A 
ATOM     33  C   UNL     1      -2.424  -2.055  24.607  0.00  0.00    +0.016 A 
ATOM     34  C   UNL     1      -3.017  -2.495  24.237  0.00  0.00    -0.003 A 
ENDBRANCH   6   5
ENDBRANCH  10   9
BRANCH  12  18
ATOM     18  C   UNL     1      -1.693   3.000  24.856  0.00  0.00    +0.261 C 
ATOM     19  O   UNL     1      -1.482   3.700  24.476  0.00  0.00    -0.269 OA
ATOM     20  N   UNL     1      -2.400   2.958  25.280  0.00  0.00    -0.194 NA
BRANCH  20  21
ATOM     21  C   UNL     1      -2.895   3.616  25.324  0.00  0.00    +0.179 C 
BRANCH  21  30
ATOM     30  C   UNL     1      -2.757   4.198  25.893  0.00  0.00    +0.281 C 
ATOM     31  N   UNL     1      -2.637   4.981  25.661  0.00  0.00    -0.086 NA
ATOM     32  O   UNL     1      -2.738   3.998  26.693  0.00  0.00    -0.270 OA
ENDBRANCH  21  30
BRANCH  21  22
ATOM     22  C   UNL     1      -3.527   3.692  24.801  0.00  0.00    +0.057 C 
BRANCH  22  23
ATOM     23  C   UNL     1      -4.204   3.231  24.902  0.00  0.00    -0.020 A 
ATOM     24  C   UNL     1      -4.700   3.361  25.549  0.00  0.00    -0.001 A 
ATOM     25  C   UNL     1      -5.376   2.901  25.649  0.00  0.00    +0.042 A 
ATOM     26  C   UNL     1      -5.558   2.309  25.103  0.00  0.00    +0.196 A 
ATOM     27  O   UNL     1      -6.234   1.849  25.203  0.00  0.00    -0.287 OA
ATOM     28  C   UNL     1      -5.063   2.179  24.457  0.00  0.00    +0.042 A 
ATOM     29  C   UNL     1      -4.385   2.640  24.356  0.00  0.00    -0.001 A 
ENDBRANCH  22  23
ENDBRANCH  21  22
ENDBRANCH  20  21
ENDBRANCH  12  18
TORSDOF 7
ENDMDL
MODEL 3
REMARK VINA RESULT:     -12.2      1.646      4.683
REMARK  Name = 
REMARK  7 active torsions:
REMARK  status: ('A' for Active; 'I' for Inactive)
REMARK    1  A    between atoms: C_5  and  N_6
REMARK    2  A    between atoms: N_9  and  C_10
REMARK    3  A    between atoms: C_12  and  C_18
REMARK    4  A    between atoms: N_20  and  C_21
REMARK    5  A    between atoms: C_21  and  C_22
REMARK    6  A    between atoms: C_21  and  C_30
REMARK    7  A    between atoms: C_22  and  C_23
REMARK                            x       y       z     vdW  Elec       q    Type
REMARK                         _______ _______ _______ _____ _____    ______ ____
ROOT
ATOM     10  C   UNL     1      -1.524   2.287  24.477  0.00  0.00    +0.152 C 
ATOM     11  C   UNL     1      -1.578   1.505  24.734  0.00  0.00    -0.002 C 
ATOM     12  C   UNL     1      -0.911   1.119  25.027  0.00  0.00    +0.033 C 
ATOM     13  C   UNL     1      -0.188   1.515  25.062  0.00  0.00    +0.066 C 
ATOM     14  C   UNL     1      -0.133   2.298  24.805  0.00  0.00    +0.189 C 
ATOM     15  O   UNL     1       0.590   2.694  24.840  0.00  0.00    -0.220 OA
ATOM     16  C   UNL     1      -0.801   2.684  24.512  0.00  0.00    +0.206 C 
ATOM     17  O   UNL     1      -0.746   3.465  24.255  0.00  0.00    -0.218 OA
ENDROOT
BRANCH  10   9
ATOM      6  N   UNL     1      -3.579   2.997  24.289  0.00  0.00    -0.161 NA
ATOM      7  C   UNL     1      -2.911   2.611  24.581  0.00  0.00    +0.344 C 
ATOM      8  O   UNL     1      -2.963   2.163  25.272  0.00  0.00    -0.249 OA
ATOM      9  N   UNL     1      -2.192   2.673  24.184  0.00  0.00    -0.181 NA
BRANCH   6   5
ATOM      1  C   UNL     1      -6.460   2.750  25.880  0.00  0.00    +0.031 C 
ATOM      2  C   UNL     1      -5.739   2.812  25.482  0.00  0.00    -0.022 A 
ATOM      3  C   UNL     1      -5.533   2.252  24.912  0.00  0.00    -0.003 A 
ATOM      4  C   UNL     1      -4.814   2.313  24.515  0.00  0.00    +0.016 A 
ATOM      5  C   UNL     1      -4.299   2.935  24.686  0.00  0.00    +0.075 A 
ATOM     33  C   UNL     1      -4.505   3.495  25.256  0.00  0.00    +0.016 A 
ATOM     34  C   UNL     1      -5.225   3.434  25.654  0.00  0.00    -0.003 A 
ENDBRANCH   6   5
ENDBRANCH  10   9
BRANCH  12  18
ATOM     18  C   UNL     1      -0.965   0.338  25.284  0.00  0.00    +0.261 C 
ATOM     19  O   UNL     1      -0.716   0.135  26.044  0.00  0.00    -0.269 OA
ATOM     20  N   UNL     1      -1.269  -0.242  24.781  0.00  0.00    -0.194 NA
BRANCH  20  21
ATOM     21  C   UNL     1      -1.324  -1.024  25.038  0.00  0.00    +0.179 C 
BRANCH  21  30
ATOM     30  C   UNL     1      -0.700  -1.547  24.901  0.00  0.00    +0.281 C 
ATOM     31  N   UNL     1      -0.405  -2.007  25.520  0.00  0.00    -0.086 NA
ATOM     32  O   UNL     1      -0.372  -1.610  24.147  0.00  0.00    -0.270 OA
ENDBRANCH  21  30
BRANCH  21  22
ATOM     22  C   UNL     1      -2.001  -1.283  25.430  0.00  0.00    +0.057 C 
BRANCH  22  23
ATOM     23  C   UNL     1      -2.657  -1.536  24.998  0.00  0.00    -0.020 A 
ATOM     24  C   UNL     1      -2.655  -2.282  24.645  0.00  0.00    -0.001 A 
ATOM     25  C   UNL     1      -3.311  -2.535  24.214  0.00  0.00    +0.042 A 
ATOM     26  C   UNL     1      -3.969  -2.043  24.135  0.00  0.00    +0.196 A 
ATOM     27  O   UNL     1      -4.624  -2.296  23.703  0.00  0.00    -0.287 OA
ATOM     28  C   UNL     1      -3.970  -1.297  24.488  0.00  0.00    +0.042 A 
ATOM     29  C   UNL     1      -3.314  -1.043  24.920  0.00  0.00    -0.001 A 
ENDBRANCH  22  23
ENDBRANCH  21  22
ENDBRANCH  20  21
ENDBRANCH  12  18
TORSDOF 7
ENDMDL
MODEL 4
REMARK VINA RESULT:     -12.2      1.240      4.242
REMARK  Name = 
REMARK  7 active torsions:
REMARK  status: ('A' for Active; 'I' for Inactive)
REMARK    1  A    between atoms: C_5  and  N_6
REMARK    2  A    between atoms: N_9  and  C_10
REMARK    3  A    between atoms: C_12  and  C_18
REMARK    4  A    between atoms: N_20  and  C_21
REMARK    5  A    between atoms: C_21  and  C_22
REMARK    6  A    between atoms: C_21  and  C_30
REMARK    7  A    between atoms: C_22  and  C_23
REMARK                            x       y       z     vdW  Elec       q    Type
REMARK                         _______ _______ _______ _____ _____    ______ ____
ROOT
ATOM     10  C   UNL     1      -4.633   2.428  25.572  0.00  0.00    +0.152 C 
ATOM     11  C   UNL     1      -4.298   1.674  25.559  0.00  0.00    -0.002 C 
ATOM     12  C   UNL     1      -4.709   1.044  25.220  0.00  0.00    +0.033 C 
ATOM     13  C   UNL     1      -5.456   1.168  24.893  0.00  0.00    +0.066 C 
ATOM     14  C   UNL     1      -5.793   1.922  24.905  0.00  0.00    +0.189 C 
ATOM     15  O   UNL     1      -6.540   2.046  24.578  0.00  0.00    -0.220 OA
ATOM     16  C   UNL     1      -5.381   2.552  25.244  0.00  0.00    +0.206 C 
ATOM     17  O   UNL     1      -5.717   3.305  25.256  0.00  0.00    -0.218 OA
ENDROOT
BRANCH  10   9
ATOM      6  N   UNL     1      -3.090   3.928  25.931  0.00  0.00    -0.161 NA
ATOM      7  C   UNL     1      -3.502   3.299  25.592  0.00  0.00    +0.344 C 
ATOM      8  O   UNL     1      -3.191   2.910  24.933  0.00  0.00    -0.249 OA
ATOM      9  N   UNL     1      -4.223   3.057  25.911  0.00  0.00    -0.181 NA
BRANCH   6   5
ATOM      1  C   UNL     1      -0.204   4.895  24.654  0.00  0.00    +0.031 C 
ATOM      2  C   UNL     1      -0.926   4.653  24.974  0.00  0.00    -0.022 A 
ATOM      3  C   UNL     1      -0.987   3.920  25.348  0.00  0.00    -0.003 A 
ATOM      4  C   UNL     1      -1.708   3.679  25.667  0.00  0.00    +0.016 A 
ATOM      5  C   UNL     1      -2.369   4.170  25.612  0.00  0.00    +0.075 A 
ATOM     33  C   UNL     1      -2.308   4.902  25.238  0.00  0.00    +0.016 A 
ATOM     34  C   UNL     1      -1.586   5.144  24.918  0.00  0.00    -0.003 A 
ENDBRANCH   6   5
ENDBRANCH  10   9
BRANCH  12  18
ATOM     18  C   UNL     1      -4.374   0.291  25.208  0.00  0.00    +0.261 C 
ATOM     19  O   UNL     1      -4.588  -0.265  25.778  0.00  0.00    -0.269 OA
ATOM     20  N   UNL     1      -3.824   0.094  24.626  0.00  0.00    -0.194 NA
BRANCH  20  21
ATOM     21  C   UNL     1      -3.489  -0.660  24.613  0.00  0.00    +0.179 C 
BRANCH  21  30
ATOM     30  C   UNL     1      -3.791  -1.237  24.107  0.00  0.00    +0.281 C 
ATOM     31  N   UNL     1      -3.977  -1.986  24.400  0.00  0.00    -0.086 NA
ATOM     32  O   UNL     1      -3.908  -1.066  23.308  0.00  0.00    -0.270 OA
ENDBRANCH  21  30
BRANCH  21  22
ATOM     22  C   UNL     1      -2.851  -0.835  25.105  0.00  0.00    +0.057 C 
BRANCH  22  23
ATOM     23  C   UNL     1      -2.079  -0.748  24.827  0.00  0.00    -0.020 A 
ATOM     24  C   UNL     1      -1.596  -1.411  24.735  0.00  0.00    -0.001 A 
ATOM     25  C   UNL     1      -0.825  -1.324  24.457  0.00  0.00    +0.042 A 
ATOM     26  C   UNL     1      -0.535  -0.574  24.272  0.00  0.00    +0.196 A 
ATOM     27  O   UNL     1       0.237  -0.486  23.994  0.00  0.00    -0.287 OA
ATOM     28  C   UNL     1      -1.017   0.089  24.364  0.00  0.00    +0.042 A 
ATOM     29  C   UNL     1      -1.790   0.002  24.642  0.00  0.00    -0.001 A 
ENDBRANCH  22  23
ENDBRANCH  21  22
ENDBRANCH  20  21
ENDBRANCH  12  18
TORSDOF 7
ENDMDL
MODEL 5
REMARK VINA RESULT:     -12.0      1.486      5.477
REMARK  Name = 
REMARK  7 active torsions:
REMARK  status: ('A' for Active; 'I' for Inactive)
REMARK    1  A    between atoms: C_5  and  N_6
REMARK    2  A    between atoms: N_9  and  C_10
REMARK    3  A    between atoms: C_12  and  C_18
REMARK    4  A    between atoms: N_20  and  C_21
REMARK    5  A    between atoms: C_21  and  C_22
REMARK    6  A    between atoms: C_21  and  C_30
REMARK    7  A    between atoms: C_22  and  C_23
REMARK                            x       y       z     vdW  Elec       q    Type
REMARK                         _______ _______ _______ _____ _____    ______ ____
ROOT
ATOM     10  C   UNL     1      -0.377   0.837  24.792  0.00  0.00    +0.152 C 
ATOM     11  C   UNL     1      -1.103   0.455  24.880  0.00  0.00    -0.002 C 
ATOM     12  C   UNL     1      -1.277  -0.212  24.425  0.00  0.00    +0.033 C 
ATOM     13  C   UNL     1      -0.724  -0.496  23.882  0.00  0.00    +0.066 C 
ATOM     14  C   UNL     1       0.002  -0.114  23.794  0.00  0.00    +0.189 C 
ATOM     15  O   UNL     1       0.555  -0.398  23.251  0.00  0.00    -0.220 OA
ATOM     16  C   UNL     1       0.176   0.553  24.249  0.00  0.00    +0.206 C 
ATOM     17  O   UNL     1       0.902   0.934  24.160  0.00  0.00    -0.218 OA
ENDROOT
BRANCH  10   9
ATOM      6  N   UNL     1      -0.443   2.872  25.576  0.00  0.00    -0.161 NA
ATOM      7  C   UNL     1      -0.616   2.206  25.122  0.00  0.00    +0.344 C 
ATOM      8  O   UNL     1      -1.203   2.243  24.543  0.00  0.00    -0.249 OA
ATOM      9  N   UNL     1      -0.203   1.503  25.246  0.00  0.00    -0.181 NA
BRANCH   6   5
ATOM      1  C   UNL     1      -2.095   5.686  25.080  0.00  0.00    +0.031 C 
ATOM      2  C   UNL     1      -1.682   4.982  25.204  0.00  0.00    -0.022 A 
ATOM      3  C   UNL     1      -2.021   4.377  25.651  0.00  0.00    -0.003 A 
ATOM      4  C   UNL     1      -1.609   3.675  25.775  0.00  0.00    +0.016 A 
ATOM      5  C   UNL     1      -0.856   3.575  25.452  0.00  0.00    +0.075 A 
ATOM     33  C   UNL     1      -0.516   4.180  25.006  0.00  0.00    +0.016 A 
ATOM     34  C   UNL     1      -0.929   4.884  24.881  0.00  0.00    -0.003 A 
ENDBRANCH   6   5
ENDBRANCH  10   9
BRANCH  12  18
ATOM     18  C   UNL     1      -2.002  -0.594  24.513  0.00  0.00    +0.261 C 
ATOM     19  O   UNL     1      -2.115  -1.344  24.191  0.00  0.00    -0.269 OA
ATOM     20  N   UNL     1      -2.615  -0.225  24.924  0.00  0.00    -0.194 NA
BRANCH  20  21
ATOM     21  C   UNL     1      -3.341  -0.606  25.013  0.00  0.00    +0.179 C 
BRANCH  21  30
ATOM     30  C   UNL     1      -3.419  -1.223  25.557  0.00  0.00    +0.281 C 
ATOM     31  N   UNL     1      -3.705  -1.956  25.310  0.00  0.00    -0.086 NA
ATOM     32  O   UNL     1      -3.211  -1.105  26.346  0.00  0.00    -0.270 OA
ENDBRANCH  21  30
BRANCH  21  22
ATOM     22  C   UNL     1      -3.988  -0.373  24.559  0.00  0.00    +0.057 C 
BRANCH  22  23
ATOM     23  C   UNL     1      -4.329   0.370  24.678  0.00  0.00    -0.020 A 
ATOM     24  C   UNL     1      -4.815   0.501  25.332  0.00  0.00    -0.001 A 
ATOM     25  C   UNL     1      -5.155   1.242  25.450  0.00  0.00    +0.042 A 
ATOM     26  C   UNL     1      -5.011   1.854  24.915  0.00  0.00    +0.196 A 
ATOM     27  O   UNL     1      -5.351   2.595  25.033  0.00  0.00    -0.287 OA
ATOM     28  C   UNL     1      -4.525   1.723  24.261  0.00  0.00    +0.042 A 
ATOM     29  C   UNL     1      -4.184   0.980  24.142  0.00  0.00    -0.001 A 
ENDBRANCH  22  23
ENDBRANCH  21  22
ENDBRANCH  20  21
ENDBRANCH  12  18
TORSDOF 7
ENDMDL
MODEL 6
REMARK VINA RESULT:     -11.8      1.468      4.008
REMARK  Name = 
REMARK  7 active torsions:
REMARK  status: ('A' for Active; 'I' for Inactive)
REMARK    1  A    between atoms: C_5  and  N_6
REMARK    2  A    between atoms: N_9  and  C_10
REMARK    3  A    between atoms: C_12  and  C_18
REMARK    4  A    between atoms: N_20  and  C_21
REMARK    5  A    between atoms: C_21  and  C_22
REMARK    6  A    between atoms: C_21  and  C_30
REMARK    7  A    between atoms: C_22  and  C_23
REMARK                            x       y       z     vdW  Elec       q    Type
REMARK                         _______ _______ _______ _____ _____    ______ ____
ROOT
ATOM     10  C   UNL     1      -3.413  -0.648  24.475  0.00  0.00    +0.152 C 
ATOM     11  C   UNL     1      -2.664  -0.301  24.462  0.00  0.00    -0.002 C 
ATOM     12  C   UNL     1      -1.999  -0.745  24.665  0.00  0.00    +0.033 C 
ATOM     13  C   UNL     1      -2.082  -1.537  24.880  0.00  0.00    +0.066 C 
ATOM     14  C   UNL     1      -2.831  -1.885  24.894  0.00  0.00    +0.189 C 
ATOM     15  O   UNL     1      -2.914  -2.677  25.110  0.00  0.00    -0.220 OA
ATOM     16  C   UNL     1      -3.496  -1.440  24.691  0.00  0.00    +0.206 C 
ATOM     17  O   UNL     1      -4.244  -1.788  24.705  0.00  0.00    -0.218 OA
ENDROOT
BRANCH  10   9
ATOM      6  N   UNL     1      -4.868   0.978  24.418  0.00  0.00    -0.161 NA
ATOM      7  C   UNL     1      -4.203   0.533  24.620  0.00  0.00    +0.344 C 
ATOM      8  O   UNL     1      -3.663   0.826  25.171  0.00  0.00    -0.249 OA
ATOM      9  N   UNL     1      -4.078  -0.204  24.273  0.00  0.00    -0.181 NA
BRANCH   6   5
ATOM      1  C   UNL     1      -5.369   3.928  25.809  0.00  0.00    +0.031 C 
ATOM      2  C   UNL     1      -5.244   3.190  25.461  0.00  0.00    -0.022 A 
ATOM      3  C   UNL     1      -4.742   3.121  24.810  0.00  0.00    -0.003 A 
ATOM      4  C   UNL     1      -4.617   2.384  24.463  0.00  0.00    +0.016 A 
ATOM      5  C   UNL     1      -4.993   1.715  24.766  0.00  0.00    +0.075 A 
ATOM     33  C   UNL     1      -5.495   1.784  25.417  0.00  0.00    +0.016 A 
ATOM     34  C   UNL     1      -5.620   2.522  25.765  0.00  0.00    -0.003 A 
ENDBRANCH   6   5
ENDBRANCH  10   9
BRANCH  12  18
ATOM     18  C   UNL     1      -1.251  -0.398  24.651  0.00  0.00    +0.261 C 
ATOM     19  O   UNL     1      -0.600  -0.809  24.945  0.00  0.00    -0.269 OA
ATOM     20  N   UNL     1      -1.155   0.362  24.344  0.00  0.00    -0.194 NA
BRANCH  20  21
ATOM     21  C   UNL     1      -0.407   0.710  24.331  0.00  0.00    +0.179 C 
BRANCH  21  30
ATOM     30  C   UNL     1       0.089   0.595  23.681  0.00  0.00    +0.281 C 
ATOM     31  N   UNL     1       0.873   0.366  23.797  0.00  0.00    -0.086 NA
ATOM     32  O   UNL     1      -0.199   0.709  22.916  0.00  0.00    -0.270 OA
ENDBRANCH  21  30
BRANCH  21  22
ATOM     22  C   UNL     1      -0.155   1.172  24.965  0.00  0.00    +0.057 C 
BRANCH  22  23
ATOM     23  C   UNL     1      -0.457   1.934  25.066  0.00  0.00    -0.020 A 
ATOM     24  C   UNL     1      -0.540   2.435  24.416  0.00  0.00    -0.001 A 
ATOM     25  C   UNL     1      -0.841   3.195  24.517  0.00  0.00    +0.042 A 
ATOM     26  C   UNL     1      -1.059   3.456  25.269  0.00  0.00    +0.196 A 
ATOM     27  O   UNL     1      -1.360   4.217  25.370  0.00  0.00    -0.287 OA
ATOM     28  C   UNL     1      -0.976   2.956  25.919  0.00  0.00    +0.042 A 
ATOM     29  C   UNL     1      -0.675   2.194  25.818  0.00  0.00    -0.001 A 
ENDBRANCH  22  23
ENDBRANCH  21  22
ENDBRANCH  20  21
ENDBRANCH  12  18
TORSDOF 7
ENDMDL
