MODEL 1
REMARK VINA RESULT:     -10.7      0.000      0.000
REMARK  Name = 
REMARK  8 active torsions:
REMARK  status: ('A' for Active; 'I' for Inactive)
REMARK    1  A    between atoms: C_2  and  C_4
REMARK    2  A    between atoms: C_4  and  C_5
REMARK    3  A    between atoms: C_7  and  C_25
REMARK    4  A    between atoms: N_11  and  C_12
REMARK    5  A    between atoms: C_12  and  C_13
REMARK    6  A    between atoms: N_27  and  C_28
REMARK    7  A    between atoms: C_28  and  C_29
REMARK    8  A    between atoms: C_29  and  N_30
REMARK                            x       y       z     vdW  Elec       q    Type
REMARK                         _______ _______ _______ _____ _____    ______ ____
ROOT
ATOM      5  C   UNL     1      -3.090  -0.606  24.499  0.00  0.00    +0.095 C 
ATOM      6  N   UNL     1      -2.268  -0.634  24.428  0.00  0.00    -0.207 NA
ATOM      7  C   UNL     1      -1.728  -0.011  24.468  0.00  0.00    +0.155 C 
ATOM      8  C   UNL     1      -1.874   0.792  24.586  0.00  0.00    +0.055 C 
ATOM      9  C   UNL     1      -2.599   1.171  24.695  0.00  0.00    -0.002 A 
ATOM     10  C   UNL     1      -2.673   1.985  24.810  0.00  0.00    +0.072 A 
ATOM     11  N   UNL     1      -3.476   2.157  24.897  0.00  0.00    -0.322 N 
ATOM     19  C   UNL     1      -3.897   1.451  24.838  0.00  0.00    +0.060 A 
ATOM     20  C   UNL     1      -3.355   0.841  24.713  0.00  0.00    +0.011 A 
ATOM     21  C   UNL     1      -3.574   0.050  24.625  0.00  0.00    -0.005 A 
ATOM     22  C   UNL     1      -4.428  -0.103  24.674  0.00  0.00    -0.003 A 
ATOM     23  C   UNL     1      -4.968   0.507  24.798  0.00  0.00    +0.001 A 
ATOM     24  C   UNL     1      -4.703   1.284  24.880  0.00  0.00    +0.017 A 
ENDROOT
BRANCH   7  25
ATOM     25  C   UNL     1      -0.934  -0.220  24.376  0.00  0.00    +0.258 C 
ATOM     26  O   UNL     1      -0.540  -0.620  24.980  0.00  0.00    -0.272 OA
ATOM     27  N   UNL     1      -0.536  -0.028  23.679  0.00  0.00    -0.203 NA
BRANCH  27  28
ATOM     28  C   UNL     1       0.258  -0.236  23.587  0.00  0.00    +0.132 C 
BRANCH  28  29
ATOM     29  C   UNL     1       0.764   0.251  23.156  0.00  0.00    +0.096 C 
BRANCH  29  30
ATOM     30  N   UNL     1       1.402  -0.077  22.747  0.00  0.00    -0.269 NA
ATOM     31  C   UNL     1       2.172   0.044  23.018  0.00  0.00    +0.090 C 
ATOM     32  C   UNL     1       1.270  -0.526  22.067  0.00  0.00    +0.090 C 
ENDBRANCH  29  30
ENDBRANCH  28  29
ENDBRANCH  27  28
ENDBRANCH   7  25
BRANCH   5   4
ATOM      4  C   UNL     1      -3.479  -1.330  24.434  0.00  0.00    +0.022 C 
BRANCH   4   2
ATOM      1  C   UNL     1      -3.238  -2.099  25.614  0.00  0.00    +0.000 C 
ATOM      2  C   UNL     1      -3.166  -2.001  24.798  0.00  0.00    +0.002 C 
ATOM      3  C   UNL     1      -2.781  -2.573  24.346  0.00  0.00    +0.000 C 
ENDBRANCH   4   2
ENDBRANCH   5   4
BRANCH  11  12
ATOM     12  C   UNL     1      -3.799   2.906  25.023  0.00  0.00    +0.133 C 
BRANCH  12  13
ATOM     13  C   UNL     1      -3.317   3.526  25.275  0.00  0.00    +0.003 A 
ATOM     14  C   UNL     1      -3.251   3.697  26.080  0.00  0.00    +0.018 A 
ATOM     15  C   UNL     1      -2.769   4.317  26.332  0.00  0.00    +0.099 A 
ATOM     16  N   UNL     1      -2.353   4.767  25.779  0.00  0.00    -0.242 NA
ATOM     17  C   UNL     1      -2.418   4.596  24.974  0.00  0.00    +0.099 A 
ATOM     18  C   UNL     1      -2.901   3.975  24.723  0.00  0.00    +0.018 A 
ENDBRANCH  12  13
ENDBRANCH  11  12
TORSDOF 8
ENDMDL
MODEL 2
REMARK VINA RESULT:     -10.6      1.133      3.845
REMARK  Name = 
REMARK  8 active torsions:
REMARK  status: ('A' for Active; 'I' for Inactive)
REMARK    1  A    between atoms: C_2  and  C_4
REMARK    2  A    between atoms: C_4  and  C_5
REMARK    3  A    between atoms: C_7  and  C_25
REMARK    4  A    between atoms: N_11  and  C_12
REMARK    5  A    between atoms: C_12  and  C_13
REMARK    6  A    between atoms: N_27  and  C_28
REMARK    7  A    between atoms: C_28  and  C_29
REMARK    8  A    between atoms: C_29  and  N_30
REMARK                            x       y       z     vdW  Elec       q    Type
REMARK                         _______ _______ _______ _____ _____    ______ ____
ROOT
ATOM      5  C   UNL     1      -2.010   2.414  24.603  0.00  0.00    +0.095 C 
ATOM      6  N   UNL     1      -1.257   2.099  24.485  0.00  0.00    -0.207 NA
ATOM      7  C   UNL     1      -1.033   1.306  24.433  0.00  0.00    +0.155 C 
ATOM      8  C   UNL     1      -1.507   0.633  24.486  0.00  0.00    +0.055 C 
ATOM      9  C   UNL     1      -2.323   0.586  24.604  0.00  0.00    -0.002 A 
ATOM     10  C   UNL     1      -2.736  -0.127  24.646  0.00  0.00    +0.072 A 
ATOM     11  N   UNL     1      -3.533   0.048  24.767  0.00  0.00    -0.322 N 
ATOM     19  C   UNL     1      -3.613   0.868  24.799  0.00  0.00    +0.060 A 
ATOM     20  C   UNL     1      -2.865   1.201  24.698  0.00  0.00    +0.011 A 
ATOM     21  C   UNL     1      -2.726   2.014  24.698  0.00  0.00    -0.005 A 
ATOM     22  C   UNL     1      -3.432   2.508  24.813  0.00  0.00    -0.003 A 
ATOM     23  C   UNL     1      -4.179   2.175  24.914  0.00  0.00    +0.001 A 
ATOM     24  C   UNL     1      -4.270   1.355  24.907  0.00  0.00    +0.017 A 
ENDROOT
BRANCH   7  25
ATOM     25  C   UNL     1      -0.228   1.168  24.312  0.00  0.00    +0.258 C 
ATOM     26  O   UNL     1       0.319   1.386  24.890  0.00  0.00    -0.272 OA
ATOM     27  N   UNL     1       0.028   0.812  23.613  0.00  0.00    -0.203 NA
BRANCH  27  28
ATOM     28  C   UNL     1       0.833   0.674  23.493  0.00  0.00    +0.132 C 
BRANCH  28  29
ATOM     29  C   UNL     1       1.079  -0.011  23.104  0.00  0.00    +0.096 C 
BRANCH  29  30
ATOM     30  N   UNL     1       1.734   0.014  22.601  0.00  0.00    -0.269 NA
ATOM     31  C   UNL     1       1.664  -0.244  21.821  0.00  0.00    +0.090 C 
ATOM     32  C   UNL     1       2.457   0.297  22.879  0.00  0.00    +0.090 C 
ENDBRANCH  29  30
ENDBRANCH  28  29
ENDBRANCH  27  28
ENDBRANCH   7  25
BRANCH   5   4
ATOM      4  C   UNL     1      -2.053   3.237  24.629  0.00  0.00    +0.022 C 
BRANCH   4   2
ATOM      1  C   UNL     1      -0.906   4.088  24.622  0.00  0.00    +0.000 C 
ATOM      2  C   UNL     1      -1.480   3.667  25.038  0.00  0.00    +0.002 C 
ATOM      3  C   UNL     1      -1.483   3.677  25.862  0.00  0.00    +0.000 C 
ENDBRANCH   4   2
ENDBRANCH   5   4
BRANCH  11  12
ATOM     12  C   UNL     1      -4.143  -0.502  24.843  0.00  0.00    +0.133 C 
BRANCH  12  13
ATOM     13  C   UNL     1      -4.006  -1.297  24.669  0.00  0.00    +0.003 A 
ATOM     14  C   UNL     1      -3.635  -1.783  25.223  0.00  0.00    +0.018 A 
ATOM     15  C   UNL     1      -3.498  -2.577  25.049  0.00  0.00    +0.099 A 
ATOM     16  N   UNL     1      -3.731  -2.886  24.320  0.00  0.00    -0.242 NA
ATOM     17  C   UNL     1      -4.102  -2.400  23.765  0.00  0.00    +0.099 A 
ATOM     18  C   UNL     1      -4.239  -1.605  23.940  0.00  0.00    +0.018 A 
ENDBRANCH  12  13
ENDBRANCH  11  12
TORSDOF 8
ENDMDL
MODEL 3
REMARK VINA RESULT:     -10.6      1.972      3.760
REMARK  Name = 
REMARK  8 active torsions:
REMARK  status: ('A' for Active; 'I' for Inactive)
REMARK    1  A    between atoms: C_2  and  C_4
REMARK    2  A    between atoms: C_4  and  C_5
REMARK    3  A    between atoms: C_7  and  C_25
REMARK    4  A    between atoms: N_11  and  C_12
REMARK    5  A    between atoms: C_12  and  C_13
REMARK    6  A    between atoms: N_27  and  C_28
REMARK    7  A    between atoms: C_28  and  C_29
REMARK    8  A    between atoms: C_29  and  N_30
REMARK                            x       y       z     vdW  Elec       q    Type
REMARK                         _______ _______ _______ _____ _____    ______ ____
ROOT
ATOM      5  C   UNL     1      -4.801   2.168  24.914  0.00  0.00    +0.095 C 
ATOM      6  N   UNL     1      -4.678   1.394  24.657  0.00  0.00    -0.207 NA
ATOM      7  C   UNL     1      -3.964   1.004  24.520  0.00  0.00    +0.155 C 
ATOM      8  C   UNL     1      -3.196   1.292  24.607  0.00  0.00    +0.055 C 
ATOM      9  C   UNL     1      -2.952   2.042  24.852  0.00  0.00    -0.002 A 
ATOM     10  C   UNL     1      -2.160   2.264  24.916  0.00  0.00    +0.072 A 
ATOM     11  N   UNL     1      -2.136   3.047  25.175  0.00  0.00    -0.322 N 
ATOM     19  C   UNL     1      -2.911   3.309  25.270  0.00  0.00    +0.060 A 
ATOM     20  C   UNL     1      -3.416   2.687  25.070  0.00  0.00    +0.011 A 
ATOM     21  C   UNL     1      -4.239   2.744  25.098  0.00  0.00    -0.005 A 
ATOM     22  C   UNL     1      -4.546   3.515  25.356  0.00  0.00    -0.003 A 
ATOM     23  C   UNL     1      -4.041   4.135  25.556  0.00  0.00    +0.001 A 
ATOM     24  C   UNL     1      -3.224   4.032  25.513  0.00  0.00    +0.017 A 
ENDROOT
BRANCH   7  25
ATOM     25  C   UNL     1      -4.025   0.223  24.262  0.00  0.00    +0.258 C 
ATOM     26  O   UNL     1      -4.263   0.061  23.489  0.00  0.00    -0.272 OA
ATOM     27  N   UNL     1      -3.849  -0.396  24.778  0.00  0.00    -0.203 NA
BRANCH  27  28
ATOM     28  C   UNL     1      -3.911  -1.178  24.520  0.00  0.00    +0.132 C 
BRANCH  28  29
ATOM     29  C   UNL     1      -3.635  -1.792  24.997  0.00  0.00    +0.096 C 
BRANCH  29  30
ATOM     30  N   UNL     1      -3.361  -2.491  24.652  0.00  0.00    -0.269 NA
ATOM     31  C   UNL     1      -3.894  -3.009  24.295  0.00  0.00    +0.090 C 
ATOM     32  C   UNL     1      -2.556  -2.669  24.666  0.00  0.00    +0.090 C 
ENDBRANCH  29  30
ENDBRANCH  28  29
ENDBRANCH  27  28
ENDBRANCH   7  25
BRANCH   5   4
ATOM      4  C   UNL     1      -5.588   2.397  24.998  0.00  0.00    +0.022 C 
BRANCH   4   2
ATOM      1  C   UNL     1      -6.162   1.666  26.084  0.00  0.00    +0.000 C 
ATOM      2  C   UNL     1      -6.146   1.859  25.282  0.00  0.00    +0.002 C 
ATOM      3  C   UNL     1      -6.688   1.515  24.764  0.00  0.00    +0.000 C 
ENDBRANCH   4   2
ENDBRANCH   5   4
BRANCH  11  12
ATOM     12  C   UNL     1      -1.453   3.490  25.314  0.00  0.00    +0.133 C 
BRANCH  12  13
ATOM     13  C   UNL     1      -0.736   3.108  25.456  0.00  0.00    +0.003 A 
ATOM     14  C   UNL     1      -0.233   2.927  24.828  0.00  0.00    +0.018 A 
ATOM     15  C   UNL     1       0.484   2.546  24.970  0.00  0.00    +0.099 A 
ATOM     16  N   UNL     1       0.699   2.345  25.742  0.00  0.00    -0.242 NA
ATOM     17  C   UNL     1       0.196   2.526  26.371  0.00  0.00    +0.099 A 
ATOM     18  C   UNL     1      -0.522   2.908  26.227  0.00  0.00    +0.018 A 
ENDBRANCH  12  13
ENDBRANCH  11  12
TORSDOF 8
ENDMDL
MODEL 4
REMARK VINA RESULT:      -9.9      1.703      3.624
REMARK  Name = 
REMARK  8 active torsions:
REMARK  status: ('A' for Active; 'I' for Inactive)
REMARK    1  A    between atoms: C_2  and  C_4
REMARK    2  A    between atoms: C_4  and  C_5
REMARK    3  A    between atoms: C_7  and  C_25
REMARK    4  A    between atoms: N_11  and  C_12
REMARK    5  A    between atoms: C_12  and  C_13
REMARK    6  A    between atoms: N_27  and  C_28
REMARK    7  A    between atoms: C_28  and  C_29
REMARK    8  A    between atoms: C_29  and  N_30
REMARK                            x       y       z     vdW  Elec       q    Type
REMARK                         _______ _______ _______ _____ _____    ______ ____
ROOT
ATOM      5  C   UNL     1      -1.244   2.621  25.214  0.00  0.00    +0.095 C 
ATOM      6  N   UNL     1      -1.167   1.854  24.922  0.00  0.00    -0.207 NA
ATOM      7  C   UNL     1      -1.759   1.341  24.663  0.00  0.00    +0.155 C 
ATOM      8  C   UNL     1      -2.573   1.468  24.631  0.00  0.00    +0.055 C 
ATOM      9  C   UNL     1      -2.998   2.140  24.852  0.00  0.00    -0.002 A 
ATOM     10  C   UNL     1      -3.818   2.199  24.794  0.00  0.00    +0.072 A 
ATOM     11  N   UNL     1      -4.039   2.947  25.064  0.00  0.00    -0.322 N 
ATOM     19  C   UNL     1      -3.356   3.350  25.290  0.00  0.00    +0.060 A 
ATOM     20  C   UNL     1      -2.712   2.851  25.159  0.00  0.00    +0.011 A 
ATOM     21  C   UNL     1      -1.931   3.066  25.320  0.00  0.00    -0.005 A 
ATOM     22  C   UNL     1      -1.829   3.866  25.643  0.00  0.00    -0.003 A 
ATOM     23  C   UNL     1      -2.473   4.363  25.774  0.00  0.00    +0.001 A 
ATOM     24  C   UNL     1      -3.237   4.105  25.597  0.00  0.00    +0.017 A 
ENDROOT
BRANCH   7  25
ATOM     25  C   UNL     1      -1.502   0.602  24.399  0.00  0.00    +0.258 C 
ATOM     26  O   UNL     1      -1.063   0.541  23.703  0.00  0.00    -0.272 OA
ATOM     27  N   UNL     1      -1.685  -0.076  24.832  0.00  0.00    -0.203 NA
BRANCH  27  28
ATOM     28  C   UNL     1      -1.428  -0.815  24.568  0.00  0.00    +0.132 C 
BRANCH  28  29
ATOM     29  C   UNL     1      -1.586  -1.490  25.016  0.00  0.00    +0.096 C 
BRANCH  29  30
ATOM     30  N   UNL     1      -1.754  -2.205  24.639  0.00  0.00    -0.269 NA
ATOM     31  C   UNL     1      -1.145  -2.640  24.291  0.00  0.00    +0.090 C 
ATOM     32  C   UNL     1      -2.530  -2.484  24.610  0.00  0.00    +0.090 C 
ENDBRANCH  29  30
ENDBRANCH  28  29
ENDBRANCH  27  28
ENDBRANCH   7  25
BRANCH   5   4
ATOM      4  C   UNL     1      -0.541   2.994  25.430  0.00  0.00    +0.022 C 
BRANCH   4   2
ATOM      1  C   UNL     1       0.095   2.376  26.551  0.00  0.00    +0.000 C 
ATOM      2  C   UNL     1       0.081   2.553  25.745  0.00  0.00    +0.002 C 
ATOM      3  C   UNL     1       0.688   2.287  25.254  0.00  0.00    +0.000 C 
ENDBRANCH   4   2
ENDBRANCH   5   4
BRANCH  11  12
ATOM     12  C   UNL     1      -4.810   3.240  25.102  0.00  0.00    +0.133 C 
BRANCH  12  13
ATOM     13  C   UNL     1      -5.431   2.739  25.308  0.00  0.00    +0.003 A 
ATOM     14  C   UNL     1      -5.833   2.317  24.724  0.00  0.00    +0.018 A 
ATOM     15  C   UNL     1      -6.455   1.816  24.930  0.00  0.00    +0.099 A 
ATOM     16  N   UNL     1      -6.675   1.736  25.721  0.00  0.00    -0.242 NA
ATOM     17  C   UNL     1      -6.274   2.157  26.306  0.00  0.00    +0.099 A 
ATOM     18  C   UNL     1      -5.652   2.659  26.099  0.00  0.00    +0.018 A 
ENDBRANCH  12  13
ENDBRANCH  11  12
TORSDOF 8
ENDMDL
MODEL 5
REMARK VINA RESULT:      -9.8      1.763      5.438
REMARK  Name = 
REMARK  8 active torsions:
REMARK  status: ('A' for Active; 'I' for Inactive)
REMARK    1  A    between atoms: C_2  and  C_4
REMARK    2  A    between atoms: C_4  and  C_5
REMARK    3  A    between atoms: C_7  and  C_25
REMARK    4  A    between atoms: N_11  and  C_12
REMARK    5  A    between atoms: C_12  and  C_13
REMARK    6  A    between atoms: N_27  and  C_28
REMARK    7  A    between atoms: C_28  and  C_29
REMARK    8  A    between atoms: C_29  and  N_30
REMARK                            x       y       z     vdW  Elec       q    Type
REMARK                         _______ _______ _______ _____ _____    ______ ____
ROOT
ATOM      5  C   UNL     1      -1.214   2.098  24.376  0.00  0.00    +0.095 C 
ATOM      6  N   UNL     1      -1.974   2.420  24.354  0.00  0.00    -0.207 NA
ATOM      7  C   UNL     1      -2.699   2.026  24.341  0.00  0.00    +0.155 C 
ATOM      8  C   UNL     1      -2.844   1.214  24.347  0.00  0.00    +0.055 C 
ATOM      9  C   UNL     1      -2.300   0.594  24.367  0.00  0.00    -0.002 A 
ATOM     10  C   UNL     1      -2.517  -0.201  24.371  0.00  0.00    +0.072 A 
ATOM     11  N   UNL     1      -1.826  -0.653  24.393  0.00  0.00    -0.322 N 
ATOM     19  C   UNL     1      -1.183  -0.137  24.403  0.00  0.00    +0.060 A 
ATOM     20  C   UNL     1      -1.476   0.634  24.387  0.00  0.00    +0.011 A 
ATOM     21  C   UNL     1      -0.993   1.303  24.391  0.00  0.00    -0.005 A 
ATOM     22  C   UNL     1      -0.139   1.141  24.413  0.00  0.00    -0.003 A 
ATOM     23  C   UNL     1       0.152   0.370  24.429  0.00  0.00    +0.001 A 
ATOM     24  C   UNL     1      -0.370  -0.269  24.424  0.00  0.00    +0.017 A 
ENDROOT
BRANCH   7  25
ATOM     25  C   UNL     1      -3.368   2.509  24.320  0.00  0.00    +0.258 C 
ATOM     26  O   UNL     1      -3.608   2.850  23.608  0.00  0.00    -0.272 OA
ATOM     27  N   UNL     1      -3.797   2.650  25.010  0.00  0.00    -0.203 NA
BRANCH  27  28
ATOM     28  C   UNL     1      -4.466   3.133  24.989  0.00  0.00    +0.132 C 
BRANCH  28  29
ATOM     29  C   UNL     1      -4.816   3.384  25.693  0.00  0.00    +0.096 C 
BRANCH  29  30
ATOM     30  N   UNL     1      -5.632   3.504  25.728  0.00  0.00    -0.269 NA
ATOM     31  C   UNL     1      -5.943   4.257  25.600  0.00  0.00    +0.090 C 
ATOM     32  C   UNL     1      -6.135   2.871  25.890  0.00  0.00    +0.090 C 
ENDBRANCH  29  30
ENDBRANCH  28  29
ENDBRANCH  27  28
ENDBRANCH   7  25
BRANCH   5   4
ATOM      4  C   UNL     1      -0.595   2.642  24.385  0.00  0.00    +0.022 C 
BRANCH   4   2
ATOM      1  C   UNL     1      -0.610   3.281  25.663  0.00  0.00    +0.000 C 
ATOM      2  C   UNL     1      -0.654   3.327  24.841  0.00  0.00    +0.002 C 
ATOM      3  C   UNL     1      -0.757   4.059  24.474  0.00  0.00    +0.000 C 
ENDBRANCH   4   2
ENDBRANCH   5   4
BRANCH  11  12
ATOM     12  C   UNL     1      -1.788  -1.477  24.404  0.00  0.00    +0.133 C 
BRANCH  12  13
ATOM     13  C   UNL     1      -2.452  -1.919  24.613  0.00  0.00    +0.003 A 
ATOM     14  C   UNL     1      -2.640  -2.030  25.409  0.00  0.00    +0.018 A 
ATOM     15  C   UNL     1      -3.304  -2.471  25.619  0.00  0.00    +0.099 A 
ATOM     16  N   UNL     1      -3.781  -2.802  25.032  0.00  0.00    -0.242 NA
ATOM     17  C   UNL     1      -3.594  -2.691  24.236  0.00  0.00    +0.099 A 
ATOM     18  C   UNL     1      -2.929  -2.249  24.027  0.00  0.00    +0.018 A 
ENDBRANCH  12  13
ENDBRANCH  11  12
TORSDOF 8
ENDMDL
MODEL 6
REMARK VINA RESULT:      -9.7      1.566      4.419
REMARK  Name = 
REMARK  8 active torsions:
REMARK  status: ('A' for Active; 'I' for Inactive)
REMARK    1  A    between atoms: C_2  and  C_4
REMARK    2  A    between atoms: C_4  and  C_5
REMARK    3  A    between atoms: C_7  and  C_25
REMARK    4  A    between atoms: N_11  and  C_12
REMARK    5  A    between atoms: C_12  and  C_13
REMARK    6  A    between atoms: N_27  and  C_28
REMARK    7  A    between atoms: C_28  and  C_29
REMARK    8  A    between atoms: C_29  and  N_30
REMARK                            x       y       z     vdW  Elec       q    Type
REMARK                         _______ _______ _______ _____ _____    ______ ____
ROOT
ATOM      5  C   UNL     1      -4.686   1.356  24.700  0.00  0.00    +0.095 C 
ATOM      6  N   UNL     1      -4.267   2.060  24.606  0.00  0.00    -0.207 NA
ATOM      7  C   UNL     1      -3.467   2.163  24.431  0.00  0.00    +0.155 C 
ATOM      8  C   UNL     1      -2.889   1.587  24.306  0.00  0.00    +0.055 C 
ATOM      9  C   UNL     1      -2.969   0.766  24.325  0.00  0.00    -0.002 A 
ATOM     10  C   UNL     1      -2.343   0.245  24.190  0.00  0.00    +0.072 A 
ATOM     11  N   UNL     1      -2.634  -0.524  24.255  0.00  0.00    -0.322 N 
ATOM     19  C   UNL     1      -3.439  -0.479  24.432  0.00  0.00    +0.060 A 
ATOM     20  C   UNL     1      -3.646   0.318  24.475  0.00  0.00    +0.011 A 
ATOM     21  C   UNL     1      -4.410   0.580  24.642  0.00  0.00    -0.005 A 
ATOM     22  C   UNL     1      -4.995  -0.049  24.772  0.00  0.00    -0.003 A 
ATOM     23  C   UNL     1      -4.787  -0.846  24.728  0.00  0.00    +0.001 A 
ATOM     24  C   UNL     1      -4.009  -1.061  24.558  0.00  0.00    +0.017 A 
ENDROOT
BRANCH   7  25
ATOM     25  C   UNL     1      -3.210   2.945  24.373  0.00  0.00    +0.258 C 
ATOM     26  O   UNL     1      -3.478   3.422  23.755  0.00  0.00    -0.272 OA
ATOM     27  N   UNL     1      -2.687   3.250  24.933  0.00  0.00    -0.203 NA
BRANCH  27  28
ATOM     28  C   UNL     1      -2.430   4.032  24.874  0.00  0.00    +0.132 C 
BRANCH  28  29
ATOM     29  C   UNL     1      -1.853   4.316  25.391  0.00  0.00    +0.096 C 
BRANCH  29  30
ATOM     30  N   UNL     1      -1.339   4.914  25.146  0.00  0.00    -0.269 NA
ATOM     31  C   UNL     1      -0.563   4.729  24.935  0.00  0.00    +0.090 C 
ATOM     32  C   UNL     1      -1.601   5.695  25.112  0.00  0.00    +0.090 C 
ENDBRANCH  29  30
ENDBRANCH  28  29
ENDBRANCH  27  28
ENDBRANCH   7  25
BRANCH   5   4
ATOM      4  C   UNL     1      -5.488   1.438  24.876  0.00  0.00    +0.022 C 
BRANCH   4   2
ATOM      1  C   UNL     1      -5.665   2.008  26.174  0.00  0.00    +0.000 C 
ATOM      2  C   UNL     1      -5.744   2.059  25.355  0.00  0.00    +0.002 C 
ATOM      3  C   UNL     1      -6.080   2.730  25.014  0.00  0.00    +0.000 C 
ENDBRANCH   4   2
ENDBRANCH   5   4
BRANCH  11  12
ATOM     12  C   UNL     1      -2.196  -1.217  24.161  0.00  0.00    +0.133 C 
BRANCH  12  13
ATOM     13  C   UNL     1      -1.423  -1.258  24.447  0.00  0.00    +0.003 A 
ATOM     14  C   UNL     1      -1.279  -1.539  25.208  0.00  0.00    +0.018 A 
ATOM     15  C   UNL     1      -0.506  -1.580  25.494  0.00  0.00    +0.099 A 
ATOM     16  N   UNL     1       0.123  -1.340  25.017  0.00  0.00    -0.242 NA
ATOM     17  C   UNL     1      -0.021  -1.058  24.255  0.00  0.00    +0.099 A 
ATOM     18  C   UNL     1      -0.794  -1.017  23.970  0.00  0.00    +0.018 A 
ENDBRANCH  12  13
ENDBRANCH  11  12
TORSDOF 8
ENDMDL
MODEL 7
REMARK VINA RESULT:      -9.6      1.847      4.086
REMARK  Name = 
REMARK  8 active torsions:
REMARK  status: ('A' for Active; 'I' for Inactive)
REMARK    1  A    between atoms: C_2  and  C_4
REMARK    2  A    between atoms: C_4  and  C_5
REMARK    3  A    between atoms: C_7  and  C_25
REMARK    4  A    between atoms: N_11  and  C_12
REMARK    5  A    between atoms: C_12  and  C_13
REMARK    6  A    between atoms: N_27  and  C_28
REMARK    7  A    between atoms: C_28  and  C_29
REMARK    8  A    between atoms: C_29  and  N_30
REMARK                            x       y       z     vdW  Elec       q    Type
REMARK                         _______ _______ _______ _____ _____    ______ ____
ROOT
ATOM      5  C   UNL     1      -2.530  -1.328  24.522  0.00  0.00    +0.095 C 
ATOM      6  N   UNL     1      -3.244  -0.915  24.499  0.00  0.00    -0.207 NA
ATOM      7  C   UNL     1      -3.366  -0.099  24.496  0.00  0.00    +0.155 C 
ATOM      8  C   UNL     1      -2.805   0.506  24.516  0.00  0.00    +0.055 C 
ATOM      9  C   UNL     1      -1.982   0.443  24.544  0.00  0.00    -0.002 A 
ATOM     10  C   UNL     1      -1.477   1.095  24.562  0.00  0.00    +0.072 A 
ATOM     11  N   UNL     1      -0.702   0.815  24.587  0.00  0.00    -0.322 N 
ATOM     19  C   UNL     1      -0.727  -0.009  24.585  0.00  0.00    +0.060 A 
ATOM     20  C   UNL     1      -1.519  -0.239  24.558  0.00  0.00    +0.011 A 
ATOM     21  C   UNL     1      -1.762  -1.027  24.549  0.00  0.00    -0.005 A 
ATOM     22  C   UNL     1      -1.119  -1.611  24.569  0.00  0.00    -0.003 A 
ATOM     23  C   UNL     1      -0.328  -1.380  24.596  0.00  0.00    +0.001 A 
ATOM     24  C   UNL     1      -0.132  -0.579  24.604  0.00  0.00    +0.017 A 
ENDROOT
BRANCH   7  25
ATOM     25  C   UNL     1      -4.154   0.146  24.470  0.00  0.00    +0.258 C 
ATOM     26  O   UNL     1      -4.660  -0.153  23.891  0.00  0.00    -0.272 OA
ATOM     27  N   UNL     1      -4.435   0.688  25.024  0.00  0.00    -0.203 NA
BRANCH  27  28
ATOM     28  C   UNL     1      -5.224   0.933  24.998  0.00  0.00    +0.132 C 
BRANCH  28  29
ATOM     29  C   UNL     1      -5.525   1.415  25.595  0.00  0.00    +0.096 C 
BRANCH  29  30
ATOM     30  N   UNL     1      -5.955   2.092  25.400  0.00  0.00    -0.269 NA
ATOM     31  C   UNL     1      -5.674   2.836  25.619  0.00  0.00    +0.090 C 
ATOM     32  C   UNL     1      -6.666   2.025  24.986  0.00  0.00    +0.090 C 
ENDBRANCH  29  30
ENDBRANCH  28  29
ENDBRANCH  27  28
ENDBRANCH   7  25
BRANCH   5   4
ATOM      4  C   UNL     1      -2.593  -2.150  24.519  0.00  0.00    +0.022 C 
BRANCH   4   2
ATOM      1  C   UNL     1      -3.358  -2.572  25.649  0.00  0.00    +0.000 C 
ATOM      2  C   UNL     1      -3.263  -2.515  24.832  0.00  0.00    +0.002 C 
ATOM      3  C   UNL     1      -3.839  -2.821  24.327  0.00  0.00    +0.000 C 
ENDBRANCH   4   2
ENDBRANCH   5   4
BRANCH  11  12
ATOM     12  C   UNL     1      -0.020   1.280  24.611  0.00  0.00    +0.133 C 
BRANCH  12  13
ATOM     13  C   UNL     1      -0.057   2.051  24.900  0.00  0.00    +0.003 A 
ATOM     14  C   UNL     1      -0.182   2.681  24.383  0.00  0.00    +0.018 A 
ATOM     15  C   UNL     1      -0.218   3.453  24.672  0.00  0.00    +0.099 A 
ATOM     16  N   UNL     1      -0.130   3.594  25.481  0.00  0.00    -0.242 NA
ATOM     17  C   UNL     1      -0.005   2.965  25.999  0.00  0.00    +0.099 A 
ATOM     18  C   UNL     1       0.031   2.193  25.709  0.00  0.00    +0.018 A 
ENDBRANCH  12  13
ENDBRANCH  11  12
TORSDOF 8
ENDMDL
MODEL 8
REMARK VINA RESULT:      -9.4      1.709      4.198
REMARK  Name = 
REMARK  8 active torsions:
REMARK  status: ('A' for Active; 'I' for Inactive)
REMARK    1  A    between atoms: C_2  and  C_4
REMARK    2  A    between atoms: C_4  and  C_5
REMARK    3  A    between atoms: C_7  and  C_25
REMARK    4  A    between atoms: N_11  and  C_12
REMARK    5  A    between atoms: C_12  and  C_13
REMARK    6  A    between atoms: N_27  and  C_28
REMARK    7  A    between atoms: C_28  and  C_29
REMARK    8  A    between atoms: C_29  and  N_30
REMARK                            x       y       z     vdW  Elec       q    Type
REMARK                         _______ _______ _______ _____ _____    ______ ____
ROOT
ATOM      5  C   UNL     1      -4.040   2.589  24.523  0.00  0.00    +0.095 C 
ATOM      6  N   UNL     1      -3.282   2.650  24.202  0.00  0.00    -0.207 NA
ATOM      7  C   UNL     1      -2.784   2.045  23.943  0.00  0.00    +0.155 C 
ATOM      8  C   UNL     1      -2.920   1.231  23.940  0.00  0.00    +0.055 C 
ATOM      9  C   UNL     1      -3.589   0.821  24.196  0.00  0.00    -0.002 A 
ATOM     10  C   UNL     1      -3.657  -0.001  24.164  0.00  0.00    +0.072 A 
ATOM     11  N   UNL     1      -4.397  -0.206  24.467  0.00  0.00    -0.322 N 
ATOM     19  C   UNL     1      -4.786   0.488  24.685  0.00  0.00    +0.060 A 
ATOM     20  C   UNL     1      -4.285   1.123  24.518  0.00  0.00    +0.011 A 
ATOM     21  C   UNL     1      -4.487   1.910  24.664  0.00  0.00    -0.005 A 
ATOM     22  C   UNL     1      -5.274   2.030  25.011  0.00  0.00    -0.003 A 
ATOM     23  C   UNL     1      -5.773   1.395  25.177  0.00  0.00    +0.001 A 
ATOM     24  C   UNL     1      -5.529   0.624  25.015  0.00  0.00    +0.017 A 
ENDROOT
BRANCH   7  25
ATOM     25  C   UNL     1      -2.052   2.286  23.647  0.00  0.00    +0.258 C 
ATOM     26  O   UNL     1      -1.984   2.528  22.861  0.00  0.00    -0.272 OA
ATOM     27  N   UNL     1      -1.389   2.285  24.137  0.00  0.00    -0.203 NA
BRANCH  27  28
ATOM     28  C   UNL     1      -0.657   2.526  23.841  0.00  0.00    +0.132 C 
BRANCH  28  29
ATOM     29  C   UNL     1      -0.071   2.792  24.357  0.00  0.00    +0.096 C 
BRANCH  29  30
ATOM     30  N   UNL     1       0.476   2.259  24.670  0.00  0.00    -0.269 NA
ATOM     31  C   UNL     1       0.545   2.171  25.487  0.00  0.00    +0.090 C 
ATOM     32  C   UNL     1       0.954   1.815  24.165  0.00  0.00    +0.090 C 
ENDBRANCH  29  30
ENDBRANCH  28  29
ENDBRANCH  27  28
ENDBRANCH   7  25
BRANCH   5   4
ATOM      4  C   UNL     1      -4.398   3.302  24.730  0.00  0.00    +0.022 C 
BRANCH   4   2
ATOM      1  C   UNL     1      -3.685   3.886  25.823  0.00  0.00    +0.000 C 
ATOM      2  C   UNL     1      -3.944   3.918  25.040  0.00  0.00    +0.002 C 
ATOM      3  C   UNL     1      -3.750   4.564  24.567  0.00  0.00    +0.000 C 
ENDBRANCH   4   2
ENDBRANCH   5   4
BRANCH  11  12
ATOM     12  C   UNL     1      -4.696  -0.972  24.537  0.00  0.00    +0.133 C 
BRANCH  12  13
ATOM     13  C   UNL     1      -4.181  -1.616  24.546  0.00  0.00    +0.003 A 
ATOM     14  C   UNL     1      -3.734  -1.778  25.220  0.00  0.00    +0.018 A 
ATOM     15  C   UNL     1      -3.219  -2.422  25.229  0.00  0.00    +0.099 A 
ATOM     16  N   UNL     1      -3.151  -2.905  24.562  0.00  0.00    -0.242 NA
ATOM     17  C   UNL     1      -3.597  -2.743  23.888  0.00  0.00    +0.099 A 
ATOM     18  C   UNL     1      -4.113  -2.098  23.880  0.00  0.00    +0.018 A 
ENDBRANCH  12  13
ENDBRANCH  11  12
TORSDOF 8
ENDMDL
MODEL 9
REMARK VINA RESULT:      -8.9      1.395      3.485
REMARK  Name = 
REMARK  8 active torsions:
REMARK  status: ('A' for Active; 'I' for Inactive)
REMARK    1  A    between atoms: C_2  and  C_4
REMARK    2  A    between atoms: C_4  and  C_5
REMARK    3  A    between atoms: C_7  and  C_25
REMARK    4  A    between atoms: N_11  and  C_12
REMARK    5  A    between atoms: C_12  and  C_13
REMARK    6  A    between atoms: N_27  and  C_28
REMARK    7  A    between atoms: C_28  and  C_29
REMARK    8  A    between atoms: C_29  and  N_30
REMARK                            x       y       z     vdW  Elec       q    Type
REMARK                         _______ _______ _______ _____ _____    ______ ____
ROOT
ATOM      5  C   UNL     1      -0.343   0.987  24.365  0.00  0.00    +0.095 C 
ATOM      6  N   UNL     1      -0.754   0.313  24.607  0.00  0.00    -0.207 NA
ATOM      7  C   UNL     1      -1.498   0.264  24.961  0.00  0.00    +0.155 C 
ATOM      8  C   UNL     1      -2.014   0.876  25.161  0.00  0.00    +0.055 C 
ATOM      9  C   UNL     1      -1.914   1.688  25.057  0.00  0.00    -0.002 A 
ATOM     10  C   UNL     1      -2.476   2.248  25.283  0.00  0.00    +0.072 A 
ATOM     11  N   UNL     1      -2.182   2.995  25.091  0.00  0.00    -0.322 N 
ATOM     19  C   UNL     1      -1.439   2.897  24.747  0.00  0.00    +0.060 A 
ATOM     20  C   UNL     1      -1.273   2.089  24.726  0.00  0.00    +0.011 A 
ATOM     21  C   UNL     1      -0.574   1.777  24.418  0.00  0.00    -0.005 A 
ATOM     22  C   UNL     1      -0.012   2.365  24.112  0.00  0.00    -0.003 A 
ATOM     23  C   UNL     1      -0.178   3.172  24.133  0.00  0.00    +0.001 A 
ATOM     24  C   UNL     1      -0.892   3.438  24.451  0.00  0.00    +0.017 A 
ENDROOT
BRANCH   7  25
ATOM     25  C   UNL     1      -1.760  -0.498  25.139  0.00  0.00    +0.258 C 
ATOM     26  O   UNL     1      -1.496  -0.877  25.822  0.00  0.00    -0.272 OA
ATOM     27  N   UNL     1      -2.287  -0.880  24.633  0.00  0.00    -0.203 NA
BRANCH  27  28
ATOM     28  C   UNL     1      -2.550  -1.643  24.810  0.00  0.00    +0.132 C 
BRANCH  28  29
ATOM     29  C   UNL     1      -2.820  -2.136  24.207  0.00  0.00    +0.096 C 
BRANCH  29  30
ATOM     30  N   UNL     1      -3.504  -2.586  24.317  0.00  0.00    -0.269 NA
ATOM     31  C   UNL     1      -4.212  -2.351  23.965  0.00  0.00    +0.090 C 
ATOM     32  C   UNL     1      -3.479  -3.269  24.779  0.00  0.00    +0.090 C 
ENDBRANCH  29  30
ENDBRANCH  28  29
ENDBRANCH  27  28
ENDBRANCH   7  25
BRANCH   5   4
ATOM      4  C   UNL     1       0.396   0.852  24.026  0.00  0.00    +0.022 C 
BRANCH   4   2
ATOM      1  C   UNL     1       0.221   0.228  22.752  0.00  0.00    +0.000 C 
ATOM      2  C   UNL     1       0.509   0.206  23.525  0.00  0.00    +0.002 C 
ATOM      3  C   UNL     1       0.910  -0.461  23.797  0.00  0.00    +0.000 C 
ENDBRANCH   4   2
ENDBRANCH   5   4
BRANCH  11  12
ATOM     12  C   UNL     1      -2.565   3.714  25.221  0.00  0.00    +0.133 C 
BRANCH  12  13
ATOM     13  C   UNL     1      -3.388   3.740  25.268  0.00  0.00    +0.003 A 
ATOM     14  C   UNL     1      -3.840   3.770  24.578  0.00  0.00    +0.018 A 
ATOM     15  C   UNL     1      -4.663   3.796  24.624  0.00  0.00    +0.099 A 
ATOM     16  N   UNL     1      -5.035   3.792  25.361  0.00  0.00    -0.242 NA
ATOM     17  C   UNL     1      -4.583   3.762  26.051  0.00  0.00    +0.099 A 
ATOM     18  C   UNL     1      -3.760   3.736  26.004  0.00  0.00    +0.018 A 
ENDBRANCH  12  13
ENDBRANCH  11  12
TORSDOF 8
ENDMDL
