MODEL 1
REMARK VINA RESULT:     -10.3      0.000      0.000
REMARK  Name = 
REMARK  7 active torsions:
REMARK  status: ('A' for Active; 'I' for Inactive)
REMARK    1  A    between atoms: O_2  and  C_3
REMARK    2  A    between atoms: C_6  and  C_9
REMARK    3  A    between atoms: N_11  and  C_12
REMARK    4  A    between atoms: C_12  and  C_13
REMARK    5  A    between atoms: C_16  and  N_17
REMARK    6  A    between atoms: N_17  and  C_18
REMARK    7  A    between atoms: C_18  and  C_19
REMARK                            x       y       z     vdW  Elec       q    Type
REMARK                         _______ _______ _______ _____ _____    ______ ____
ROOT
ATOM     13  C   UNL     1      -4.487   1.929  24.959  0.00  0.00    +0.169 C 
ATOM     14  O   UNL     1      -4.691   2.247  25.693  0.00  0.00    -0.350 OA
ATOM     15  C   UNL     1      -4.280   2.955  25.786  0.00  0.00    +0.162 C 
ATOM     16  C   UNL     1      -3.822   3.076  25.110  0.00  0.00    +0.135 C 
ATOM     26  C   UNL     1      -3.950   2.441  24.599  0.00  0.00    +0.199 C 
ATOM     27  O   UNL     1      -3.603   2.337  23.859  0.00  0.00    -0.219 OA
ENDROOT
BRANCH  13  12
ATOM     12  C   UNL     1      -4.771   1.222  24.642  0.00  0.00    +0.148 C 
BRANCH  12  11
ATOM      9  C   UNL     1      -4.662  -0.199  24.532  0.00  0.00    +0.265 C 
ATOM     10  O   UNL     1      -5.454  -0.243  24.310  0.00  0.00    -0.268 OA
ATOM     11  N   UNL     1      -4.319   0.534  24.698  0.00  0.00    -0.199 NA
BRANCH   9   6
ATOM      3  C   UNL     1      -3.306  -2.263  24.699  0.00  0.00    +0.139 A 
ATOM      4  C   UNL     1      -3.333  -1.735  25.333  0.00  0.00    +0.037 A 
ATOM      5  C   UNL     1      -3.785  -1.047  25.276  0.00  0.00    +0.008 A 
ATOM      6  C   UNL     1      -4.209  -0.887  24.588  0.00  0.00    +0.055 A 
ATOM      7  C   UNL     1      -4.182  -1.415  23.955  0.00  0.00    +0.008 A 
ATOM      8  C   UNL     1      -3.730  -2.103  24.010  0.00  0.00    +0.037 A 
BRANCH   3   2
ATOM      1  C   UNL     1      -2.055  -2.937  24.551  0.00  0.00    +0.252 C 
ATOM      2  O   UNL     1      -2.854  -2.951  24.754  0.00  0.00    -0.471 OA
ENDBRANCH   3   2
ENDBRANCH   9   6
ENDBRANCH  12  11
ENDBRANCH  13  12
BRANCH  16  17
ATOM     17  N   UNL     1      -3.323   3.718  24.970  0.00  0.00    -0.209 NA
BRANCH  17  18
ATOM     18  C   UNL     1      -2.790   3.961  25.552  0.00  0.00    +0.115 C 
BRANCH  18  19
ATOM     19  C   UNL     1      -2.114   4.384  25.340  0.00  0.00    -0.005 A 
ATOM     20  C   UNL     1      -2.161   5.197  25.208  0.00  0.00    -0.001 A 
ATOM     21  C   UNL     1      -1.485   5.619  24.997  0.00  0.00    +0.029 A 
ATOM     22  C   UNL     1      -0.762   5.229  24.917  0.00  0.00    +0.140 A 
ATOM     23  F   UNL     1      -0.085   5.651  24.705  0.00  0.00    -0.204 F 
ATOM     24  C   UNL     1      -0.716   4.416  25.049  0.00  0.00    +0.029 A 
ATOM     25  C   UNL     1      -1.392   3.994  25.261  0.00  0.00    -0.001 A 
ENDBRANCH  18  19
ENDBRANCH  17  18
ENDBRANCH  16  17
TORSDOF 7
ENDMDL
MODEL 2
REMARK VINA RESULT:     -10.2      2.173      2.924
REMARK  Name = 
REMARK  7 active torsions:
REMARK  status: ('A' for Active; 'I' for Inactive)
REMARK    1  A    between atoms: O_2  and  C_3
REMARK    2  A    between atoms: C_6  and  C_9
REMARK    3  A    between atoms: N_11  and  C_12
REMARK    4  A    between atoms: C_12  and  C_13
REMARK    5  A    between atoms: C_16  and  N_17
REMARK    6  A    between atoms: N_17  and  C_18
REMARK    7  A    between atoms: C_18  and  C_19
REMARK                            x       y       z     vdW  Elec       q    Type
REMARK                         _______ _______ _______ _____ _____    ______ ____
ROOT
ATOM     13  C   UNL     1      -0.432   0.530  24.759  0.00  0.00    +0.169 C 
ATOM     14  O   UNL     1      -0.206   0.746  23.996  0.00  0.00    -0.350 OA
ATOM     15  C   UNL     1      -0.168   1.569  23.965  0.00  0.00    +0.162 C 
ATOM     16  C   UNL     1      -0.371   1.862  24.709  0.00  0.00    +0.135 C 
ATOM     26  C   UNL     1      -0.535   1.220  25.200  0.00  0.00    +0.199 C 
ATOM     27  O   UNL     1      -0.761   1.261  25.992  0.00  0.00    -0.219 OA
ENDROOT
BRANCH  13  12
ATOM     12  C   UNL     1      -0.538  -0.241  25.034  0.00  0.00    +0.148 C 
BRANCH  12  11
ATOM      9  C   UNL     1      -1.306  -1.445  25.074  0.00  0.00    +0.265 C 
ATOM     10  O   UNL     1      -0.712  -1.810  25.514  0.00  0.00    -0.268 OA
ATOM     11  N   UNL     1      -1.219  -0.660  24.834  0.00  0.00    -0.199 NA
BRANCH   9   6
ATOM      3  C   UNL     1      -3.351  -2.703  24.471  0.00  0.00    +0.139 A 
ATOM      4  C   UNL     1      -3.399  -2.062  24.988  0.00  0.00    +0.037 A 
ATOM      5  C   UNL     1      -2.717  -1.643  25.189  0.00  0.00    +0.008 A 
ATOM      6  C   UNL     1      -1.988  -1.865  24.873  0.00  0.00    +0.055 A 
ATOM      7  C   UNL     1      -1.940  -2.506  24.356  0.00  0.00    +0.008 A 
ATOM      8  C   UNL     1      -2.621  -2.925  24.155  0.00  0.00    +0.037 A 
BRANCH   3   2
ATOM      1  C   UNL     1      -4.571  -2.803  23.736  0.00  0.00    +0.252 C 
ATOM      2  O   UNL     1      -4.032  -3.123  24.269  0.00  0.00    -0.471 OA
ENDBRANCH   3   2
ENDBRANCH   9   6
ENDBRANCH  12  11
ENDBRANCH  13  12
BRANCH  16  17
ATOM     17  N   UNL     1      -0.405   2.658  24.923  0.00  0.00    -0.209 NA
BRANCH  17  18
ATOM     18  C   UNL     1      -0.674   3.221  24.382  0.00  0.00    +0.115 C 
BRANCH  18  19
ATOM     19  C   UNL     1      -0.945   3.953  24.649  0.00  0.00    -0.005 A 
ATOM     20  C   UNL     1      -0.460   4.618  24.588  0.00  0.00    -0.001 A 
ATOM     21  C   UNL     1      -0.731   5.350  24.855  0.00  0.00    +0.029 A 
ATOM     22  C   UNL     1      -1.486   5.417  25.182  0.00  0.00    +0.140 A 
ATOM     23  F   UNL     1      -1.758   6.149  25.448  0.00  0.00    -0.204 F 
ATOM     24  C   UNL     1      -1.970   4.751  25.242  0.00  0.00    +0.029 A 
ATOM     25  C   UNL     1      -1.699   4.019  24.975  0.00  0.00    -0.001 A 
ENDBRANCH  18  19
ENDBRANCH  17  18
ENDBRANCH  16  17
TORSDOF 7
ENDMDL
MODEL 3
REMARK VINA RESULT:     -10.0      2.979      6.437
REMARK  Name = 
REMARK  7 active torsions:
REMARK  status: ('A' for Active; 'I' for Inactive)
REMARK    1  A    between atoms: O_2  and  C_3
REMARK    2  A    between atoms: C_6  and  C_9
REMARK    3  A    between atoms: N_11  and  C_12
REMARK    4  A    between atoms: C_12  and  C_13
REMARK    5  A    between atoms: C_16  and  N_17
REMARK    6  A    between atoms: N_17  and  C_18
REMARK    7  A    between atoms: C_18  and  C_19
REMARK                            x       y       z     vdW  Elec       q    Type
REMARK                         _______ _______ _______ _____ _____    ______ ____
ROOT
ATOM     13  C   UNL     1      -0.784   0.493  25.353  0.00  0.00    +0.169 C 
ATOM     14  O   UNL     1      -0.988   0.183  26.089  0.00  0.00    -0.350 OA
ATOM     15  C   UNL     1      -1.468  -0.476  25.963  0.00  0.00    +0.162 C 
ATOM     16  C   UNL     1      -1.560  -0.573  25.149  0.00  0.00    +0.135 C 
ATOM     26  C   UNL     1      -1.138   0.026  24.771  0.00  0.00    +0.199 C 
ATOM     27  O   UNL     1      -1.079   0.139  23.957  0.00  0.00    -0.219 OA
ENDROOT
BRANCH  13  12
ATOM     12  C   UNL     1      -0.309   1.155  25.220  0.00  0.00    +0.148 C 
BRANCH  12  11
ATOM      9  C   UNL     1      -0.192   2.577  25.303  0.00  0.00    +0.265 C 
ATOM     10  O   UNL     1       0.608   2.501  25.489  0.00  0.00    -0.268 OA
ATOM     11  N   UNL     1      -0.651   1.904  25.169  0.00  0.00    -0.199 NA
BRANCH   9   6
ATOM      3  C   UNL     1      -1.218   4.824  25.146  0.00  0.00    +0.139 A 
ATOM      4  C   UNL     1      -1.519   4.269  25.678  0.00  0.00    +0.037 A 
ATOM      5  C   UNL     1      -1.177   3.520  25.730  0.00  0.00    +0.008 A 
ATOM      6  C   UNL     1      -0.534   3.326  25.251  0.00  0.00    +0.055 A 
ATOM      7  C   UNL     1      -0.233   3.881  24.720  0.00  0.00    +0.008 A 
ATOM      8  C   UNL     1      -0.574   4.630  24.667  0.00  0.00    +0.037 A 
BRANCH   3   2
ATOM      1  C   UNL     1      -2.377   5.659  25.155  0.00  0.00    +0.252 C 
ATOM      2  O   UNL     1      -1.560   5.573  25.093  0.00  0.00    -0.471 OA
ENDBRANCH   3   2
ENDBRANCH   9   6
ENDBRANCH  12  11
ENDBRANCH  13  12
BRANCH  16  17
ATOM     17  N   UNL     1      -1.999  -1.165  24.777  0.00  0.00    -0.209 NA
BRANCH  17  18
ATOM     18  C   UNL     1      -2.688  -1.451  25.130  0.00  0.00    +0.115 C 
BRANCH  18  19
ATOM     19  C   UNL     1      -3.246  -1.854  24.677  0.00  0.00    -0.005 A 
ATOM     20  C   UNL     1      -3.192  -2.673  24.587  0.00  0.00    -0.001 A 
ATOM     21  C   UNL     1      -3.750  -3.076  24.133  0.00  0.00    +0.029 A 
ATOM     22  C   UNL     1      -4.364  -2.661  23.769  0.00  0.00    +0.140 A 
ATOM     23  F   UNL     1      -4.922  -3.064  23.315  0.00  0.00    -0.204 F 
ATOM     24  C   UNL     1      -4.417  -1.843  23.859  0.00  0.00    +0.029 A 
ATOM     25  C   UNL     1      -3.859  -1.440  24.312  0.00  0.00    -0.001 A 
ENDBRANCH  18  19
ENDBRANCH  17  18
ENDBRANCH  16  17
TORSDOF 7
ENDMDL
MODEL 4
REMARK VINA RESULT:      -9.4      3.951      5.018
REMARK  Name = 
REMARK  7 active torsions:
REMARK  status: ('A' for Active; 'I' for Inactive)
REMARK    1  A    between atoms: O_2  and  C_3
REMARK    2  A    between atoms: C_6  and  C_9
REMARK    3  A    between atoms: N_11  and  C_12
REMARK    4  A    between atoms: C_12  and  C_13
REMARK    5  A    between atoms: C_16  and  N_17
REMARK    6  A    between atoms: N_17  and  C_18
REMARK    7  A    between atoms: C_18  and  C_19
REMARK                            x       y       z     vdW  Elec       q    Type
REMARK                         _______ _______ _______ _____ _____    ______ ____
ROOT
ATOM     13  C   UNL     1      -1.310   0.912  23.841  0.00  0.00    +0.169 C 
ATOM     14  O   UNL     1      -1.404   1.529  23.302  0.00  0.00    -0.350 OA
ATOM     15  C   UNL     1      -2.068   1.963  23.525  0.00  0.00    +0.162 C 
ATOM     16  C   UNL     1      -2.385   1.615  24.202  0.00  0.00    +0.135 C 
ATOM     26  C   UNL     1      -1.917   0.965  24.398  0.00  0.00    +0.199 C 
ATOM     27  O   UNL     1      -2.033   0.458  25.037  0.00  0.00    -0.219 OA
ENDROOT
BRANCH  13  12
ATOM     12  C   UNL     1      -0.714   0.342  23.826  0.00  0.00    +0.148 C 
BRANCH  12  11
ATOM      9  C   UNL     1       0.601  -0.060  23.435  0.00  0.00    +0.265 C 
ATOM     10  O   UNL     1       0.428  -0.836  23.651  0.00  0.00    -0.268 OA
ATOM     11  N   UNL     1       0.029   0.530  23.522  0.00  0.00    -0.199 NA
BRANCH   9   6
ATOM      3  C   UNL     1       2.831   0.505  22.521  0.00  0.00    +0.139 A 
ATOM      4  C   UNL     1       2.552   0.890  23.196  0.00  0.00    +0.037 A 
ATOM      5  C   UNL     1       1.809   0.701  23.500  0.00  0.00    +0.008 A 
ATOM      6  C   UNL     1       1.344   0.129  23.131  0.00  0.00    +0.055 A 
ATOM      7  C   UNL     1       1.623  -0.256  22.456  0.00  0.00    +0.008 A 
ATOM      8  C   UNL     1       2.366  -0.068  22.151  0.00  0.00    +0.037 A 
BRANCH   3   2
ATOM      1  C   UNL     1       4.233   0.698  22.710  0.00  0.00    +0.252 C 
ATOM      2  O   UNL     1       3.574   0.693  22.216  0.00  0.00    -0.471 OA
ENDBRANCH   3   2
ENDBRANCH   9   6
ENDBRANCH  12  11
ENDBRANCH  13  12
BRANCH  16  17
ATOM     17  N   UNL     1      -3.054   1.872  24.612  0.00  0.00    -0.209 NA
BRANCH  17  18
ATOM     18  C   UNL     1      -3.571   2.411  24.262  0.00  0.00    +0.115 C 
BRANCH  18  19
ATOM     19  C   UNL     1      -4.222   2.691  24.683  0.00  0.00    -0.005 A 
ATOM     20  C   UNL     1      -4.182   3.420  25.069  0.00  0.00    -0.001 A 
ATOM     21  C   UNL     1      -4.834   3.699  25.490  0.00  0.00    +0.029 A 
ATOM     22  C   UNL     1      -5.526   3.250  25.526  0.00  0.00    +0.140 A 
ATOM     23  F   UNL     1      -6.178   3.530  25.948  0.00  0.00    -0.204 F 
ATOM     24  C   UNL     1      -5.565   2.522  25.141  0.00  0.00    +0.029 A 
ATOM     25  C   UNL     1      -4.913   2.242  24.720  0.00  0.00    -0.001 A 
ENDBRANCH  18  19
ENDBRANCH  17  18
ENDBRANCH  16  17
TORSDOF 7
ENDMDL
MODEL 5
REMARK VINA RESULT:      -9.2      2.148      5.758
REMARK  Name = 
REMARK  7 active torsions:
REMARK  status: ('A' for Active; 'I' for Inactive)
REMARK    1  A    between atoms: O_2  and  C_3
REMARK    2  A    between atoms: C_6  and  C_9
REMARK    3  A    between atoms: N_11  and  C_12
REMARK    4  A    between atoms: C_12  and  C_13
REMARK    5  A    between atoms: C_16  and  N_17
REMARK    6  A    between atoms: N_17  and  C_18
REMARK    7  A    between atoms: C_18  and  C_19
REMARK                            x       y       z     vdW  Elec       q    Type
REMARK                         _______ _______ _______ _____ _____    ______ ____
ROOT
ATOM     13  C   UNL     1      -4.639   1.428  24.958  0.00  0.00    +0.169 C 
ATOM     14  O   UNL     1      -4.965   1.039  25.608  0.00  0.00    -0.350 OA
ATOM     15  C   UNL     1      -4.822   0.232  25.520  0.00  0.00    +0.162 C 
ATOM     16  C   UNL     1      -4.406   0.122  24.816  0.00  0.00    +0.135 C 
ATOM     26  C   UNL     1      -4.293   0.861  24.468  0.00  0.00    +0.199 C 
ATOM     27  O   UNL     1      -3.903   1.007  23.757  0.00  0.00    -0.219 OA
ENDROOT
BRANCH  13  12
ATOM     12  C   UNL     1      -4.655   2.242  24.821  0.00  0.00    +0.148 C 
BRANCH  12  11
ATOM      9  C   UNL     1      -4.005   3.492  25.060  0.00  0.00    +0.265 C 
ATOM     10  O   UNL     1      -4.738   3.854  25.162  0.00  0.00    -0.268 OA
ATOM     11  N   UNL     1      -3.963   2.685  24.890  0.00  0.00    -0.199 NA
BRANCH   9   6
ATOM      3  C   UNL     1      -1.927   4.821  25.265  0.00  0.00    +0.139 A 
ATOM      4  C   UNL     1      -2.271   4.488  25.937  0.00  0.00    +0.037 A 
ATOM      5  C   UNL     1      -2.964   4.045  25.868  0.00  0.00    +0.008 A 
ATOM      6  C   UNL     1      -3.312   3.935  25.129  0.00  0.00    +0.055 A 
ATOM      7  C   UNL     1      -2.968   4.268  24.457  0.00  0.00    +0.008 A 
ATOM      8  C   UNL     1      -2.275   4.711  24.525  0.00  0.00    +0.037 A 
BRANCH   3   2
ATOM      1  C   UNL     1      -0.584   5.087  24.859  0.00  0.00    +0.252 C 
ATOM      2  O   UNL     1      -1.234   5.264  25.333  0.00  0.00    -0.471 OA
ENDBRANCH   3   2
ENDBRANCH   9   6
ENDBRANCH  12  11
ENDBRANCH  13  12
BRANCH  16  17
ATOM     17  N   UNL     1      -4.149  -0.602  24.513  0.00  0.00    -0.209 NA
BRANCH  17  18
ATOM     18  C   UNL     1      -3.903  -1.200  25.026  0.00  0.00    +0.115 C 
BRANCH  18  19
ATOM     19  C   UNL     1      -3.400  -1.794  24.754  0.00  0.00    -0.005 A 
ATOM     20  C   UNL     1      -2.588  -1.741  24.890  0.00  0.00    -0.001 A 
ATOM     21  C   UNL     1      -2.085  -2.336  24.619  0.00  0.00    +0.029 A 
ATOM     22  C   UNL     1      -2.393  -2.983  24.211  0.00  0.00    +0.140 A 
ATOM     23  F   UNL     1      -1.890  -3.578  23.939  0.00  0.00    -0.204 F 
ATOM     24  C   UNL     1      -3.205  -3.036  24.075  0.00  0.00    +0.029 A 
ATOM     25  C   UNL     1      -3.708  -2.441  24.346  0.00  0.00    -0.001 A 
ENDBRANCH  18  19
ENDBRANCH  17  18
ENDBRANCH  16  17
TORSDOF 7
ENDMDL
MODEL 6
REMARK VINA RESULT:      -9.2      4.987      6.465
REMARK  Name = 
REMARK  7 active torsions:
REMARK  status: ('A' for Active; 'I' for Inactive)
REMARK    1  A    between atoms: O_2  and  C_3
REMARK    2  A    between atoms: C_6  and  C_9
REMARK    3  A    between atoms: N_11  and  C_12
REMARK    4  A    between atoms: C_12  and  C_13
REMARK    5  A    between atoms: C_16  and  N_17
REMARK    6  A    between atoms: N_17  and  C_18
REMARK    7  A    between atoms: C_18  and  C_19
REMARK                            x       y       z     vdW  Elec       q    Type
REMARK                         _______ _______ _______ _____ _____    ______ ____
ROOT
ATOM     13  C   UNL     1       0.296  -0.126  23.409  0.00  0.00    +0.169 C 
ATOM     14  O   UNL     1       0.285  -0.696  24.004  0.00  0.00    -0.350 OA
ATOM     15  C   UNL     1      -0.403  -0.590  24.446  0.00  0.00    +0.162 C 
ATOM     16  C   UNL     1      -0.817   0.046  24.124  0.00  0.00    +0.135 C 
ATOM     26  C   UNL     1      -0.386   0.333  23.483  0.00  0.00    +0.199 C 
ATOM     27  O   UNL     1      -0.598   0.967  23.000  0.00  0.00    -0.219 OA
ENDROOT
BRANCH  13  12
ATOM     12  C   UNL     1       0.885  -0.031  22.839  0.00  0.00    +0.148 C 
BRANCH  12  11
ATOM      9  C   UNL     1       2.272   0.051  22.505  0.00  0.00    +0.265 C 
ATOM     10  O   UNL     1       2.087  -0.060  21.709  0.00  0.00    -0.268 OA
ATOM     11  N   UNL     1       1.671   0.066  23.070  0.00  0.00    -0.199 NA
BRANCH   9   6
ATOM      3  C   UNL     1       4.630   0.340  23.201  0.00  0.00    +0.139 A 
ATOM      4  C   UNL     1       4.217   0.974  22.872  0.00  0.00    +0.037 A 
ATOM      5  C   UNL     1       3.431   0.877  22.640  0.00  0.00    +0.008 A 
ATOM      6  C   UNL     1       3.058   0.148  22.737  0.00  0.00    +0.055 A 
ATOM      7  C   UNL     1       3.471  -0.486  23.066  0.00  0.00    +0.008 A 
ATOM      8  C   UNL     1       4.257  -0.390  23.299  0.00  0.00    +0.037 A 
BRANCH   3   2
ATOM      1  C   UNL     1       5.698   0.045  24.102  0.00  0.00    +0.252 C 
ATOM      2  O   UNL     1       5.416   0.436  23.434  0.00  0.00    -0.471 OA
ENDBRANCH   3   2
ENDBRANCH   9   6
ENDBRANCH  12  11
ENDBRANCH  13  12
BRANCH  16  17
ATOM     17  N   UNL     1      -1.538   0.343  24.395  0.00  0.00    -0.209 NA
BRANCH  17  18
ATOM     18  C   UNL     1      -2.083  -0.162  24.755  0.00  0.00    +0.115 C 
BRANCH  18  19
ATOM     19  C   UNL     1      -2.878   0.053  24.796  0.00  0.00    -0.005 A 
ATOM     20  C   UNL     1      -3.465  -0.500  24.618  0.00  0.00    -0.001 A 
ATOM     21  C   UNL     1      -4.260  -0.284  24.660  0.00  0.00    +0.029 A 
ATOM     22  C   UNL     1      -4.469   0.483  24.880  0.00  0.00    +0.140 A 
ATOM     23  F   UNL     1      -5.265   0.698  24.921  0.00  0.00    -0.204 F 
ATOM     24  C   UNL     1      -3.883   1.035  25.058  0.00  0.00    +0.029 A 
ATOM     25  C   UNL     1      -3.088   0.820  25.016  0.00  0.00    -0.001 A 
ENDBRANCH  18  19
ENDBRANCH  17  18
ENDBRANCH  16  17
TORSDOF 7
ENDMDL
MODEL 7
REMARK VINA RESULT:      -9.1      4.690      5.456
REMARK  Name = 
REMARK  7 active torsions:
REMARK  status: ('A' for Active; 'I' for Inactive)
REMARK    1  A    between atoms: O_2  and  C_3
REMARK    2  A    between atoms: C_6  and  C_9
REMARK    3  A    between atoms: N_11  and  C_12
REMARK    4  A    between atoms: C_12  and  C_13
REMARK    5  A    between atoms: C_16  and  N_17
REMARK    6  A    between atoms: N_17  and  C_18
REMARK    7  A    between atoms: C_18  and  C_19
REMARK                            x       y       z     vdW  Elec       q    Type
REMARK                         _______ _______ _______ _____ _____    ______ ____
ROOT
ATOM     13  C   UNL     1       0.172   0.596  23.638  0.00  0.00    +0.169 C 
ATOM     14  O   UNL     1       0.253  -0.026  23.103  0.00  0.00    -0.350 OA
ATOM     15  C   UNL     1       1.041  -0.057  22.864  0.00  0.00    +0.162 C 
ATOM     16  C   UNL     1       1.448   0.547  23.251  0.00  0.00    +0.135 C 
ATOM     26  C   UNL     1       0.912   0.951  23.730  0.00  0.00    +0.199 C 
ATOM     27  O   UNL     1       1.084   1.595  24.215  0.00  0.00    -0.219 OA
ENDROOT
BRANCH  13  12
ATOM     12  C   UNL     1      -0.525   0.824  24.016  0.00  0.00    +0.148 C 
BRANCH  12  11
ATOM      9  C   UNL     1      -1.864   0.532  24.422  0.00  0.00    +0.265 C 
ATOM     10  O   UNL     1      -1.883   1.230  24.861  0.00  0.00    -0.268 OA
ATOM     11  N   UNL     1      -1.184   0.329  23.999  0.00  0.00    -0.199 NA
BRANCH   9   6
ATOM      3  C   UNL     1      -3.840  -0.957  24.372  0.00  0.00    +0.139 A 
ATOM      4  C   UNL     1      -3.837  -0.261  23.929  0.00  0.00    +0.037 A 
ATOM      5  C   UNL     1      -3.178   0.235  23.946  0.00  0.00    +0.008 A 
ATOM      6  C   UNL     1      -2.523   0.036  24.405  0.00  0.00    +0.055 A 
ATOM      7  C   UNL     1      -2.526  -0.660  24.848  0.00  0.00    +0.008 A 
ATOM      8  C   UNL     1      -3.184  -1.157  24.832  0.00  0.00    +0.037 A 
BRANCH   3   2
ATOM      1  C   UNL     1      -4.478  -2.152  23.919  0.00  0.00    +0.252 C 
ATOM      2  O   UNL     1      -4.498  -1.454  24.356  0.00  0.00    -0.471 OA
ENDBRANCH   3   2
ENDBRANCH   9   6
ENDBRANCH  12  11
ENDBRANCH  13  12
BRANCH  16  17
ATOM     17  N   UNL     1       2.253   0.717  23.173  0.00  0.00    -0.209 NA
BRANCH  17  18
ATOM     18  C   UNL     1       2.759   0.167  22.824  0.00  0.00    +0.115 C 
BRANCH  18  19
ATOM     19  C   UNL     1       3.566   0.185  22.992  0.00  0.00    -0.005 A 
ATOM     20  C   UNL     1       3.932  -0.474  23.329  0.00  0.00    -0.001 A 
ATOM     21  C   UNL     1       4.739  -0.455  23.497  0.00  0.00    +0.029 A 
ATOM     22  C   UNL     1       5.181   0.221  23.328  0.00  0.00    +0.140 A 
ATOM     23  F   UNL     1       5.988   0.239  23.496  0.00  0.00    -0.204 F 
ATOM     24  C   UNL     1       4.815   0.879  22.991  0.00  0.00    +0.029 A 
ATOM     25  C   UNL     1       4.007   0.861  22.823  0.00  0.00    -0.001 A 
ENDBRANCH  18  19
ENDBRANCH  17  18
ENDBRANCH  16  17
TORSDOF 7
ENDMDL
MODEL 8
REMARK VINA RESULT:      -8.6      4.096      5.269
REMARK  Name = 
REMARK  7 active torsions:
REMARK  status: ('A' for Active; 'I' for Inactive)
REMARK    1  A    between atoms: O_2  and  C_3
REMARK    2  A    between atoms: C_6  and  C_9
REMARK    3  A    between atoms: N_11  and  C_12
REMARK    4  A    between atoms: C_12  and  C_13
REMARK    5  A    between atoms: C_16  and  N_17
REMARK    6  A    between atoms: N_17  and  C_18
REMARK    7  A    between atoms: C_18  and  C_19
REMARK                            x       y       z     vdW  Elec       q    Type
REMARK                         _______ _______ _______ _____ _____    ______ ____
ROOT
ATOM     13  C   UNL     1      -0.723   0.072  24.032  0.00  0.00    +0.169 C 
ATOM     14  O   UNL     1      -0.658   0.724  23.532  0.00  0.00    -0.350 OA
ATOM     15  C   UNL     1       0.108   0.735  23.225  0.00  0.00    +0.162 C 
ATOM     16  C   UNL     1       0.516   0.089  23.535  0.00  0.00    +0.135 C 
ATOM     26  C   UNL     1       0.003  -0.321  24.034  0.00  0.00    +0.199 C 
ATOM     27  O   UNL     1       0.183  -1.004  24.460  0.00  0.00    -0.219 OA
ENDROOT
BRANCH  13  12
ATOM     12  C   UNL     1      -1.395  -0.150  24.455  0.00  0.00    +0.148 C 
BRANCH  12  11
ATOM      9  C   UNL     1      -2.734   0.119  24.878  0.00  0.00    +0.265 C 
ATOM     10  O   UNL     1      -2.700  -0.523  25.394  0.00  0.00    -0.268 OA
ATOM     11  N   UNL     1      -2.081   0.306  24.408  0.00  0.00    -0.199 NA
BRANCH   9   6
ATOM      3  C   UNL     1      -4.791   1.489  24.734  0.00  0.00    +0.139 A 
ATOM      4  C   UNL     1      -4.837   0.667  24.671  0.00  0.00    +0.037 A 
ATOM      5  C   UNL     1      -4.151   0.211  24.719  0.00  0.00    +0.008 A 
ATOM      6  C   UNL     1      -3.420   0.575  24.830  0.00  0.00    +0.055 A 
ATOM      7  C   UNL     1      -3.373   1.396  24.893  0.00  0.00    +0.008 A 
ATOM      8  C   UNL     1      -4.058   1.854  24.845  0.00  0.00    +0.037 A 
BRANCH   3   2
ATOM      1  C   UNL     1      -5.793   2.286  25.367  0.00  0.00    +0.252 C 
ATOM      2  O   UNL     1      -5.475   1.946  24.686  0.00  0.00    -0.471 OA
ENDBRANCH   3   2
ENDBRANCH   9   6
ENDBRANCH  12  11
ENDBRANCH  13  12
BRANCH  16  17
ATOM     17  N   UNL     1       1.300  -0.112  23.375  0.00  0.00    -0.209 NA
BRANCH  17  18
ATOM     18  C   UNL     1       1.720   0.297  22.794  0.00  0.00    +0.115 C 
BRANCH  18  19
ATOM     19  C   UNL     1       2.545   0.304  22.809  0.00  0.00    -0.005 A 
ATOM     20  C   UNL     1       2.962  -0.408  22.843  0.00  0.00    -0.001 A 
ATOM     21  C   UNL     1       3.787  -0.402  22.859  0.00  0.00    +0.029 A 
ATOM     22  C   UNL     1       4.195   0.316  22.840  0.00  0.00    +0.140 A 
ATOM     23  F   UNL     1       5.019   0.322  22.856  0.00  0.00    -0.204 F 
ATOM     24  C   UNL     1       3.777   1.026  22.807  0.00  0.00    +0.029 A 
ATOM     25  C   UNL     1       2.953   1.020  22.791  0.00  0.00    -0.001 A 
ENDBRANCH  18  19
ENDBRANCH  17  18
ENDBRANCH  16  17
TORSDOF 7
ENDMDL
MODEL 9
REMARK VINA RESULT:      -7.4     18.142     19.061
REMARK  Name = 
REMARK  7 active torsions:
REMARK  status: ('A' for Active; 'I' for Inactive)
REMARK    1  A    between atoms: O_2  and  C_3
REMARK    2  A    between atoms: C_6  and  C_9
REMARK    3  A    between atoms: N_11  and  C_12
REMARK    4  A    between atoms: C_12  and  C_13
REMARK    5  A    between atoms: C_16  and  N_17
REMARK    6  A    between atoms: N_17  and  C_18
REMARK    7  A    between atoms: C_18  and  C_19
REMARK                            x       y       z     vdW  Elec       q    Type
REMARK                         _______ _______ _______ _____ _____    ______ ____
ROOT
ATOM     13  C   UNL     1      -6.209  -8.496   9.286  0.00  0.00    +0.169 C 
ATOM     14  O   UNL     1      -5.741  -7.829   9.412  0.00  0.00    -0.350 OA
ATOM     15  C   UNL     1      -5.058  -8.067   9.808  0.00  0.00    +0.162 C 
ATOM     16  C   UNL     1      -5.104  -8.882   9.928  0.00  0.00    +0.135 C 
ATOM     26  C   UNL     1      -5.815  -9.147   9.606  0.00  0.00    +0.199 C 
ATOM     27  O   UNL     1      -6.085  -9.926   9.603  0.00  0.00    -0.219 OA
ENDROOT
BRANCH  13  12
ATOM     12  C   UNL     1      -6.942  -8.511   8.908  0.00  0.00    +0.148 C 
BRANCH  12  11
ATOM      9  C   UNL     1      -8.143  -7.846   8.511  0.00  0.00    +0.265 C 
ATOM     10  O   UNL     1      -8.393  -8.529   8.124  0.00  0.00    -0.268 OA
ATOM     11  N   UNL     1      -7.417  -7.837   8.904  0.00  0.00    -0.199 NA
BRANCH   9   6
ATOM      3  C   UNL     1      -9.568  -5.822   8.500  0.00  0.00    +0.139 A 
ATOM      4  C   UNL     1      -9.834  -6.511   8.867  0.00  0.00    +0.037 A 
ATOM      5  C   UNL     1      -9.359  -7.186   8.871  0.00  0.00    +0.008 A 
ATOM      6  C   UNL     1      -8.619  -7.172   8.508  0.00  0.00    +0.055 A 
ATOM      7  C   UNL     1      -8.353  -6.483   8.140  0.00  0.00    +0.008 A 
ATOM      8  C   UNL     1      -8.827  -5.808   8.136  0.00  0.00    +0.037 A 
BRANCH   3   2
ATOM      1  C   UNL     1      -9.745  -4.433   8.779  0.00  0.00    +0.252 C 
ATOM      2  O   UNL     1     -10.042  -5.147   8.496  0.00  0.00    -0.471 OA
ENDBRANCH   3   2
ENDBRANCH   9   6
ENDBRANCH  12  11
ENDBRANCH  13  12
BRANCH  16  17
ATOM     17  N   UNL     1      -4.537  -9.349  10.305  0.00  0.00    -0.209 NA
BRANCH  17  18
ATOM     18  C   UNL     1      -3.734  -9.209  10.175  0.00  0.00    +0.115 C 
BRANCH  18  19
ATOM     19  C   UNL     1      -3.169  -9.601  10.630  0.00  0.00    -0.005 A 
ATOM     20  C   UNL     1      -3.357 -10.318  10.994  0.00  0.00    -0.001 A 
ATOM     21  C   UNL     1      -2.792 -10.710  11.449  0.00  0.00    +0.029 A 
ATOM     22  C   UNL     1      -2.039 -10.386  11.541  0.00  0.00    +0.140 A 
ATOM     23  F   UNL     1      -1.474 -10.778  11.996  0.00  0.00    -0.204 F 
ATOM     24  C   UNL     1      -1.851  -9.669  11.177  0.00  0.00    +0.029 A 
ATOM     25  C   UNL     1      -2.417  -9.277  10.722  0.00  0.00    -0.001 A 
ENDBRANCH  18  19
ENDBRANCH  17  18
ENDBRANCH  16  17
TORSDOF 7
ENDMDL
MODEL 10
REMARK VINA RESULT:      -7.1     14.703     16.954
REMARK  Name = 
REMARK  7 active torsions:
REMARK  status: ('A' for Active; 'I' for Inactive)
REMARK    1  A    between atoms: O_2  and  C_3
REMARK    2  A    between atoms: C_6  and  C_9
REMARK    3  A    between atoms: N_11  and  C_12
REMARK    4  A    between atoms: C_12  and  C_13
REMARK    5  A    between atoms: C_16  and  N_17
REMARK    6  A    between atoms: N_17  and  C_18
REMARK    7  A    between atoms: C_18  and  C_19
REMARK                            x       y       z     vdW  Elec       q    Type
REMARK                         _______ _______ _______ _____ _____    ______ ____
ROOT
ATOM     13  C   UNL     1      -5.374 -10.090  13.363  0.00  0.00    +0.169 C 
ATOM     14  O   UNL     1      -6.094  -9.752  13.579  0.00  0.00    -0.350 OA
ATOM     15  C   UNL     1      -6.177  -9.831  14.396  0.00  0.00    +0.162 C 
ATOM     16  C   UNL     1      -5.508 -10.217  14.684  0.00  0.00    +0.135 C 
ATOM     26  C   UNL     1      -5.011 -10.377  14.046  0.00  0.00    +0.199 C 
ATOM     27  O   UNL     1      -4.280 -10.757  14.084  0.00  0.00    -0.219 OA
ENDROOT
BRANCH  13  12
ATOM     12  C   UNL     1      -5.069 -10.132  12.597  0.00  0.00    +0.148 C 
BRANCH  12  11
ATOM      9  C   UNL     1      -5.126  -9.758  11.219  0.00  0.00    +0.265 C 
ATOM     10  O   UNL     1      -4.456 -10.215  11.068  0.00  0.00    -0.268 OA
ATOM     11  N   UNL     1      -5.432  -9.717  11.985  0.00  0.00    -0.199 NA
BRANCH   9   6
ATOM      3  C   UNL     1      -6.219  -8.511   9.382  0.00  0.00    +0.139 A 
ATOM      4  C   UNL     1      -5.525  -8.221   9.721  0.00  0.00    +0.037 A 
ATOM      5  C   UNL     1      -5.161  -8.637  10.333  0.00  0.00    +0.008 A 
ATOM      6  C   UNL     1      -5.490  -9.342  10.607  0.00  0.00    +0.055 A 
ATOM      7  C   UNL     1      -6.184  -9.632  10.268  0.00  0.00    +0.008 A 
ATOM      8  C   UNL     1      -6.549  -9.217   9.655  0.00  0.00    +0.037 A 
BRANCH   3   2
ATOM      1  C   UNL     1      -7.394  -7.946   8.798  0.00  0.00    +0.252 C 
ATOM      2  O   UNL     1      -6.584  -8.097   8.769  0.00  0.00    -0.471 OA
ENDBRANCH   3   2
ENDBRANCH   9   6
ENDBRANCH  12  11
ENDBRANCH  13  12
BRANCH  16  17
ATOM     17  N   UNL     1      -5.361 -10.409  15.474  0.00  0.00    -0.209 NA
BRANCH  17  18
ATOM     18  C   UNL     1      -5.540  -9.868  16.070  0.00  0.00    +0.115 C 
BRANCH  18  19
ATOM     19  C   UNL     1      -5.493 -10.096  16.861  0.00  0.00    -0.005 A 
ATOM     20  C   UNL     1      -4.755 -10.208  17.215  0.00  0.00    -0.001 A 
ATOM     21  C   UNL     1      -4.708 -10.437  18.006  0.00  0.00    +0.029 A 
ATOM     22  C   UNL     1      -5.397 -10.553  18.444  0.00  0.00    +0.140 A 
ATOM     23  F   UNL     1      -5.350 -10.781  19.235  0.00  0.00    -0.204 F 
ATOM     24  C   UNL     1      -6.134 -10.440  18.091  0.00  0.00    +0.029 A 
ATOM     25  C   UNL     1      -6.182 -10.212  17.299  0.00  0.00    -0.001 A 
ENDBRANCH  18  19
ENDBRANCH  17  18
ENDBRANCH  16  17
TORSDOF 7
ENDMDL
