MODEL 1
REMARK VINA RESULT:     -16.2      0.000      0.000
REMARK  Name = 
REMARK  2 active torsions:
REMARK  status: ('A' for Active; 'I' for Inactive)
REMARK    1  A    between atoms: C_7  and  N_10
REMARK    2  A    between atoms: C_19  and  C_24
REMARK                            x       y       z     vdW  Elec       q    Type
REMARK                         _______ _______ _______ _____ _____    ______ ____
ROOT
ATOM     10  N   UNL     1      -2.662   1.984  24.603  0.00  0.00    -0.273 NA
ATOM     11  C   UNL     1      -2.729   2.812  24.509  0.00  0.00    +0.074 C 
ATOM     12  C   UNL     1      -3.710   2.906  24.568  0.00  0.00    +0.039 C 
ATOM     13  C   UNL     1      -4.487   3.150  24.595  0.00  0.00    +0.011 C 
ATOM     14  C   UNL     1      -4.131   2.547  24.641  0.00  0.00    +0.054 C 
ATOM     15  C   UNL     1      -3.180   2.472  24.582  0.00  0.00    +0.078 C 
ATOM     16  C   UNL     1      -4.254   1.644  24.758  0.00  0.00    +0.041 A 
ATOM     17  C   UNL     1      -4.853   1.088  24.868  0.00  0.00    +0.013 A 
ATOM     18  C   UNL     1      -4.664   0.289  24.950  0.00  0.00    +0.006 A 
ATOM     19  C   UNL     1      -3.876   0.046  24.923  0.00  0.00    +0.056 A 
ATOM     20  C   UNL     1      -3.277   0.602  24.813  0.00  0.00    +0.261 A 
ATOM     21  O   UNL     1      -2.779  -0.054  24.856  0.00  0.00    -0.267 OA
ATOM     22  N   UNL     1      -3.465   1.401  24.731  0.00  0.00    -0.299 N 
ATOM     23  C   UNL     1      -3.829   1.961  24.690  0.00  0.00    +0.110 C 
ENDROOT
BRANCH  10   7
ATOM      1  C   UNL     1      -0.994  -1.262  25.593  0.00  0.00    +0.095 C 
ATOM      2  C   UNL     1      -1.231  -0.979  24.856  0.00  0.00    +0.226 C 
ATOM      3  O   UNL     1      -1.110  -1.438  24.180  0.00  0.00    -0.275 OA
ATOM      4  N   UNL     1      -1.588  -0.239  24.792  0.00  0.00    -0.279 N 
ATOM      5  C   UNL     1      -1.825   0.044  24.055  0.00  0.00    +0.095 C 
ATOM      6  C   UNL     1      -2.183   0.784  23.991  0.00  0.00    +0.038 C 
ATOM      7  C   UNL     1      -2.304   1.243  24.667  0.00  0.00    +0.061 C 
ATOM      8  C   UNL     1      -2.068   0.961  25.404  0.00  0.00    +0.038 C 
ATOM      9  C   UNL     1      -1.710   0.220  25.468  0.00  0.00    +0.095 C 
ENDBRANCH  10   7
BRANCH  19  24
ATOM     24  C   UNL     1      -3.689  -0.753  25.005  0.00  0.00    +0.001 A 
ATOM     25  C   UNL     1      -3.302  -1.018  25.684  0.00  0.00    -0.000 A 
ATOM     26  C   UNL     1      -3.115  -1.818  25.766  0.00  0.00    -0.000 A 
ATOM     27  C   UNL     1      -3.314  -2.351  25.168  0.00  0.00    -0.000 A 
ATOM     28  C   UNL     1      -3.700  -2.085  24.490  0.00  0.00    -0.004 A 
ATOM     29  C   UNL     1      -3.887  -1.286  24.408  0.00  0.00    -0.022 A 
ATOM     30  C   UNL     1      -4.274  -1.021  23.729  0.00  0.00    +0.031 C 
ENDBRANCH  19  24
TORSDOF 2
ENDMDL
MODEL 2
REMARK VINA RESULT:     -15.8      1.029      3.313
REMARK  Name = 
REMARK  2 active torsions:
REMARK  status: ('A' for Active; 'I' for Inactive)
REMARK    1  A    between atoms: C_7  and  N_10
REMARK    2  A    between atoms: C_19  and  C_24
REMARK                            x       y       z     vdW  Elec       q    Type
REMARK                         _______ _______ _______ _____ _____    ______ ____
ROOT
ATOM     10  N   UNL     1      -2.061  -1.380  24.810  0.00  0.00    -0.273 NA
ATOM     11  C   UNL     1      -1.928  -2.196  24.931  0.00  0.00    +0.074 C 
ATOM     12  C   UNL     1      -2.820  -2.546  24.693  0.00  0.00    +0.039 C 
ATOM     13  C   UNL     1      -3.487  -2.986  24.532  0.00  0.00    +0.011 C 
ATOM     14  C   UNL     1      -3.297  -2.310  24.524  0.00  0.00    +0.054 C 
ATOM     15  C   UNL     1      -2.429  -1.987  24.757  0.00  0.00    +0.078 C 
ATOM     16  C   UNL     1      -3.625  -1.471  24.342  0.00  0.00    +0.041 A 
ATOM     17  C   UNL     1      -4.315  -1.093  24.095  0.00  0.00    +0.013 A 
ATOM     18  C   UNL     1      -4.328  -0.273  24.011  0.00  0.00    +0.006 A 
ATOM     19  C   UNL     1      -3.651   0.170  24.174  0.00  0.00    +0.056 A 
ATOM     20  C   UNL     1      -2.961  -0.208  24.422  0.00  0.00    +0.261 A 
ATOM     21  O   UNL     1      -2.652   0.556  24.441  0.00  0.00    -0.267 OA
ATOM     22  N   UNL     1      -2.948  -1.029  24.506  0.00  0.00    -0.299 N 
ATOM     23  C   UNL     1      -3.154  -1.666  24.505  0.00  0.00    +0.110 C 
ENDROOT
BRANCH  10   7
ATOM      1  C   UNL     1      -1.524   2.322  25.361  0.00  0.00    +0.095 C 
ATOM      2  C   UNL     1      -1.428   1.857  24.687  0.00  0.00    +0.226 C 
ATOM      3  O   UNL     1      -1.172   2.201  23.982  0.00  0.00    -0.275 OA
ATOM      4  N   UNL     1      -1.586   1.048  24.718  0.00  0.00    -0.279 N 
ATOM      5  C   UNL     1      -1.489   0.582  24.044  0.00  0.00    +0.095 C 
ATOM      6  C   UNL     1      -1.647  -0.226  24.074  0.00  0.00    +0.038 C 
ATOM      7  C   UNL     1      -1.903  -0.570  24.780  0.00  0.00    +0.061 C 
ATOM      8  C   UNL     1      -2.000  -0.105  25.454  0.00  0.00    +0.038 C 
ATOM      9  C   UNL     1      -1.841   0.704  25.423  0.00  0.00    +0.095 C 
ENDBRANCH  10   7
BRANCH  19  24
ATOM     24  C   UNL     1      -3.665   0.990  24.090  0.00  0.00    +0.001 A 
ATOM     25  C   UNL     1      -3.218   1.352  23.499  0.00  0.00    -0.000 A 
ATOM     26  C   UNL     1      -3.232   2.173  23.415  0.00  0.00    -0.000 A 
ATOM     27  C   UNL     1      -3.694   2.631  23.923  0.00  0.00    -0.000 A 
ATOM     28  C   UNL     1      -4.140   2.269  24.514  0.00  0.00    -0.004 A 
ATOM     29  C   UNL     1      -4.126   1.449  24.598  0.00  0.00    -0.022 A 
ATOM     30  C   UNL     1      -4.572   1.087  25.189  0.00  0.00    +0.031 C 
ENDBRANCH  19  24
TORSDOF 2
ENDMDL
MODEL 3
REMARK VINA RESULT:     -15.2      2.003      3.434
REMARK  Name = 
REMARK  2 active torsions:
REMARK  status: ('A' for Active; 'I' for Inactive)
REMARK    1  A    between atoms: C_7  and  N_10
REMARK    2  A    between atoms: C_19  and  C_24
REMARK                            x       y       z     vdW  Elec       q    Type
REMARK                         _______ _______ _______ _____ _____    ______ ____
ROOT
ATOM     10  N   UNL     1      -4.350   2.103  24.634  0.00  0.00    -0.273 NA
ATOM     11  C   UNL     1      -5.180   2.010  24.602  0.00  0.00    +0.074 C 
ATOM     12  C   UNL     1      -5.452   2.742  25.207  0.00  0.00    +0.039 C 
ATOM     13  C   UNL     1      -5.834   3.292  25.671  0.00  0.00    +0.011 C 
ATOM     14  C   UNL     1      -5.174   3.125  25.501  0.00  0.00    +0.054 C 
ATOM     15  C   UNL     1      -4.927   2.413  24.914  0.00  0.00    +0.078 C 
ATOM     16  C   UNL     1      -4.304   3.376  25.659  0.00  0.00    +0.041 A 
ATOM     17  C   UNL     1      -3.864   3.930  26.083  0.00  0.00    +0.013 A 
ATOM     18  C   UNL     1      -3.041   3.926  26.036  0.00  0.00    +0.006 A 
ATOM     19  C   UNL     1      -2.657   3.367  25.565  0.00  0.00    +0.056 A 
ATOM     20  C   UNL     1      -3.097   2.813  25.141  0.00  0.00    +0.261 A 
ATOM     21  O   UNL     1      -2.358   2.548  24.889  0.00  0.00    -0.267 OA
ATOM     22  N   UNL     1      -3.920   2.818  25.188  0.00  0.00    -0.299 N 
ATOM     23  C   UNL     1      -4.540   2.997  25.365  0.00  0.00    +0.110 C 
ENDROOT
BRANCH  10   7
ATOM      1  C   UNL     1      -0.736   1.004  24.476  0.00  0.00    +0.095 C 
ATOM      2  C   UNL     1      -1.162   1.528  24.003  0.00  0.00    +0.226 C 
ATOM      3  O   UNL     1      -0.791   1.910  23.372  0.00  0.00    -0.275 OA
ATOM      4  N   UNL     1      -1.959   1.672  24.160  0.00  0.00    -0.279 N 
ATOM      5  C   UNL     1      -2.385   2.197  23.688  0.00  0.00    +0.095 C 
ATOM      6  C   UNL     1      -3.182   2.341  23.845  0.00  0.00    +0.038 C 
ATOM      7  C   UNL     1      -3.553   1.959  24.476  0.00  0.00    +0.061 C 
ATOM      8  C   UNL     1      -3.128   1.434  24.949  0.00  0.00    +0.038 C 
ATOM      9  C   UNL     1      -2.330   1.291  24.791  0.00  0.00    +0.095 C 
ENDBRANCH  10   7
BRANCH  19  24
ATOM     24  C   UNL     1      -1.834   3.363  25.519  0.00  0.00    +0.001 A 
ATOM     25  C   UNL     1      -1.405   2.734  25.837  0.00  0.00    -0.000 A 
ATOM     26  C   UNL     1      -0.581   2.731  25.791  0.00  0.00    -0.000 A 
ATOM     27  C   UNL     1      -0.186   3.357  25.426  0.00  0.00    -0.000 A 
ATOM     28  C   UNL     1      -0.615   3.986  25.108  0.00  0.00    -0.004 A 
ATOM     29  C   UNL     1      -1.438   3.989  25.154  0.00  0.00    -0.022 A 
ATOM     30  C   UNL     1      -1.867   4.618  24.836  0.00  0.00    +0.031 C 
ENDBRANCH  19  24
TORSDOF 2
ENDMDL
MODEL 4
REMARK VINA RESULT:     -15.1      1.886      3.313
REMARK  Name = 
REMARK  2 active torsions:
REMARK  status: ('A' for Active; 'I' for Inactive)
REMARK    1  A    between atoms: C_7  and  N_10
REMARK    2  A    between atoms: C_19  and  C_24
REMARK                            x       y       z     vdW  Elec       q    Type
REMARK                         _______ _______ _______ _____ _____    ______ ____
ROOT
ATOM     10  N   UNL     1      -2.698   4.190  25.196  0.00  0.00    -0.273 NA
ATOM     11  C   UNL     1      -2.240   4.881  25.300  0.00  0.00    +0.074 C 
ATOM     12  C   UNL     1      -1.338   4.507  25.153  0.00  0.00    +0.039 C 
ATOM     13  C   UNL     1      -0.543   4.357  25.059  0.00  0.00    +0.011 C 
ATOM     14  C   UNL     1      -1.145   3.997  25.033  0.00  0.00    +0.054 C 
ATOM     15  C   UNL     1      -2.010   4.374  25.179  0.00  0.00    +0.078 C 
ATOM     16  C   UNL     1      -1.473   3.152  24.887  0.00  0.00    +0.041 A 
ATOM     17  C   UNL     1      -1.218   2.387  24.711  0.00  0.00    +0.013 A 
ATOM     18  C   UNL     1      -1.768   1.778  24.630  0.00  0.00    +0.006 A 
ATOM     19  C   UNL     1      -2.573   1.933  24.725  0.00  0.00    +0.056 A 
ATOM     20  C   UNL     1      -2.828   2.697  24.901  0.00  0.00    +0.261 A 
ATOM     21  O   UNL     1      -3.579   2.356  24.891  0.00  0.00    -0.267 OA
ATOM     22  N   UNL     1      -2.278   3.307  24.982  0.00  0.00    -0.299 N 
ATOM     23  C   UNL     1      -1.690   3.627  25.001  0.00  0.00    +0.110 C 
ENDROOT
BRANCH  10   7
ATOM      1  C   UNL     1      -5.667   1.902  25.694  0.00  0.00    +0.095 C 
ATOM      2  C   UNL     1      -5.376   2.270  25.016  0.00  0.00    +0.226 C 
ATOM      3  O   UNL     1      -5.755   2.158  24.291  0.00  0.00    -0.275 OA
ATOM      4  N   UNL     1      -4.707   2.750  25.060  0.00  0.00    -0.279 N 
ATOM      5  C   UNL     1      -4.416   3.118  24.382  0.00  0.00    +0.095 C 
ATOM      6  C   UNL     1      -3.747   3.598  24.426  0.00  0.00    +0.038 C 
ATOM      7  C   UNL     1      -3.368   3.710  25.151  0.00  0.00    +0.061 C 
ATOM      8  C   UNL     1      -3.658   3.342  25.830  0.00  0.00    +0.038 C 
ATOM      9  C   UNL     1      -4.327   2.862  25.785  0.00  0.00    +0.095 C 
ENDBRANCH  10   7
BRANCH  19  24
ATOM     24  C   UNL     1      -3.122   1.323  24.644  0.00  0.00    +0.001 A 
ATOM     25  C   UNL     1      -3.535   1.049  25.304  0.00  0.00    -0.000 A 
ATOM     26  C   UNL     1      -4.085   0.438  25.222  0.00  0.00    -0.000 A 
ATOM     27  C   UNL     1      -4.221   0.103  24.481  0.00  0.00    -0.000 A 
ATOM     28  C   UNL     1      -3.808   0.377  23.821  0.00  0.00    -0.004 A 
ATOM     29  C   UNL     1      -3.259   0.987  23.903  0.00  0.00    -0.022 A 
ATOM     30  C   UNL     1      -2.846   1.261  23.244  0.00  0.00    +0.031 C 
ENDBRANCH  19  24
TORSDOF 2
ENDMDL
MODEL 5
REMARK VINA RESULT:     -15.0      1.173      3.646
REMARK  Name = 
REMARK  2 active torsions:
REMARK  status: ('A' for Active; 'I' for Inactive)
REMARK    1  A    between atoms: C_7  and  N_10
REMARK    2  A    between atoms: C_19  and  C_24
REMARK                            x       y       z     vdW  Elec       q    Type
REMARK                         _______ _______ _______ _____ _____    ______ ____
ROOT
ATOM     10  N   UNL     1      -3.947  -0.638  24.276  0.00  0.00    -0.273 NA
ATOM     11  C   UNL     1      -4.348  -1.369  24.225  0.00  0.00    +0.074 C 
ATOM     12  C   UNL     1      -3.680  -1.955  24.658  0.00  0.00    +0.039 C 
ATOM     13  C   UNL     1      -3.244  -2.560  24.985  0.00  0.00    +0.011 C 
ATOM     14  C   UNL     1      -3.177  -1.869  24.883  0.00  0.00    +0.054 C 
ATOM     15  C   UNL     1      -3.832  -1.316  24.462  0.00  0.00    +0.078 C 
ATOM     16  C   UNL     1      -2.596  -1.172  25.027  0.00  0.00    +0.041 A 
ATOM     17  C   UNL     1      -1.855  -1.013  25.352  0.00  0.00    +0.013 A 
ATOM     18  C   UNL     1      -1.558  -0.243  25.346  0.00  0.00    +0.006 A 
ATOM     19  C   UNL     1      -2.003   0.368  25.014  0.00  0.00    +0.056 A 
ATOM     20  C   UNL     1      -2.744   0.209  24.689  0.00  0.00    +0.261 A 
ATOM     21  O   UNL     1      -2.752   1.018  24.529  0.00  0.00    -0.267 OA
ATOM     22  N   UNL     1      -3.041  -0.561  24.696  0.00  0.00    -0.299 N 
ATOM     23  C   UNL     1      -3.079  -1.220  24.805  0.00  0.00    +0.110 C 
ENDROOT
BRANCH  10   7
ATOM      1  C   UNL     1      -3.629   3.123  24.504  0.00  0.00    +0.095 C 
ATOM      2  C   UNL     1      -3.382   2.594  23.921  0.00  0.00    +0.226 C 
ATOM      3  O   UNL     1      -2.994   2.874  23.248  0.00  0.00    -0.275 OA
ATOM      4  N   UNL     1      -3.523   1.787  24.009  0.00  0.00    -0.279 N 
ATOM      5  C   UNL     1      -3.277   1.258  23.426  0.00  0.00    +0.095 C 
ATOM      6  C   UNL     1      -3.417   0.450  23.514  0.00  0.00    +0.038 C 
ATOM      7  C   UNL     1      -3.805   0.171  24.187  0.00  0.00    +0.061 C 
ATOM      8  C   UNL     1      -4.052   0.698  24.771  0.00  0.00    +0.038 C 
ATOM      9  C   UNL     1      -3.911   1.507  24.682  0.00  0.00    +0.095 C 
ENDBRANCH  10   7
BRANCH  19  24
ATOM     24  C   UNL     1      -1.706   1.137  25.008  0.00  0.00    +0.001 A 
ATOM     25  C   UNL     1      -2.058   1.719  25.474  0.00  0.00    -0.000 A 
ATOM     26  C   UNL     1      -1.760   2.490  25.467  0.00  0.00    -0.000 A 
ATOM     27  C   UNL     1      -1.110   2.676  24.994  0.00  0.00    -0.000 A 
ATOM     28  C   UNL     1      -0.759   2.093  24.528  0.00  0.00    -0.004 A 
ATOM     29  C   UNL     1      -1.056   1.324  24.535  0.00  0.00    -0.022 A 
ATOM     30  C   UNL     1      -0.705   0.742  24.068  0.00  0.00    +0.031 C 
ENDBRANCH  19  24
TORSDOF 2
ENDMDL
MODEL 6
REMARK VINA RESULT:     -14.9      0.791      2.045
REMARK  Name = 
REMARK  2 active torsions:
REMARK  status: ('A' for Active; 'I' for Inactive)
REMARK    1  A    between atoms: C_7  and  N_10
REMARK    2  A    between atoms: C_19  and  C_24
REMARK                            x       y       z     vdW  Elec       q    Type
REMARK                         _______ _______ _______ _____ _____    ______ ____
ROOT
ATOM     10  N   UNL     1      -4.549   1.295  24.654  0.00  0.00    -0.273 NA
ATOM     11  C   UNL     1      -5.116   1.904  24.583  0.00  0.00    +0.074 C 
ATOM     12  C   UNL     1      -4.528   2.691  24.689  0.00  0.00    +0.039 C 
ATOM     13  C   UNL     1      -4.187   3.428  24.756  0.00  0.00    +0.011 C 
ATOM     14  C   UNL     1      -3.980   2.757  24.772  0.00  0.00    +0.054 C 
ATOM     15  C   UNL     1      -4.562   2.007  24.668  0.00  0.00    +0.078 C 
ATOM     16  C   UNL     1      -3.230   2.236  24.872  0.00  0.00    +0.041 A 
ATOM     17  C   UNL     1      -2.417   2.301  24.994  0.00  0.00    +0.013 A 
ATOM     18  C   UNL     1      -1.953   1.621  25.048  0.00  0.00    +0.006 A 
ATOM     19  C   UNL     1      -2.301   0.877  24.979  0.00  0.00    +0.056 A 
ATOM     20  C   UNL     1      -3.114   0.812  24.857  0.00  0.00    +0.261 A 
ATOM     21  O   UNL     1      -2.963   0.001  24.861  0.00  0.00    -0.267 OA
ATOM     22  N   UNL     1      -3.579   1.491  24.803  0.00  0.00    -0.299 N 
ATOM     23  C   UNL     1      -3.749   2.139  24.792  0.00  0.00    +0.110 C 
ENDROOT
BRANCH  10   7
ATOM      1  C   UNL     1      -3.275  -2.166  25.487  0.00  0.00    +0.095 C 
ATOM      2  C   UNL     1      -3.317  -1.765  24.768  0.00  0.00    +0.226 C 
ATOM      3  O   UNL     1      -3.051  -2.128  24.076  0.00  0.00    -0.275 OA
ATOM      4  N   UNL     1      -3.625  -1.000  24.739  0.00  0.00    -0.279 N 
ATOM      5  C   UNL     1      -3.667  -0.599  24.020  0.00  0.00    +0.095 C 
ATOM      6  C   UNL     1      -3.975   0.166  23.991  0.00  0.00    +0.038 C 
ATOM      7  C   UNL     1      -4.241   0.530  24.683  0.00  0.00    +0.061 C 
ATOM      8  C   UNL     1      -4.199   0.129  25.402  0.00  0.00    +0.038 C 
ATOM      9  C   UNL     1      -3.891  -0.636  25.430  0.00  0.00    +0.095 C 
ENDBRANCH  10   7
BRANCH  19  24
ATOM     24  C   UNL     1      -1.836   0.198  25.033  0.00  0.00    +0.001 A 
ATOM     25  C   UNL     1      -1.919  -0.309  25.678  0.00  0.00    -0.000 A 
ATOM     26  C   UNL     1      -1.454  -0.989  25.732  0.00  0.00    -0.000 A 
ATOM     27  C   UNL     1      -0.906  -1.160  25.139  0.00  0.00    -0.000 A 
ATOM     28  C   UNL     1      -0.823  -0.653  24.494  0.00  0.00    -0.004 A 
ATOM     29  C   UNL     1      -1.288   0.026  24.441  0.00  0.00    -0.022 A 
ATOM     30  C   UNL     1      -1.205   0.533  23.796  0.00  0.00    +0.031 C 
ENDBRANCH  19  24
TORSDOF 2
ENDMDL
MODEL 7
REMARK VINA RESULT:     -14.6      2.029      3.144
REMARK  Name = 
REMARK  2 active torsions:
REMARK  status: ('A' for Active; 'I' for Inactive)
REMARK    1  A    between atoms: C_7  and  N_10
REMARK    2  A    between atoms: C_19  and  C_24
REMARK                            x       y       z     vdW  Elec       q    Type
REMARK                         _______ _______ _______ _____ _____    ______ ____
ROOT
ATOM     10  N   UNL     1      -4.655   3.237  25.384  0.00  0.00    -0.273 NA
ATOM     11  C   UNL     1      -5.456   3.380  25.575  0.00  0.00    +0.074 C 
ATOM     12  C   UNL     1      -5.839   2.497  25.352  0.00  0.00    +0.039 C 
ATOM     13  C   UNL     1      -6.302   1.840  25.218  0.00  0.00    +0.011 C 
ATOM     14  C   UNL     1      -5.626   2.020  25.156  0.00  0.00    +0.054 C 
ATOM     15  C   UNL     1      -5.271   2.879  25.376  0.00  0.00    +0.078 C 
ATOM     16  C   UNL     1      -4.811   1.683  24.899  0.00  0.00    +0.041 A 
ATOM     17  C   UNL     1      -4.466   0.992  24.609  0.00  0.00    +0.013 A 
ATOM     18  C   UNL     1      -3.656   0.969  24.455  0.00  0.00    +0.006 A 
ATOM     19  C   UNL     1      -3.191   1.636  24.593  0.00  0.00    +0.056 A 
ATOM     20  C   UNL     1      -3.535   2.327  24.883  0.00  0.00    +0.261 A 
ATOM     21  O   UNL     1      -2.767   2.624  24.843  0.00  0.00    -0.267 OA
ATOM     22  N   UNL     1      -4.346   2.350  25.036  0.00  0.00    -0.299 N 
ATOM     23  C   UNL     1      -4.983   2.153  25.085  0.00  0.00    +0.110 C 
ENDROOT
BRANCH  10   7
ATOM      1  C   UNL     1      -0.908   3.683  25.622  0.00  0.00    +0.095 C 
ATOM      2  C   UNL     1      -1.431   3.825  25.000  0.00  0.00    +0.226 C 
ATOM      3  O   UNL     1      -1.147   4.114  24.281  0.00  0.00    -0.275 OA
ATOM      4  N   UNL     1      -2.237   3.678  25.095  0.00  0.00    -0.279 N 
ATOM      5  C   UNL     1      -2.759   3.820  24.474  0.00  0.00    +0.095 C 
ATOM      6  C   UNL     1      -3.565   3.673  24.569  0.00  0.00    +0.038 C 
ATOM      7  C   UNL     1      -3.849   3.384  25.288  0.00  0.00    +0.061 C 
ATOM      8  C   UNL     1      -3.327   3.242  25.911  0.00  0.00    +0.038 C 
ATOM      9  C   UNL     1      -2.520   3.389  25.815  0.00  0.00    +0.095 C 
ENDBRANCH  10   7
BRANCH  19  24
ATOM     24  C   UNL     1      -2.381   1.612  24.439  0.00  0.00    +0.001 A 
ATOM     25  C   UNL     1      -1.842   1.625  25.063  0.00  0.00    -0.000 A 
ATOM     26  C   UNL     1      -1.031   1.601  24.909  0.00  0.00    -0.000 A 
ATOM     27  C   UNL     1      -0.761   1.564  24.131  0.00  0.00    -0.000 A 
ATOM     28  C   UNL     1      -1.300   1.550  23.506  0.00  0.00    -0.004 A 
ATOM     29  C   UNL     1      -2.110   1.575  23.661  0.00  0.00    -0.022 A 
ATOM     30  C   UNL     1      -2.649   1.561  23.037  0.00  0.00    +0.031 C 
ENDBRANCH  19  24
TORSDOF 2
ENDMDL
