MODEL 1
REMARK VINA RESULT:     -13.5      0.000      0.000
REMARK  Name = 
REMARK  7 active torsions:
REMARK  status: ('A' for Active; 'I' for Inactive)
REMARK    1  A    between atoms: C_5  and  N_6
REMARK    2  A    between atoms: C_7  and  C_9
REMARK    3  A    between atoms: C_15  and  C_16
REMARK    4  A    between atoms: C_16  and  C_17
REMARK    5  A    between atoms: C_17  and  C_18
REMARK    6  A    between atoms: N_20  and  C_21
REMARK    7  A    between atoms: C_21  and  C_22
REMARK                            x       y       z     vdW  Elec       q    Type
REMARK                         _______ _______ _______ _____ _____    ______ ____
ROOT
ATOM      1  C   UNL     1      -5.839   2.289  25.282  0.00  0.00    +0.000 C 
ATOM      2  C   UNL     1      -5.035   2.455  25.200  0.00  0.00    +0.002 C 
ATOM      3  C   UNL     1      -5.274   3.238  25.304  0.00  0.00    +0.000 C 
ATOM      4  C   UNL     1      -4.963   1.639  25.114  0.00  0.00    +0.022 C 
ATOM      5  C   UNL     1      -4.165   1.463  25.000  0.00  0.00    +0.096 C 
ATOM     15  C   UNL     1      -3.743   2.172  25.016  0.00  0.00    +0.019 C 
ATOM     27  C   UNL     1      -2.939   2.339  24.935  0.00  0.00    +0.004 C 
ATOM     28  C   UNL     1      -2.673   3.118  24.977  0.00  0.00    +0.030 C 
ATOM     29  C   UNL     1      -3.211   3.732  25.101  0.00  0.00    +0.127 C 
ATOM     30  C   UNL     1      -2.509   4.163  25.057  0.00  0.00    +0.033 C 
ATOM     31  O   UNL     1      -3.504   4.495  25.209  0.00  0.00    -0.226 OA
ATOM     32  C   UNL     1      -4.014   3.565  25.182  0.00  0.00    +0.030 C 
ATOM     33  C   UNL     1      -4.281   2.785  25.140  0.00  0.00    +0.004 C 
ENDROOT
BRANCH   5   6
ATOM      6  N   UNL     1      -3.845   0.711  24.889  0.00  0.00    -0.203 NA
ATOM      7  C   UNL     1      -4.336   0.048  24.898  0.00  0.00    +0.265 C 
ATOM      8  O   UNL     1      -5.147   0.137  25.017  0.00  0.00    -0.268 OA
BRANCH   7   9
ATOM      9  C   UNL     1      -4.015  -0.704  24.787  0.00  0.00    +0.055 A 
ATOM     10  C   UNL     1      -3.731  -1.131  25.433  0.00  0.00    +0.005 A 
ATOM     11  C   UNL     1      -3.411  -1.883  25.322  0.00  0.00    +0.000 A 
ATOM     12  C   UNL     1      -3.375  -2.208  24.565  0.00  0.00    +0.000 A 
ATOM     13  C   UNL     1      -3.659  -1.782  23.919  0.00  0.00    +0.000 A 
ATOM     14  C   UNL     1      -3.979  -1.030  24.029  0.00  0.00    +0.005 A 
ENDBRANCH   7   9
ENDBRANCH   5   6
BRANCH  15  16
ATOM     16  C   UNL     1      -3.273   1.505  24.896  0.00  0.00    +0.011 C 
BRANCH  16  17
ATOM     17  C   UNL     1      -2.558   1.573  24.490  0.00  0.00    +0.087 C 
BRANCH  17  18
ATOM     18  C   UNL     1      -1.892   1.167  24.759  0.00  0.00    +0.242 C 
ATOM     19  O   UNL     1      -1.796   1.020  25.565  0.00  0.00    -0.273 OA
ATOM     20  N   UNL     1      -1.322   0.909  24.222  0.00  0.00    -0.197 NA
BRANCH  20  21
ATOM     21  C   UNL     1      -0.655   0.504  24.491  0.00  0.00    +0.179 C 
BRANCH  21  22
ATOM     22  C   UNL     1      -0.104   0.212  23.950  0.00  0.00    +0.145 A 
ATOM     23  C   UNL     1      -0.009  -0.580  23.735  0.00  0.00    +0.038 A 
ATOM     24  C   UNL     1       0.601  -0.622  23.182  0.00  0.00    +0.043 A 
ATOM     25  C   UNL     1       0.884   0.143  23.055  0.00  0.00    +0.179 A 
ATOM     26  O   UNL     1       0.447   0.657  23.530  0.00  0.00    -0.453 OA
ENDBRANCH  21  22
ENDBRANCH  20  21
ENDBRANCH  17  18
ENDBRANCH  16  17
ENDBRANCH  15  16
TORSDOF 7
ENDMDL
MODEL 2
REMARK VINA RESULT:     -13.3      1.414      5.021
REMARK  Name = 
REMARK  7 active torsions:
REMARK  status: ('A' for Active; 'I' for Inactive)
REMARK    1  A    between atoms: C_5  and  N_6
REMARK    2  A    between atoms: C_7  and  C_9
REMARK    3  A    between atoms: C_15  and  C_16
REMARK    4  A    between atoms: C_16  and  C_17
REMARK    5  A    between atoms: C_17  and  C_18
REMARK    6  A    between atoms: N_20  and  C_21
REMARK    7  A    between atoms: C_21  and  C_22
REMARK                            x       y       z     vdW  Elec       q    Type
REMARK                         _______ _______ _______ _____ _____    ______ ____
ROOT
ATOM      1  C   UNL     1      -0.635  -1.846  24.976  0.00  0.00    +0.000 C 
ATOM      2  C   UNL     1      -1.420  -1.652  24.809  0.00  0.00    +0.002 C 
ATOM      3  C   UNL     1      -1.515  -2.468  24.738  0.00  0.00    +0.000 C 
ATOM      4  C   UNL     1      -1.160  -0.876  24.915  0.00  0.00    +0.022 C 
ATOM      5  C   UNL     1      -1.804  -0.374  24.799  0.00  0.00    +0.096 C 
ATOM     15  C   UNL     1      -2.462  -0.839  24.621  0.00  0.00    +0.019 C 
ATOM     27  C   UNL     1      -3.246  -0.645  24.455  0.00  0.00    +0.004 C 
ATOM     28  C   UNL     1      -3.793  -1.241  24.295  0.00  0.00    +0.030 C 
ATOM     29  C   UNL     1      -3.556  -2.032  24.301  0.00  0.00    +0.127 C 
ATOM     30  C   UNL     1      -4.354  -2.124  24.114  0.00  0.00    +0.033 C 
ATOM     31  O   UNL     1      -3.596  -2.853  24.242  0.00  0.00    -0.226 OA
ATOM     32  C   UNL     1      -2.772  -2.225  24.467  0.00  0.00    +0.030 C 
ATOM     33  C   UNL     1      -2.224  -1.629  24.628  0.00  0.00    +0.004 C 
ENDROOT
BRANCH   5   6
ATOM      6  N   UNL     1      -1.792   0.450  24.852  0.00  0.00    -0.203 NA
ATOM      7  C   UNL     1      -1.081   0.844  24.993  0.00  0.00    +0.265 C 
ATOM      8  O   UNL     1      -0.382   0.415  25.082  0.00  0.00    -0.268 OA
BRANCH   7   9
ATOM      9  C   UNL     1      -1.070   1.667  25.046  0.00  0.00    +0.055 A 
ATOM     10  C   UNL     1      -1.186   2.036  25.774  0.00  0.00    +0.005 A 
ATOM     11  C   UNL     1      -1.174   2.860  25.827  0.00  0.00    +0.000 A 
ATOM     12  C   UNL     1      -1.046   3.314  25.151  0.00  0.00    +0.000 A 
ATOM     13  C   UNL     1      -0.929   2.945  24.422  0.00  0.00    +0.000 A 
ATOM     14  C   UNL     1      -0.941   2.122  24.369  0.00  0.00    +0.005 A 
ENDBRANCH   7   9
ENDBRANCH   5   6
BRANCH  15  16
ATOM     16  C   UNL     1      -2.617  -0.029  24.635  0.00  0.00    +0.011 C 
BRANCH  16  17
ATOM     17  C   UNL     1      -3.368   0.243  24.844  0.00  0.00    +0.087 C 
BRANCH  17  18
ATOM     18  C   UNL     1      -3.701   0.883  24.443  0.00  0.00    +0.242 C 
ATOM     19  O   UNL     1      -3.540   0.997  23.642  0.00  0.00    -0.273 OA
ATOM     20  N   UNL     1      -4.195   1.408  24.844  0.00  0.00    -0.197 NA
BRANCH  20  21
ATOM     21  C   UNL     1      -4.528   2.049  24.443  0.00  0.00    +0.179 C 
BRANCH  21  22
ATOM     22  C   UNL     1      -4.842   2.682  24.868  0.00  0.00    +0.145 A 
ATOM     23  C   UNL     1      -5.514   2.658  25.347  0.00  0.00    +0.038 A 
ATOM     24  C   UNL     1      -5.627   3.411  25.664  0.00  0.00    +0.043 A 
ATOM     25  C   UNL     1      -5.027   3.901  25.380  0.00  0.00    +0.179 A 
ATOM     26  O   UNL     1      -4.542   3.450  24.888  0.00  0.00    -0.453 OA
ENDBRANCH  21  22
ENDBRANCH  20  21
ENDBRANCH  17  18
ENDBRANCH  16  17
ENDBRANCH  15  16
TORSDOF 7
ENDMDL
MODEL 3
REMARK VINA RESULT:     -13.1      1.447      3.988
REMARK  Name = 
REMARK  7 active torsions:
REMARK  status: ('A' for Active; 'I' for Inactive)
REMARK    1  A    between atoms: C_5  and  N_6
REMARK    2  A    between atoms: C_7  and  C_9
REMARK    3  A    between atoms: C_15  and  C_16
REMARK    4  A    between atoms: C_16  and  C_17
REMARK    5  A    between atoms: C_17  and  C_18
REMARK    6  A    between atoms: N_20  and  C_21
REMARK    7  A    between atoms: C_21  and  C_22
REMARK                            x       y       z     vdW  Elec       q    Type
REMARK                         _______ _______ _______ _____ _____    ______ ____
ROOT
ATOM      1  C   UNL     1      -4.394  -1.873  24.110  0.00  0.00    +0.000 C 
ATOM      2  C   UNL     1      -3.646  -1.603  24.333  0.00  0.00    +0.002 C 
ATOM      3  C   UNL     1      -3.434  -2.397  24.264  0.00  0.00    +0.000 C 
ATOM      4  C   UNL     1      -4.014  -0.865  24.355  0.00  0.00    +0.022 C 
ATOM      5  C   UNL     1      -3.450  -0.305  24.577  0.00  0.00    +0.096 C 
ATOM     15  C   UNL     1      -2.733  -0.697  24.692  0.00  0.00    +0.019 C 
ATOM     27  C   UNL     1      -1.985  -0.428  24.914  0.00  0.00    +0.004 C 
ATOM     28  C   UNL     1      -1.360  -0.960  24.986  0.00  0.00    +0.030 C 
ATOM     29  C   UNL     1      -1.481  -1.762  24.835  0.00  0.00    +0.127 C 
ATOM     30  C   UNL     1      -0.679  -1.773  25.028  0.00  0.00    +0.033 C 
ATOM     31  O   UNL     1      -1.323  -2.567  24.751  0.00  0.00    -0.226 OA
ATOM     32  C   UNL     1      -2.228  -2.032  24.612  0.00  0.00    +0.030 C 
ATOM     33  C   UNL     1      -2.854  -1.499  24.541  0.00  0.00    +0.004 C 
ENDROOT
BRANCH   5   6
ATOM      6  N   UNL     1      -3.580   0.504  24.668  0.00  0.00    -0.203 NA
ATOM      7  C   UNL     1      -4.341   0.812  24.587  0.00  0.00    +0.265 C 
ATOM      8  O   UNL     1      -4.973   0.309  24.415  0.00  0.00    -0.268 OA
BRANCH   7   9
ATOM      9  C   UNL     1      -4.471   1.621  24.678  0.00  0.00    +0.055 A 
ATOM     10  C   UNL     1      -4.366   2.131  24.038  0.00  0.00    +0.005 A 
ATOM     11  C   UNL     1      -4.495   2.941  24.129  0.00  0.00    +0.000 A 
ATOM     12  C   UNL     1      -4.731   3.241  24.860  0.00  0.00    +0.000 A 
ATOM     13  C   UNL     1      -4.836   2.732  25.501  0.00  0.00    +0.000 A 
ATOM     14  C   UNL     1      -4.706   1.922  25.410  0.00  0.00    +0.005 A 
ENDBRANCH   7   9
ENDBRANCH   5   6
BRANCH  15  16
ATOM     16  C   UNL     1      -2.696   0.116  24.824  0.00  0.00    +0.011 C 
BRANCH  16  17
ATOM     17  C   UNL     1      -1.996   0.526  24.672  0.00  0.00    +0.087 C 
BRANCH  17  18
ATOM     18  C   UNL     1      -1.741   1.113  25.193  0.00  0.00    +0.242 C 
ATOM     19  O   UNL     1      -1.865   1.027  26.004  0.00  0.00    -0.273 OA
ATOM     20  N   UNL     1      -1.361   1.785  24.903  0.00  0.00    -0.197 NA
BRANCH  20  21
ATOM     21  C   UNL     1      -1.106   2.372  25.425  0.00  0.00    +0.179 C 
BRANCH  21  22
ATOM     22  C   UNL     1      -0.967   3.137  25.148  0.00  0.00    +0.145 A 
ATOM     23  C   UNL     1      -1.214   3.836  25.512  0.00  0.00    +0.038 A 
ATOM     24  C   UNL     1      -0.957   4.468  25.049  0.00  0.00    +0.043 A 
ATOM     25  C   UNL     1      -0.552   4.161  24.399  0.00  0.00    +0.179 A 
ATOM     26  O   UNL     1      -0.558   3.338  24.461  0.00  0.00    -0.453 OA
ENDBRANCH  21  22
ENDBRANCH  20  21
ENDBRANCH  17  18
ENDBRANCH  16  17
ENDBRANCH  15  16
TORSDOF 7
ENDMDL
MODEL 4
REMARK VINA RESULT:     -13.1      0.961      3.217
REMARK  Name = 
REMARK  7 active torsions:
REMARK  status: ('A' for Active; 'I' for Inactive)
REMARK    1  A    between atoms: C_5  and  N_6
REMARK    2  A    between atoms: C_7  and  C_9
REMARK    3  A    between atoms: C_15  and  C_16
REMARK    4  A    between atoms: C_16  and  C_17
REMARK    5  A    between atoms: C_17  and  C_18
REMARK    6  A    between atoms: N_20  and  C_21
REMARK    7  A    between atoms: C_21  and  C_22
REMARK                            x       y       z     vdW  Elec       q    Type
REMARK                         _______ _______ _______ _____ _____    ______ ____
ROOT
ATOM      1  C   UNL     1      -1.616   4.137  25.452  0.00  0.00    +0.000 C 
ATOM      2  C   UNL     1      -2.307   3.697  25.352  0.00  0.00    +0.002 C 
ATOM      3  C   UNL     1      -2.683   4.404  25.548  0.00  0.00    +0.000 C 
ATOM      4  C   UNL     1      -1.787   3.081  25.177  0.00  0.00    +0.022 C 
ATOM      5  C   UNL     1      -2.235   2.409  25.010  0.00  0.00    +0.096 C 
ATOM     15  C   UNL     1      -3.033   2.609  25.082  0.00  0.00    +0.019 C 
ATOM     27  C   UNL     1      -3.723   2.169  24.983  0.00  0.00    +0.004 C 
ATOM     28  C   UNL     1      -4.459   2.526  25.095  0.00  0.00    +0.030 C 
ATOM     29  C   UNL     1      -4.503   3.322  25.307  0.00  0.00    +0.127 C 
ATOM     30  C   UNL     1      -5.307   3.137  25.277  0.00  0.00    +0.033 C 
ATOM     31  O   UNL     1      -4.827   4.054  25.508  0.00  0.00    -0.226 OA
ATOM     32  C   UNL     1      -3.812   3.761  25.406  0.00  0.00    +0.030 C 
ATOM     33  C   UNL     1      -3.076   3.405  25.294  0.00  0.00    +0.004 C 
ENDROOT
BRANCH   5   6
ATOM      6  N   UNL     1      -1.938   1.666  24.807  0.00  0.00    -0.203 NA
ATOM      7  C   UNL     1      -1.124   1.536  24.798  0.00  0.00    +0.265 C 
ATOM      8  O   UNL     1      -0.606   2.148  24.992  0.00  0.00    -0.268 OA
BRANCH   7   9
ATOM      9  C   UNL     1      -0.827   0.793  24.594  0.00  0.00    +0.055 A 
ATOM     10  C   UNL     1      -0.729   0.215  25.174  0.00  0.00    +0.005 A 
ATOM     11  C   UNL     1      -0.432  -0.528  24.971  0.00  0.00    +0.000 A 
ATOM     12  C   UNL     1      -0.233  -0.691  24.188  0.00  0.00    +0.000 A 
ATOM     13  C   UNL     1      -0.331  -0.113  23.607  0.00  0.00    +0.000 A 
ATOM     14  C   UNL     1      -0.627   0.629  23.810  0.00  0.00    +0.005 A 
ENDBRANCH   7   9
ENDBRANCH   5   6
BRANCH  15  16
ATOM     16  C   UNL     1      -2.902   1.822  24.872  0.00  0.00    +0.011 C 
BRANCH  16  17
ATOM     17  C   UNL     1      -3.477   1.252  25.030  0.00  0.00    +0.087 C 
BRANCH  17  18
ATOM     18  C   UNL     1      -3.648   0.672  24.468  0.00  0.00    +0.242 C 
ATOM     19  O   UNL     1      -3.633   0.858  23.665  0.00  0.00    -0.273 OA
ATOM     20  N   UNL     1      -3.832  -0.094  24.711  0.00  0.00    -0.197 NA
BRANCH  20  21
ATOM     21  C   UNL     1      -4.003  -0.675  24.149  0.00  0.00    +0.179 C 
BRANCH  21  22
ATOM     22  C   UNL     1      -3.897  -1.472  24.336  0.00  0.00    +0.145 A 
ATOM     23  C   UNL     1      -4.020  -2.109  23.826  0.00  0.00    +0.038 A 
ATOM     24  C   UNL     1      -3.850  -2.802  24.238  0.00  0.00    +0.043 A 
ATOM     25  C   UNL     1      -3.621  -2.595  25.003  0.00  0.00    +0.179 A 
ATOM     26  O   UNL     1      -3.651  -1.772  25.063  0.00  0.00    -0.453 OA
ENDBRANCH  21  22
ENDBRANCH  20  21
ENDBRANCH  17  18
ENDBRANCH  16  17
ENDBRANCH  15  16
TORSDOF 7
ENDMDL
MODEL 5
REMARK VINA RESULT:     -12.7      1.296      3.521
REMARK  Name = 
REMARK  7 active torsions:
REMARK  status: ('A' for Active; 'I' for Inactive)
REMARK    1  A    between atoms: C_5  and  N_6
REMARK    2  A    between atoms: C_7  and  C_9
REMARK    3  A    between atoms: C_15  and  C_16
REMARK    4  A    between atoms: C_16  and  C_17
REMARK    5  A    between atoms: C_17  and  C_18
REMARK    6  A    between atoms: N_20  and  C_21
REMARK    7  A    between atoms: C_21  and  C_22
REMARK                            x       y       z     vdW  Elec       q    Type
REMARK                         _______ _______ _______ _____ _____    ______ ____
ROOT
ATOM      1  C   UNL     1      -1.903   4.742  25.374  0.00  0.00    +0.000 C 
ATOM      2  C   UNL     1      -1.687   3.978  25.146  0.00  0.00    +0.002 C 
ATOM      3  C   UNL     1      -0.926   4.296  25.117  0.00  0.00    +0.000 C 
ATOM      4  C   UNL     1      -2.492   3.820  25.223  0.00  0.00    +0.022 C 
ATOM      5  C   UNL     1      -2.616   3.026  25.037  0.00  0.00    +0.096 C 
ATOM     15  C   UNL     1      -1.885   2.693  24.845  0.00  0.00    +0.019 C 
ATOM     27  C   UNL     1      -1.669   1.930  24.617  0.00  0.00    +0.004 C 
ATOM     28  C   UNL     1      -0.879   1.756  24.457  0.00  0.00    +0.030 C 
ATOM     29  C   UNL     1      -0.305   2.345  24.525  0.00  0.00    +0.127 C 
ATOM     30  C   UNL     1       0.168   1.710  24.293  0.00  0.00    +0.033 C 
ATOM     31  O   UNL     1       0.433   2.712  24.512  0.00  0.00    -0.226 OA
ATOM     32  C   UNL     1      -0.521   3.107  24.753  0.00  0.00    +0.030 C 
ATOM     33  C   UNL     1      -1.312   3.282  24.913  0.00  0.00    +0.004 C 
ENDROOT
BRANCH   5   6
ATOM      6  N   UNL     1      -3.341   2.634  25.042  0.00  0.00    -0.203 NA
ATOM      7  C   UNL     1      -4.028   3.038  25.254  0.00  0.00    +0.265 C 
ATOM      8  O   UNL     1      -3.989   3.836  25.462  0.00  0.00    -0.268 OA
BRANCH   7   9
ATOM      9  C   UNL     1      -4.754   2.646  25.259  0.00  0.00    +0.055 A 
ATOM     10  C   UNL     1      -5.039   2.313  25.958  0.00  0.00    +0.005 A 
ATOM     11  C   UNL     1      -5.764   1.920  25.963  0.00  0.00    +0.000 A 
ATOM     12  C   UNL     1      -6.205   1.861  25.269  0.00  0.00    +0.000 A 
ATOM     13  C   UNL     1      -5.921   2.193  24.569  0.00  0.00    +0.000 A 
ATOM     14  C   UNL     1      -5.195   2.586  24.564  0.00  0.00    +0.005 A 
ENDBRANCH   7   9
ENDBRANCH   5   6
BRANCH  15  16
ATOM     16  C   UNL     1      -2.517   2.164  24.801  0.00  0.00    +0.011 C 
BRANCH  16  17
ATOM     17  C   UNL     1      -2.383   1.355  24.880  0.00  0.00    +0.087 C 
BRANCH  17  18
ATOM     18  C   UNL     1      -2.786   0.821  24.396  0.00  0.00    +0.242 C 
ATOM     19  O   UNL     1      -2.988   1.034  23.625  0.00  0.00    -0.273 OA
ATOM     20  N   UNL     1      -2.988   0.075  24.685  0.00  0.00    -0.197 NA
BRANCH  20  21
ATOM     21  C   UNL     1      -3.391  -0.459  24.201  0.00  0.00    +0.179 C 
BRANCH  21  22
ATOM     22  C   UNL     1      -3.495  -1.240  24.447  0.00  0.00    +0.145 A 
ATOM     23  C   UNL     1      -3.865  -1.838  24.015  0.00  0.00    +0.038 A 
ATOM     24  C   UNL     1      -3.847  -2.528  24.468  0.00  0.00    +0.043 A 
ATOM     25  C   UNL     1      -3.465  -2.356  25.179  0.00  0.00    +0.179 A 
ATOM     26  O   UNL     1      -3.248  -1.560  25.165  0.00  0.00    -0.453 OA
ENDBRANCH  21  22
ENDBRANCH  20  21
ENDBRANCH  17  18
ENDBRANCH  16  17
ENDBRANCH  15  16
TORSDOF 7
ENDMDL
