MODEL 1
REMARK VINA RESULT:     -10.0      0.000      0.000
REMARK  Name = 
REMARK  9 active torsions:
REMARK  status: ('A' for Active; 'I' for Inactive)
REMARK    1  A    between atoms: C_2  and  C_3
REMARK    2  A    between atoms: C_3  and  C_4
REMARK    3  A    between atoms: C_4  and  C_5
REMARK    4  A    between atoms: C_7  and  C_8
REMARK    5  A    between atoms: C_8  and  C_9
REMARK    6  A    between atoms: C_14  and  C_15
REMARK    7  A    between atoms: C_15  and  C_16
REMARK    8  A    between atoms: N_18  and  C_19
REMARK    9  A    between atoms: N_18  and  C_21
REMARK                            x       y       z     vdW  Elec       q    Type
REMARK                         _______ _______ _______ _____ _____    ______ ____
ROOT
ATOM      9  C   UNL     1      -4.288   2.201  24.805  0.00  0.00    +0.024 C 
ATOM     10  C   UNL     1      -5.103   2.086  24.858  0.00  0.00    +0.089 C 
ATOM     11  N   UNL     1      -5.582   2.671  25.189  0.00  0.00    -0.218 NA
ATOM     12  C   UNL     1      -5.245   3.371  25.469  0.00  0.00    +0.089 C 
ATOM     13  C   UNL     1      -4.430   3.485  25.416  0.00  0.00    +0.019 C 
ATOM     14  C   UNL     1      -3.951   2.900  25.084  0.00  0.00    +0.012 C 
ENDROOT
BRANCH   9   8
ATOM      8  C   UNL     1      -3.809   1.616  24.473  0.00  0.00    +0.051 C 
BRANCH   8   7
ATOM      5  C   UNL     1      -4.146  -0.492  24.483  0.00  0.00    +0.154 A 
ATOM      6  C   UNL     1      -3.977   0.208  24.082  0.00  0.00    +0.054 A 
ATOM      7  C   UNL     1      -3.958   0.821  24.635  0.00  0.00    +0.100 A 
ATOM     23  N   UNL     1      -4.116   0.499  25.377  0.00  0.00    -0.082 NA
ATOM     24  O   UNL     1      -4.231  -0.313  25.285  0.00  0.00    -0.358 OA
BRANCH   5   4
ATOM      4  C   UNL     1      -4.216  -1.241  24.144  0.00  0.00    +0.067 C 
BRANCH   4   3
ATOM      3  C   UNL     1      -3.789  -1.876  24.453  0.00  0.00    +0.008 C 
BRANCH   3   2
ATOM      1  C   UNL     1      -3.441  -3.262  24.427  0.00  0.00    +0.000 C 
ATOM      2  C   UNL     1      -3.843  -2.620  24.100  0.00  0.00    +0.000 C 
ENDBRANCH   3   2
ENDBRANCH   4   3
ENDBRANCH   5   4
ENDBRANCH   8   7
ENDBRANCH   9   8
BRANCH  14  15
ATOM     15  C   UNL     1      -3.137   3.015  25.032  0.00  0.00    +0.085 C 
BRANCH  15  16
ATOM     16  C   UNL     1      -2.821   3.774  25.110  0.00  0.00    +0.226 C 
ATOM     17  O   UNL     1      -3.306   4.434  25.013  0.00  0.00    -0.275 OA
ATOM     18  N   UNL     1      -2.020   3.872  25.284  0.00  0.00    -0.280 N 
BRANCH  18  19
ATOM     19  C   UNL     1      -1.705   4.630  25.361  0.00  0.00    +0.093 C 
ATOM     20  C   UNL     1      -1.061   4.859  24.899  0.00  0.00    +0.023 C 
ENDBRANCH  18  19
BRANCH  18  21
ATOM     21  C   UNL     1      -1.535   3.212  25.381  0.00  0.00    +0.093 C 
ATOM     22  C   UNL     1      -0.919   3.229  25.929  0.00  0.00    +0.023 C 
ENDBRANCH  18  21
ENDBRANCH  15  16
ENDBRANCH  14  15
TORSDOF 9
ENDMDL
MODEL 2
REMARK VINA RESULT:      -9.1      1.355      5.028
REMARK  Name = 
REMARK  9 active torsions:
REMARK  status: ('A' for Active; 'I' for Inactive)
REMARK    1  A    between atoms: C_2  and  C_3
REMARK    2  A    between atoms: C_3  and  C_4
REMARK    3  A    between atoms: C_4  and  C_5
REMARK    4  A    between atoms: C_7  and  C_8
REMARK    5  A    between atoms: C_8  and  C_9
REMARK    6  A    between atoms: C_14  and  C_15
REMARK    7  A    between atoms: C_15  and  C_16
REMARK    8  A    between atoms: N_18  and  C_19
REMARK    9  A    between atoms: N_18  and  C_21
REMARK                            x       y       z     vdW  Elec       q    Type
REMARK                         _______ _______ _______ _____ _____    ______ ____
ROOT
ATOM      9  C   UNL     1      -3.335   1.008  24.592  0.00  0.00    +0.024 C 
ATOM     10  C   UNL     1      -3.781   1.686  24.742  0.00  0.00    +0.089 C 
ATOM     11  N   UNL     1      -4.564   1.618  24.994  0.00  0.00    -0.218 NA
ATOM     12  C   UNL     1      -4.900   0.871  25.096  0.00  0.00    +0.089 C 
ATOM     13  C   UNL     1      -4.454   0.194  24.946  0.00  0.00    +0.019 C 
ATOM     14  C   UNL     1      -3.671   0.262  24.694  0.00  0.00    +0.012 C 
ENDROOT
BRANCH   9   8
ATOM      8  C   UNL     1      -2.552   1.077  24.339  0.00  0.00    +0.051 C 
BRANCH   8   7
ATOM      5  C   UNL     1      -1.334   2.751  24.863  0.00  0.00    +0.154 A 
ATOM      6  C   UNL     1      -1.826   2.356  24.331  0.00  0.00    +0.054 A 
ATOM      7  C   UNL     1      -2.058   1.644  24.678  0.00  0.00    +0.100 A 
ATOM     23  N   UNL     1      -1.710   1.599  25.425  0.00  0.00    -0.082 NA
ATOM     24  O   UNL     1      -1.262   2.283  25.539  0.00  0.00    -0.358 OA
BRANCH   5   4
ATOM      4  C   UNL     1      -0.977   3.483  24.740  0.00  0.00    +0.067 C 
BRANCH   4   3
ATOM      3  C   UNL     1      -1.318   4.166  25.054  0.00  0.00    +0.008 C 
BRANCH   3   2
ATOM      1  C   UNL     1      -1.387   5.594  25.039  0.00  0.00    +0.000 C 
ATOM      2  C   UNL     1      -0.953   4.899  24.941  0.00  0.00    +0.000 C 
ENDBRANCH   3   2
ENDBRANCH   4   3
ENDBRANCH   5   4
ENDBRANCH   8   7
ENDBRANCH   9   8
BRANCH  14  15
ATOM     15  C   UNL     1      -3.226  -0.415  24.544  0.00  0.00    +0.085 C 
BRANCH  15  16
ATOM     16  C   UNL     1      -3.599  -1.108  24.295  0.00  0.00    +0.226 C 
ATOM     17  O   UNL     1      -4.348  -1.072  23.952  0.00  0.00    -0.275 OA
ATOM     18  N   UNL     1      -3.223  -1.836  24.390  0.00  0.00    -0.280 N 
BRANCH  18  19
ATOM     19  C   UNL     1      -3.596  -2.529  24.141  0.00  0.00    +0.093 C 
ATOM     20  C   UNL     1      -3.616  -3.188  24.636  0.00  0.00    +0.023 C 
ENDBRANCH  18  19
BRANCH  18  21
ATOM     21  C   UNL     1      -2.474  -1.872  24.733  0.00  0.00    +0.093 C 
ATOM     22  C   UNL     1      -1.902  -2.381  24.425  0.00  0.00    +0.023 C 
ENDBRANCH  18  21
ENDBRANCH  15  16
ENDBRANCH  14  15
TORSDOF 9
ENDMDL
MODEL 3
REMARK VINA RESULT:      -8.7      2.477      5.741
REMARK  Name = 
REMARK  9 active torsions:
REMARK  status: ('A' for Active; 'I' for Inactive)
REMARK    1  A    between atoms: C_2  and  C_3
REMARK    2  A    between atoms: C_3  and  C_4
REMARK    3  A    between atoms: C_4  and  C_5
REMARK    4  A    between atoms: C_7  and  C_8
REMARK    5  A    between atoms: C_8  and  C_9
REMARK    6  A    between atoms: C_14  and  C_15
REMARK    7  A    between atoms: C_15  and  C_16
REMARK    8  A    between atoms: N_18  and  C_19
REMARK    9  A    between atoms: N_18  and  C_21
REMARK                            x       y       z     vdW  Elec       q    Type
REMARK                         _______ _______ _______ _____ _____    ______ ____
ROOT
ATOM      9  C   UNL     1      -0.644   0.498  24.865  0.00  0.00    +0.024 C 
ATOM     10  C   UNL     1      -0.012   0.860  24.478  0.00  0.00    +0.089 C 
ATOM     11  N   UNL     1       0.320   0.505  23.811  0.00  0.00    -0.218 NA
ATOM     12  C   UNL     1       0.020  -0.212  23.532  0.00  0.00    +0.089 C 
ATOM     13  C   UNL     1      -0.612  -0.573  23.921  0.00  0.00    +0.019 C 
ATOM     14  C   UNL     1      -0.944  -0.218  24.587  0.00  0.00    +0.012 C 
ENDROOT
BRANCH   9   8
ATOM      8  C   UNL     1      -0.977   0.854  25.533  0.00  0.00    +0.051 C 
BRANCH   8   7
ATOM      5  C   UNL     1      -1.106   2.976  25.724  0.00  0.00    +0.154 A 
ATOM      6  C   UNL     1      -1.439   2.250  25.518  0.00  0.00    +0.054 A 
ATOM      7  C   UNL     1      -0.877   1.662  25.662  0.00  0.00    +0.100 A 
ATOM     23  N   UNL     1      -0.198   2.025  25.957  0.00  0.00    -0.082 NA
ATOM     24  O   UNL     1      -0.339   2.837  25.996  0.00  0.00    -0.358 OA
BRANCH   5   4
ATOM      4  C   UNL     1      -1.475   3.711  25.669  0.00  0.00    +0.067 C 
BRANCH   4   3
ATOM      3  C   UNL     1      -1.147   4.304  25.197  0.00  0.00    +0.008 C 
BRANCH   3   2
ATOM      1  C   UNL     1      -1.136   5.664  24.759  0.00  0.00    +0.000 C 
ATOM      2  C   UNL     1      -1.514   5.041  25.146  0.00  0.00    +0.000 C 
ENDBRANCH   3   2
ENDBRANCH   4   3
ENDBRANCH   5   4
ENDBRANCH   8   7
ENDBRANCH   9   8
BRANCH  14  15
ATOM     15  C   UNL     1      -1.575  -0.579  24.975  0.00  0.00    +0.085 C 
BRANCH  15  16
ATOM     16  C   UNL     1      -1.789  -1.353  24.782  0.00  0.00    +0.226 C 
ATOM     17  O   UNL     1      -1.238  -1.860  24.438  0.00  0.00    -0.275 OA
ATOM     18  N   UNL     1      -2.556  -1.619  24.935  0.00  0.00    -0.280 N 
BRANCH  18  19
ATOM     19  C   UNL     1      -2.770  -2.392  24.742  0.00  0.00    +0.093 C 
ATOM     20  C   UNL     1      -3.496  -2.542  24.381  0.00  0.00    +0.023 C 
ENDBRANCH  18  19
BRANCH  18  21
ATOM     21  C   UNL     1      -3.108  -1.112  25.279  0.00  0.00    +0.093 C 
ATOM     22  C   UNL     1      -3.585  -1.379  25.897  0.00  0.00    +0.023 C 
ENDBRANCH  18  21
ENDBRANCH  15  16
ENDBRANCH  14  15
TORSDOF 9
ENDMDL
MODEL 4
REMARK VINA RESULT:      -8.7      1.977      2.902
REMARK  Name = 
REMARK  9 active torsions:
REMARK  status: ('A' for Active; 'I' for Inactive)
REMARK    1  A    between atoms: C_2  and  C_3
REMARK    2  A    between atoms: C_3  and  C_4
REMARK    3  A    between atoms: C_4  and  C_5
REMARK    4  A    between atoms: C_7  and  C_8
REMARK    5  A    between atoms: C_8  and  C_9
REMARK    6  A    between atoms: C_14  and  C_15
REMARK    7  A    between atoms: C_15  and  C_16
REMARK    8  A    between atoms: N_18  and  C_19
REMARK    9  A    between atoms: N_18  and  C_21
REMARK                            x       y       z     vdW  Elec       q    Type
REMARK                         _______ _______ _______ _____ _____    ______ ____
ROOT
ATOM      9  C   UNL     1      -0.944   0.975  25.010  0.00  0.00    +0.024 C 
ATOM     10  C   UNL     1      -0.512   0.384  24.629  0.00  0.00    +0.089 C 
ATOM     11  N   UNL     1       0.048   0.586  24.059  0.00  0.00    -0.218 NA
ATOM     12  C   UNL     1       0.176   1.379  23.868  0.00  0.00    +0.089 C 
ATOM     13  C   UNL     1      -0.256   1.969  24.249  0.00  0.00    +0.019 C 
ATOM     14  C   UNL     1      -0.817   1.767  24.820  0.00  0.00    +0.012 C 
ENDROOT
BRANCH   9   8
ATOM      8  C   UNL     1      -1.506   0.773  25.581  0.00  0.00    +0.051 C 
BRANCH   8   7
ATOM      5  C   UNL     1      -2.861  -0.845  25.257  0.00  0.00    +0.154 A 
ATOM      6  C   UNL     1      -2.669  -0.045  25.205  0.00  0.00    +0.054 A 
ATOM      7  C   UNL     1      -1.914   0.058  25.523  0.00  0.00    +0.100 A 
ATOM     23  N   UNL     1      -1.640  -0.678  25.772  0.00  0.00    -0.082 NA
ATOM     24  O   UNL     1      -2.224  -1.237  25.608  0.00  0.00    -0.358 OA
BRANCH   5   4
ATOM      4  C   UNL     1      -3.564  -1.193  25.004  0.00  0.00    +0.067 C 
BRANCH   4   3
ATOM      3  C   UNL     1      -3.554  -1.749  24.394  0.00  0.00    +0.008 C 
BRANCH   3   2
ATOM      1  C   UNL     1      -4.307  -2.668  23.601  0.00  0.00    +0.000 C 
ATOM      2  C   UNL     1      -4.256  -1.955  24.012  0.00  0.00    +0.000 C 
ENDBRANCH   3   2
ENDBRANCH   4   3
ENDBRANCH   5   4
ENDBRANCH   8   7
ENDBRANCH   9   8
BRANCH  14  15
ATOM     15  C   UNL     1      -1.249   2.357  25.200  0.00  0.00    +0.085 C 
BRANCH  15  16
ATOM     16  C   UNL     1      -0.929   3.114  25.282  0.00  0.00    +0.226 C 
ATOM     17  O   UNL     1      -0.112   3.219  25.283  0.00  0.00    -0.275 OA
ATOM     18  N   UNL     1      -1.429   3.766  25.364  0.00  0.00    -0.280 N 
BRANCH  18  19
ATOM     19  C   UNL     1      -1.110   4.522  25.446  0.00  0.00    +0.093 C 
ATOM     20  C   UNL     1      -1.400   5.145  24.989  0.00  0.00    +0.023 C 
ENDBRANCH  18  19
BRANCH  18  21
ATOM     21  C   UNL     1      -2.247   3.661  25.363  0.00  0.00    +0.093 C 
ATOM     22  C   UNL     1      -2.715   4.057  25.915  0.00  0.00    +0.023 C 
ENDBRANCH  18  21
ENDBRANCH  15  16
ENDBRANCH  14  15
TORSDOF 9
ENDMDL
MODEL 5
REMARK VINA RESULT:      -8.5      2.631      4.133
REMARK  Name = 
REMARK  9 active torsions:
REMARK  status: ('A' for Active; 'I' for Inactive)
REMARK    1  A    between atoms: C_2  and  C_3
REMARK    2  A    between atoms: C_3  and  C_4
REMARK    3  A    between atoms: C_4  and  C_5
REMARK    4  A    between atoms: C_7  and  C_8
REMARK    5  A    between atoms: C_8  and  C_9
REMARK    6  A    between atoms: C_14  and  C_15
REMARK    7  A    between atoms: C_15  and  C_16
REMARK    8  A    between atoms: N_18  and  C_19
REMARK    9  A    between atoms: N_18  and  C_21
REMARK                            x       y       z     vdW  Elec       q    Type
REMARK                         _______ _______ _______ _____ _____    ______ ____
ROOT
ATOM      9  C   UNL     1      -2.949  -0.587  24.760  0.00  0.00    +0.024 C 
ATOM     10  C   UNL     1      -2.838  -1.388  24.599  0.00  0.00    +0.089 C 
ATOM     11  N   UNL     1      -3.444  -1.826  24.250  0.00  0.00    -0.218 NA
ATOM     12  C   UNL     1      -4.161  -1.462  24.062  0.00  0.00    +0.089 C 
ATOM     13  C   UNL     1      -4.270  -0.661  24.223  0.00  0.00    +0.019 C 
ATOM     14  C   UNL     1      -3.664  -0.223  24.572  0.00  0.00    +0.012 C 
ENDROOT
BRANCH   9   8
ATOM      8  C   UNL     1      -2.342  -0.148  25.110  0.00  0.00    +0.051 C 
BRANCH   8   7
ATOM      5  C   UNL     1      -0.374  -0.087  24.284  0.00  0.00    +0.154 A 
ATOM      6  C   UNL     1      -1.126   0.239  24.378  0.00  0.00    +0.054 A 
ATOM      7  C   UNL     1      -1.561  -0.262  24.869  0.00  0.00    +0.100 A 
ATOM     23  N   UNL     1      -1.077  -0.896  25.079  0.00  0.00    -0.082 NA
ATOM     24  O   UNL     1      -0.344  -0.788  24.718  0.00  0.00    -0.358 OA
BRANCH   5   4
ATOM      4  C   UNL     1       0.240   0.233  23.835  0.00  0.00    +0.067 C 
BRANCH   4   3
ATOM      3  C   UNL     1       0.585  -0.213  23.232  0.00  0.00    +0.008 C 
BRANCH   3   2
ATOM      1  C   UNL     1       1.530  -0.323  22.165  0.00  0.00    +0.000 C 
ATOM      2  C   UNL     1       1.227   0.092  22.812  0.00  0.00    +0.000 C 
ENDBRANCH   3   2
ENDBRANCH   4   3
ENDBRANCH   5   4
ENDBRANCH   8   7
ENDBRANCH   9   8
BRANCH  14  15
ATOM     15  C   UNL     1      -3.775   0.578  24.733  0.00  0.00    +0.085 C 
BRANCH  15  16
ATOM     16  C   UNL     1      -4.524   0.859  24.937  0.00  0.00    +0.226 C 
ATOM     17  O   UNL     1      -5.100   0.336  25.209  0.00  0.00    -0.275 OA
ATOM     18  N   UNL     1      -4.696   1.663  24.867  0.00  0.00    -0.280 N 
BRANCH  18  19
ATOM     19  C   UNL     1      -5.445   1.943  25.071  0.00  0.00    +0.093 C 
ATOM     20  C   UNL     1      -5.534   2.454  25.712  0.00  0.00    +0.023 C 
ENDBRANCH  18  19
BRANCH  18  21
ATOM     21  C   UNL     1      -4.120   2.186  24.595  0.00  0.00    +0.093 C 
ATOM     22  C   UNL     1      -4.339   2.848  24.154  0.00  0.00    +0.023 C 
ENDBRANCH  18  21
ENDBRANCH  15  16
ENDBRANCH  14  15
TORSDOF 9
ENDMDL
MODEL 6
REMARK VINA RESULT:      -8.5      1.780      2.950
REMARK  Name = 
REMARK  9 active torsions:
REMARK  status: ('A' for Active; 'I' for Inactive)
REMARK    1  A    between atoms: C_2  and  C_3
REMARK    2  A    between atoms: C_3  and  C_4
REMARK    3  A    between atoms: C_4  and  C_5
REMARK    4  A    between atoms: C_7  and  C_8
REMARK    5  A    between atoms: C_8  and  C_9
REMARK    6  A    between atoms: C_14  and  C_15
REMARK    7  A    between atoms: C_15  and  C_16
REMARK    8  A    between atoms: N_18  and  C_19
REMARK    9  A    between atoms: N_18  and  C_21
REMARK                            x       y       z     vdW  Elec       q    Type
REMARK                         _______ _______ _______ _____ _____    ______ ____
ROOT
ATOM      9  C   UNL     1      -1.152   1.728  24.991  0.00  0.00    +0.024 C 
ATOM     10  C   UNL     1      -0.435   1.523  25.345  0.00  0.00    +0.089 C 
ATOM     11  N   UNL     1      -0.087   2.029  25.896  0.00  0.00    -0.218 NA
ATOM     12  C   UNL     1      -0.456   2.741  26.093  0.00  0.00    +0.089 C 
ATOM     13  C   UNL     1      -1.173   2.945  25.739  0.00  0.00    +0.019 C 
ATOM     14  C   UNL     1      -1.521   2.439  25.188  0.00  0.00    +0.012 C 
ENDROOT
BRANCH   9   8
ATOM      8  C   UNL     1      -1.500   1.222  24.440  0.00  0.00    +0.051 C 
BRANCH   8   7
ATOM      5  C   UNL     1      -1.705  -0.871  24.808  0.00  0.00    +0.154 A 
ATOM      6  C   UNL     1      -2.012  -0.106  24.813  0.00  0.00    +0.054 A 
ATOM      7  C   UNL     1      -1.429   0.404  24.528  0.00  0.00    +0.100 A 
ATOM     23  N   UNL     1      -0.762  -0.045  24.348  0.00  0.00    -0.082 NA
ATOM     24  O   UNL     1      -0.932  -0.834  24.521  0.00  0.00    -0.358 OA
BRANCH   5   4
ATOM      4  C   UNL     1      -2.101  -1.554  25.048  0.00  0.00    +0.067 C 
BRANCH   4   3
ATOM      3  C   UNL     1      -2.733  -1.842  24.603  0.00  0.00    +0.008 C 
BRANCH   3   2
ATOM      1  C   UNL     1      -3.734  -2.840  24.390  0.00  0.00    +0.000 C 
ATOM      2  C   UNL     1      -3.171  -2.486  24.878  0.00  0.00    +0.000 C 
ENDBRANCH   3   2
ENDBRANCH   4   3
ENDBRANCH   5   4
ENDBRANCH   8   7
ENDBRANCH   9   8
BRANCH  14  15
ATOM     15  C   UNL     1      -2.237   2.644  24.835  0.00  0.00    +0.085 C 
BRANCH  15  16
ATOM     16  C   UNL     1      -2.753   3.161  25.219  0.00  0.00    +0.226 C 
ATOM     17  O   UNL     1      -2.540   3.495  25.942  0.00  0.00    -0.275 OA
ATOM     18  N   UNL     1      -3.482   3.344  24.879  0.00  0.00    -0.280 N 
BRANCH  18  19
ATOM     19  C   UNL     1      -3.998   3.861  25.263  0.00  0.00    +0.093 C 
ATOM     20  C   UNL     1      -4.742   3.598  25.505  0.00  0.00    +0.023 C 
ENDBRANCH  18  19
BRANCH  18  21
ATOM     21  C   UNL     1      -3.696   3.010  24.156  0.00  0.00    +0.093 C 
ATOM     22  C   UNL     1      -4.101   3.461  23.596  0.00  0.00    +0.023 C 
ENDBRANCH  18  21
ENDBRANCH  15  16
ENDBRANCH  14  15
TORSDOF 9
ENDMDL
