MODEL 1
REMARK VINA RESULT:     -14.6      0.000      0.000
REMARK  Name = 
REMARK  4 active torsions:
REMARK  status: ('A' for Active; 'I' for Inactive)
REMARK    1  A    between atoms: C_2  and  C_3
REMARK    2  A    between atoms: C_11  and  C_12
REMARK    3  A    between atoms: C_12  and  C_13
REMARK    4  A    between atoms: C_23  and  C_25
REMARK                            x       y       z     vdW  Elec       q    Type
REMARK                         _______ _______ _______ _____ _____    ______ ____
ROOT
ATOM      1  C   UNL     1      -0.817   4.458  24.979  0.00  0.00    +0.005 C 
ATOM      2  C   UNL     1      -1.502   4.001  25.031  0.00  0.00    +0.059 C 
ATOM      5  C   UNL     1      -1.807   4.738  25.238  0.00  0.00    +0.154 C 
ATOM      6  O   UNL     1      -1.311   5.398  25.264  0.00  0.00    -0.223 OA
ATOM      7  C   UNL     1      -2.609   4.817  25.419  0.00  0.00    +0.033 C 
ATOM      8  C   UNL     1      -3.104   4.159  25.393  0.00  0.00    +0.003 C 
ATOM      9  C   UNL     1      -2.799   3.422  25.186  0.00  0.00    +0.006 C 
ATOM     10  C   UNL     1      -3.599   3.500  25.366  0.00  0.00    +0.000 C 
ATOM     11  C   UNL     1      -3.294   2.762  25.159  0.00  0.00    +0.052 C 
ATOM     16  C   UNL     1      -2.990   2.025  24.952  0.00  0.00    +0.063 A 
ATOM     17  C   UNL     1      -2.188   1.946  24.771  0.00  0.00    +0.023 A 
ATOM     18  C   UNL     1      -1.692   2.604  24.797  0.00  0.00    +0.034 C 
ATOM     19  C   UNL     1      -1.997   3.342  25.004  0.00  0.00    +0.010 C 
ATOM     20  S   UNL     1      -2.046   1.154  24.587  0.00  0.00    -0.054 S 
ATOM     21  C   UNL     1      -2.758   0.744  24.654  0.00  0.00    +0.185 A 
ATOM     22  N   UNL     1      -2.868  -0.063  24.519  0.00  0.00    -0.151 NA
ATOM     23  C   UNL     1      -3.616  -0.397  24.608  0.00  0.00    +0.271 C 
ATOM     24  O   UNL     1      -4.255   0.074  24.832  0.00  0.00    -0.268 OA
ATOM     32  N   UNL     1      -3.341   1.282  24.879  0.00  0.00    -0.227 NA
ENDROOT
BRANCH  23  25
ATOM     25  C   UNL     1      -3.726  -1.204  24.473  0.00  0.00    +0.059 A 
ATOM     26  C   UNL     1      -3.422  -1.757  25.006  0.00  0.00    +0.035 A 
ATOM     27  C   UNL     1      -3.532  -2.563  24.871  0.00  0.00    +0.138 A 
ATOM     28 CL   UNL     1      -3.228  -3.115  25.402  0.00  0.00    -0.061 Cl
ATOM     29  N   UNL     1      -3.946  -2.816  24.204  0.00  0.00    -0.232 NA
ATOM     30  C   UNL     1      -4.250  -2.265  23.672  0.00  0.00    +0.100 A 
ATOM     31  C   UNL     1      -4.140  -1.458  23.807  0.00  0.00    +0.025 A 
ENDBRANCH  23  25
BRANCH   2   3
ATOM      3  C   UNL     1      -0.959   3.422  24.806  0.00  0.00    +0.184 C 
ATOM      4  O   UNL     1      -0.173   3.627  24.662  0.00  0.00    -0.220 OA
ENDBRANCH   2   3
BRANCH  11  12
ATOM     12  C   UNL     1      -4.095   2.841  25.340  0.00  0.00    +0.120 C 
BRANCH  12  13
ATOM     13  C   UNL     1      -4.662   2.782  24.742  0.00  0.00    +0.365 C 
ATOM     14  O   UNL     1      -5.400   2.452  24.905  0.00  0.00    -0.246 OA
ATOM     15  O   UNL     1      -4.489   3.052  23.983  0.00  0.00    -0.246 OA
ENDBRANCH  12  13
ENDBRANCH  11  12
TORSDOF 4
ENDMDL
MODEL 2
REMARK VINA RESULT:     -14.1      2.115      5.223
REMARK  Name = 
REMARK  4 active torsions:
REMARK  status: ('A' for Active; 'I' for Inactive)
REMARK    1  A    between atoms: C_2  and  C_3
REMARK    2  A    between atoms: C_11  and  C_12
REMARK    3  A    between atoms: C_12  and  C_13
REMARK    4  A    between atoms: C_23  and  C_25
REMARK                            x       y       z     vdW  Elec       q    Type
REMARK                         _______ _______ _______ _____ _____    ______ ____
ROOT
ATOM      1  C   UNL     1      -2.283  -2.699  24.610  0.00  0.00    +0.005 C 
ATOM      2  C   UNL     1      -2.657  -1.965  24.563  0.00  0.00    +0.059 C 
ATOM      5  C   UNL     1      -3.288  -2.460  24.371  0.00  0.00    +0.154 C 
ATOM      6  O   UNL     1      -3.178  -3.278  24.345  0.00  0.00    -0.223 OA
ATOM      7  C   UNL     1      -4.029  -2.138  24.205  0.00  0.00    +0.033 C 
ATOM      8  C   UNL     1      -4.139  -1.321  24.231  0.00  0.00    +0.003 C 
ATOM      9  C   UNL     1      -3.508  -0.826  24.423  0.00  0.00    +0.006 C 
ATOM     10  C   UNL     1      -4.248  -0.504  24.256  0.00  0.00    +0.000 C 
ATOM     11  C   UNL     1      -3.617  -0.009  24.449  0.00  0.00    +0.052 C 
ATOM     16  C   UNL     1      -2.986   0.486  24.640  0.00  0.00    +0.063 A 
ATOM     17  C   UNL     1      -2.244   0.164  24.807  0.00  0.00    +0.023 A 
ATOM     18  C   UNL     1      -2.135  -0.653  24.781  0.00  0.00    +0.034 C 
ATOM     19  C   UNL     1      -2.766  -1.149  24.589  0.00  0.00    +0.010 C 
ATOM     20  S   UNL     1      -1.730   0.785  24.978  0.00  0.00    -0.054 S 
ATOM     21  C   UNL     1      -2.152   1.491  24.917  0.00  0.00    +0.185 A 
ATOM     22  N   UNL     1      -1.851   2.249  25.043  0.00  0.00    -0.151 NA
ATOM     23  C   UNL     1      -2.342   2.906  24.962  0.00  0.00    +0.271 C 
ATOM     24  O   UNL     1      -3.134   2.807  24.755  0.00  0.00    -0.268 OA
ATOM     32  N   UNL     1      -2.928   1.306  24.709  0.00  0.00    -0.227 NA
ENDROOT
BRANCH  23  25
ATOM     25  C   UNL     1      -2.040   3.664  25.088  0.00  0.00    +0.059 A 
ATOM     26  C   UNL     1      -1.308   3.875  24.770  0.00  0.00    +0.035 A 
ATOM     27  C   UNL     1      -1.007   4.633  24.896  0.00  0.00    +0.138 A 
ATOM     28 CL   UNL     1      -0.276   4.843  24.579  0.00  0.00    -0.061 Cl
ATOM     29  N   UNL     1      -1.438   5.179  25.339  0.00  0.00    -0.232 NA
ATOM     30  C   UNL     1      -2.169   4.969  25.656  0.00  0.00    +0.100 A 
ATOM     31  C   UNL     1      -2.470   4.211  25.531  0.00  0.00    +0.025 A 
ENDBRANCH  23  25
BRANCH   2   3
ATOM      3  C   UNL     1      -1.896  -1.725  24.771  0.00  0.00    +0.184 C 
ATOM      4  O   UNL     1      -1.303  -2.287  24.886  0.00  0.00    -0.220 OA
ENDBRANCH   2   3
BRANCH  11  12
ATOM     12  C   UNL     1      -4.358   0.314  24.282  0.00  0.00    +0.120 C 
BRANCH  12  13
ATOM     13  C   UNL     1      -4.808   0.650  24.888  0.00  0.00    +0.365 C 
ATOM     14  O   UNL     1      -5.265   1.320  24.737  0.00  0.00    -0.246 OA
ATOM     15  O   UNL     1      -4.799   0.317  25.641  0.00  0.00    -0.246 OA
ENDBRANCH  12  13
ENDBRANCH  11  12
TORSDOF 4
ENDMDL
MODEL 3
REMARK VINA RESULT:     -13.8      2.308      5.652
REMARK  Name = 
REMARK  4 active torsions:
REMARK  status: ('A' for Active; 'I' for Inactive)
REMARK    1  A    between atoms: C_2  and  C_3
REMARK    2  A    between atoms: C_11  and  C_12
REMARK    3  A    between atoms: C_12  and  C_13
REMARK    4  A    between atoms: C_23  and  C_25
REMARK                            x       y       z     vdW  Elec       q    Type
REMARK                         _______ _______ _______ _____ _____    ______ ____
ROOT
ATOM      1  C   UNL     1      -4.213  -2.350  24.070  0.00  0.00    +0.005 C 
ATOM      2  C   UNL     1      -3.589  -1.866  24.307  0.00  0.00    +0.059 C 
ATOM      5  C   UNL     1      -3.224  -2.603  24.357  0.00  0.00    +0.154 C 
ATOM      6  O   UNL     1      -3.645  -3.287  24.166  0.00  0.00    -0.223 OA
ATOM      7  C   UNL     1      -2.436  -2.658  24.598  0.00  0.00    +0.033 C 
ATOM      8  C   UNL     1      -2.015  -1.976  24.789  0.00  0.00    +0.003 C 
ATOM      9  C   UNL     1      -2.379  -1.238  24.739  0.00  0.00    +0.006 C 
ATOM     10  C   UNL     1      -1.593  -1.293  24.979  0.00  0.00    +0.000 C 
ATOM     11  C   UNL     1      -1.958  -0.555  24.929  0.00  0.00    +0.052 C 
ATOM     16  C   UNL     1      -2.323   0.183  24.879  0.00  0.00    +0.063 A 
ATOM     17  C   UNL     1      -3.111   0.238  24.638  0.00  0.00    +0.023 A 
ATOM     18  C   UNL     1      -3.532  -0.445  24.448  0.00  0.00    +0.034 C 
ATOM     19  C   UNL     1      -3.168  -1.183  24.497  0.00  0.00    +0.010 C 
ATOM     20  S   UNL     1      -3.322   1.035  24.641  0.00  0.00    -0.054 S 
ATOM     21  C   UNL     1      -2.667   1.473  24.884  0.00  0.00    +0.185 A 
ATOM     22  N   UNL     1      -2.634   2.293  24.965  0.00  0.00    -0.151 NA
ATOM     23  C   UNL     1      -1.937   2.655  25.214  0.00  0.00    +0.271 C 
ATOM     24  O   UNL     1      -1.271   2.198  25.382  0.00  0.00    -0.268 OA
ATOM     32  N   UNL     1      -2.050   0.946  25.031  0.00  0.00    -0.227 NA
ENDROOT
BRANCH  23  25
ATOM     25  C   UNL     1      -1.904   3.476  25.295  0.00  0.00    +0.059 A 
ATOM     26  C   UNL     1      -1.269   3.897  24.978  0.00  0.00    +0.035 A 
ATOM     27  C   UNL     1      -1.236   4.718  25.059  0.00  0.00    +0.138 A 
ATOM     28 CL   UNL     1      -0.602   5.138  24.743  0.00  0.00    -0.061 Cl
ATOM     29  N   UNL     1      -1.839   5.116  25.458  0.00  0.00    -0.232 NA
ATOM     30  C   UNL     1      -2.473   4.696  25.774  0.00  0.00    +0.100 A 
ATOM     31  C   UNL     1      -2.506   3.876  25.693  0.00  0.00    +0.025 A 
ENDBRANCH  23  25
BRANCH   2   3
ATOM      3  C   UNL     1      -4.171  -1.296  24.175  0.00  0.00    +0.184 C 
ATOM      4  O   UNL     1      -4.902  -1.518  23.865  0.00  0.00    -0.220 OA
ENDBRANCH   2   3
BRANCH  11  12
ATOM     12  C   UNL     1      -1.171  -0.610  25.170  0.00  0.00    +0.120 C 
BRANCH  12  13
ATOM     13  C   UNL     1      -0.567  -0.355  24.669  0.00  0.00    +0.365 C 
ATOM     14  O   UNL     1       0.025   0.142  24.957  0.00  0.00    -0.246 OA
ATOM     15  O   UNL     1      -0.556  -0.595  23.881  0.00  0.00    -0.246 OA
ENDBRANCH  12  13
ENDBRANCH  11  12
TORSDOF 4
ENDMDL
MODEL 4
REMARK VINA RESULT:     -13.4      1.140      2.190
REMARK  Name = 
REMARK  4 active torsions:
REMARK  status: ('A' for Active; 'I' for Inactive)
REMARK    1  A    between atoms: C_2  and  C_3
REMARK    2  A    between atoms: C_11  and  C_12
REMARK    3  A    between atoms: C_12  and  C_13
REMARK    4  A    between atoms: C_23  and  C_25
REMARK                            x       y       z     vdW  Elec       q    Type
REMARK                         _______ _______ _______ _____ _____    ______ ____
ROOT
ATOM      1  C   UNL     1      -2.284   4.969  25.539  0.00  0.00    +0.005 C 
ATOM      2  C   UNL     1      -2.017   4.243  25.252  0.00  0.00    +0.059 C 
ATOM      5  C   UNL     1      -1.348   4.705  25.118  0.00  0.00    +0.154 C 
ATOM      6  O   UNL     1      -1.349   5.504  25.323  0.00  0.00    -0.223 OA
ATOM      7  C   UNL     1      -0.674   4.368  24.779  0.00  0.00    +0.033 C 
ATOM      8  C   UNL     1      -0.672   3.569  24.573  0.00  0.00    +0.003 C 
ATOM      9  C   UNL     1      -1.341   3.107  24.707  0.00  0.00    +0.006 C 
ATOM     10  C   UNL     1      -0.670   2.771  24.368  0.00  0.00    +0.000 C 
ATOM     11  C   UNL     1      -1.340   2.308  24.502  0.00  0.00    +0.052 C 
ATOM     16  C   UNL     1      -2.009   1.846  24.636  0.00  0.00    +0.063 A 
ATOM     17  C   UNL     1      -2.682   2.183  24.976  0.00  0.00    +0.023 A 
ATOM     18  C   UNL     1      -2.684   2.981  25.181  0.00  0.00    +0.034 C 
ATOM     19  C   UNL     1      -2.015   3.444  25.047  0.00  0.00    +0.010 C 
ATOM     20  S   UNL     1      -3.256   1.593  25.041  0.00  0.00    -0.054 S 
ATOM     21  C   UNL     1      -2.939   0.893  24.743  0.00  0.00    +0.185 A 
ATOM     22  N   UNL     1      -3.324   0.165  24.702  0.00  0.00    -0.151 NA
ATOM     23  C   UNL     1      -2.935  -0.490  24.388  0.00  0.00    +0.271 C 
ATOM     24  O   UNL     1      -2.159  -0.418  24.114  0.00  0.00    -0.268 OA
ATOM     32  N   UNL     1      -2.169   1.049  24.493  0.00  0.00    -0.227 NA
ENDROOT
BRANCH  23  25
ATOM     25  C   UNL     1      -3.320  -1.219  24.347  0.00  0.00    +0.059 A 
ATOM     26  C   UNL     1      -3.106  -1.829  24.860  0.00  0.00    +0.035 A 
ATOM     27  C   UNL     1      -3.491  -2.557  24.819  0.00  0.00    +0.138 A 
ATOM     28 CL   UNL     1      -3.278  -3.166  25.332  0.00  0.00    -0.061 Cl
ATOM     29  N   UNL     1      -4.091  -2.675  24.264  0.00  0.00    -0.232 NA
ATOM     30  C   UNL     1      -4.305  -2.066  23.751  0.00  0.00    +0.100 A 
ATOM     31  C   UNL     1      -3.919  -1.338  23.792  0.00  0.00    +0.025 A 
ENDBRANCH  23  25
BRANCH   2   3
ATOM      3  C   UNL     1      -2.780   4.033  25.486  0.00  0.00    +0.184 C 
ATOM      4  O   UNL     1      -3.238   4.561  25.923  0.00  0.00    -0.220 OA
ENDBRANCH   2   3
BRANCH  11  12
ATOM     12  C   UNL     1      -0.667   1.971  24.163  0.00  0.00    +0.120 C 
BRANCH  12  13
ATOM     13  C   UNL     1      -0.204   1.445  24.599  0.00  0.00    +0.365 C 
ATOM     14  O   UNL     1       0.148   0.800  24.225  0.00  0.00    -0.246 OA
ATOM     15  O   UNL     1      -0.094   1.564  25.407  0.00  0.00    -0.246 OA
ENDBRANCH  12  13
ENDBRANCH  11  12
TORSDOF 4
ENDMDL
MODEL 5
REMARK VINA RESULT:     -11.6      2.184      3.584
REMARK  Name = 
REMARK  4 active torsions:
REMARK  status: ('A' for Active; 'I' for Inactive)
REMARK    1  A    between atoms: C_2  and  C_3
REMARK    2  A    between atoms: C_11  and  C_12
REMARK    3  A    between atoms: C_12  and  C_13
REMARK    4  A    between atoms: C_23  and  C_25
REMARK                            x       y       z     vdW  Elec       q    Type
REMARK                         _______ _______ _______ _____ _____    ______ ____
ROOT
ATOM      1  C   UNL     1      -6.028   2.691  25.513  0.00  0.00    +0.005 C 
ATOM      2  C   UNL     1      -5.223   2.797  25.371  0.00  0.00    +0.059 C 
ATOM      5  C   UNL     1      -5.438   3.571  25.556  0.00  0.00    +0.154 C 
ATOM      6  O   UNL     1      -6.222   3.748  25.745  0.00  0.00    -0.223 OA
ATOM      7  C   UNL     1      -4.869   4.170  25.551  0.00  0.00    +0.033 C 
ATOM      8  C   UNL     1      -4.086   3.993  25.363  0.00  0.00    +0.003 C 
ATOM      9  C   UNL     1      -3.871   3.219  25.178  0.00  0.00    +0.006 C 
ATOM     10  C   UNL     1      -3.304   3.816  25.174  0.00  0.00    +0.000 C 
ATOM     11  C   UNL     1      -3.088   3.042  24.989  0.00  0.00    +0.052 C 
ATOM     16  C   UNL     1      -2.872   2.268  24.805  0.00  0.00    +0.063 A 
ATOM     17  C   UNL     1      -3.441   1.669  24.809  0.00  0.00    +0.023 A 
ATOM     18  C   UNL     1      -4.224   1.845  24.998  0.00  0.00    +0.034 C 
ATOM     19  C   UNL     1      -4.440   2.620  25.183  0.00  0.00    +0.010 C 
ATOM     20  S   UNL     1      -3.068   0.962  24.605  0.00  0.00    -0.054 S 
ATOM     21  C   UNL     1      -2.269   1.123  24.475  0.00  0.00    +0.185 A 
ATOM     22  N   UNL     1      -1.693   0.573  24.260  0.00  0.00    -0.151 NA
ATOM     23  C   UNL     1      -0.913   0.817  24.148  0.00  0.00    +0.271 C 
ATOM     24  O   UNL     1      -0.709   1.609  24.252  0.00  0.00    -0.268 OA
ATOM     32  N   UNL     1      -2.149   1.929  24.598  0.00  0.00    -0.227 NA
ENDROOT
BRANCH  23  25
ATOM     25  C   UNL     1      -0.336   0.267  23.933  0.00  0.00    +0.059 A 
ATOM     26  C   UNL     1       0.239   0.470  23.376  0.00  0.00    +0.035 A 
ATOM     27  C   UNL     1       0.816  -0.080  23.160  0.00  0.00    +0.138 A 
ATOM     28 CL   UNL     1       1.390   0.123  22.604  0.00  0.00    -0.061 Cl
ATOM     29  N   UNL     1       0.817  -0.831  23.501  0.00  0.00    -0.232 NA
ATOM     30  C   UNL     1       0.243  -1.033  24.057  0.00  0.00    +0.100 A 
ATOM     31  C   UNL     1      -0.334  -0.484  24.273  0.00  0.00    +0.025 A 
ENDBRANCH  23  25
BRANCH   2   3
ATOM      3  C   UNL     1      -5.288   1.986  25.236  0.00  0.00    +0.184 C 
ATOM      4  O   UNL     1      -6.023   1.616  25.288  0.00  0.00    -0.220 OA
ENDBRANCH   2   3
BRANCH  11  12
ATOM     12  C   UNL     1      -2.520   3.640  24.985  0.00  0.00    +0.120 C 
BRANCH  12  13
ATOM     13  C   UNL     1      -1.949   3.672  25.581  0.00  0.00    +0.365 C 
ATOM     14  O   UNL     1      -1.182   3.916  25.404  0.00  0.00    -0.246 OA
ATOM     15  O   UNL     1      -2.147   3.461  26.353  0.00  0.00    -0.246 OA
ENDBRANCH  12  13
ENDBRANCH  11  12
TORSDOF 4
ENDMDL
MODEL 6
REMARK VINA RESULT:     -11.3      2.379      4.046
REMARK  Name = 
REMARK  4 active torsions:
REMARK  status: ('A' for Active; 'I' for Inactive)
REMARK    1  A    between atoms: C_2  and  C_3
REMARK    2  A    between atoms: C_11  and  C_12
REMARK    3  A    between atoms: C_12  and  C_13
REMARK    4  A    between atoms: C_23  and  C_25
REMARK                            x       y       z     vdW  Elec       q    Type
REMARK                         _______ _______ _______ _____ _____    ______ ____
ROOT
ATOM      1  C   UNL     1      -5.334   3.128  25.392  0.00  0.00    +0.005 C 
ATOM      2  C   UNL     1      -4.884   2.475  25.167  0.00  0.00    +0.059 C 
ATOM      5  C   UNL     1      -5.612   2.110  25.294  0.00  0.00    +0.154 C 
ATOM      6  O   UNL     1      -6.262   2.558  25.535  0.00  0.00    -0.223 OA
ATOM      7  C   UNL     1      -5.692   1.296  25.178  0.00  0.00    +0.033 C 
ATOM      8  C   UNL     1      -5.043   0.849  24.937  0.00  0.00    +0.003 C 
ATOM      9  C   UNL     1      -4.315   1.213  24.810  0.00  0.00    +0.006 C 
ATOM     10  C   UNL     1      -4.395   0.401  24.695  0.00  0.00    +0.000 C 
ATOM     11  C   UNL     1      -3.665   0.765  24.569  0.00  0.00    +0.052 C 
ATOM     16  C   UNL     1      -2.937   1.130  24.442  0.00  0.00    +0.063 A 
ATOM     17  C   UNL     1      -2.857   1.944  24.558  0.00  0.00    +0.023 A 
ATOM     18  C   UNL     1      -3.505   2.391  24.799  0.00  0.00    +0.034 C 
ATOM     19  C   UNL     1      -4.235   2.027  24.926  0.00  0.00    +0.010 C 
ATOM     20  S   UNL     1      -2.075   2.148  24.391  0.00  0.00    -0.054 S 
ATOM     21  C   UNL     1      -1.672   1.463  24.173  0.00  0.00    +0.185 A 
ATOM     22  N   UNL     1      -0.876   1.415  23.961  0.00  0.00    -0.151 NA
ATOM     23  C   UNL     1      -0.548   0.687  23.755  0.00  0.00    +0.271 C 
ATOM     24  O   UNL     1      -1.014   0.006  23.761  0.00  0.00    -0.268 OA
ATOM     32  N   UNL     1      -2.204   0.834  24.205  0.00  0.00    -0.227 NA
ENDROOT
BRANCH  23  25
ATOM     25  C   UNL     1       0.248   0.639  23.542  0.00  0.00    +0.059 A 
ATOM     26  C   UNL     1       0.493   0.087  22.979  0.00  0.00    +0.035 A 
ATOM     27  C   UNL     1       1.288   0.039  22.766  0.00  0.00    +0.138 A 
ATOM     28 CL   UNL     1       1.532  -0.513  22.204  0.00  0.00    -0.061 Cl
ATOM     29  N   UNL     1       1.840   0.543  23.117  0.00  0.00    -0.232 NA
ATOM     30  C   UNL     1       1.596   1.094  23.680  0.00  0.00    +0.100 A 
ATOM     31  C   UNL     1       0.800   1.142  23.892  0.00  0.00    +0.025 A 
ENDBRANCH  23  25
BRANCH   2   3
ATOM      3  C   UNL     1      -4.311   3.066  25.119  0.00  0.00    +0.184 C 
ATOM      4  O   UNL     1      -4.503   3.844  25.317  0.00  0.00    -0.220 OA
ENDBRANCH   2   3
BRANCH  11  12
ATOM     12  C   UNL     1      -3.745  -0.048  24.453  0.00  0.00    +0.120 C 
BRANCH  12  13
ATOM     13  C   UNL     1      -3.396  -0.576  24.984  0.00  0.00    +0.365 C 
ATOM     14  O   UNL     1      -3.045  -1.268  24.704  0.00  0.00    -0.246 OA
ATOM     15  O   UNL     1      -3.399  -0.412  25.791  0.00  0.00    -0.246 OA
ENDBRANCH  12  13
ENDBRANCH  11  12
TORSDOF 4
ENDMDL
MODEL 7
REMARK VINA RESULT:     -11.2      1.561      2.688
REMARK  Name = 
REMARK  4 active torsions:
REMARK  status: ('A' for Active; 'I' for Inactive)
REMARK    1  A    between atoms: C_2  and  C_3
REMARK    2  A    between atoms: C_11  and  C_12
REMARK    3  A    between atoms: C_12  and  C_13
REMARK    4  A    between atoms: C_23  and  C_25
REMARK                            x       y       z     vdW  Elec       q    Type
REMARK                         _______ _______ _______ _____ _____    ______ ____
ROOT
ATOM      1  C   UNL     1      -5.786   3.851  25.758  0.00  0.00    +0.005 C 
ATOM      2  C   UNL     1      -5.185   3.438  25.373  0.00  0.00    +0.059 C 
ATOM      5  C   UNL     1      -5.017   4.205  25.120  0.00  0.00    +0.154 C 
ATOM      6  O   UNL     1      -5.488   4.835  25.370  0.00  0.00    -0.223 OA
ATOM      7  C   UNL     1      -4.378   4.342  24.615  0.00  0.00    +0.033 C 
ATOM      8  C   UNL     1      -3.908   3.713  24.365  0.00  0.00    +0.003 C 
ATOM      9  C   UNL     1      -4.075   2.947  24.619  0.00  0.00    +0.006 C 
ATOM     10  C   UNL     1      -3.438   3.084  24.115  0.00  0.00    +0.000 C 
ATOM     11  C   UNL     1      -3.605   2.317  24.369  0.00  0.00    +0.052 C 
ATOM     16  C   UNL     1      -3.772   1.550  24.622  0.00  0.00    +0.063 A 
ATOM     17  C   UNL     1      -4.411   1.413  25.127  0.00  0.00    +0.023 A 
ATOM     18  C   UNL     1      -4.882   2.042  25.377  0.00  0.00    +0.034 C 
ATOM     19  C   UNL     1      -4.714   2.809  25.123  0.00  0.00    +0.010 C 
ATOM     20  S   UNL     1      -4.441   0.603  25.284  0.00  0.00    -0.054 S 
ATOM     21  C   UNL     1      -3.822   0.240  24.878  0.00  0.00    +0.185 A 
ATOM     22  N   UNL     1      -3.647  -0.566  24.880  0.00  0.00    -0.151 NA
ATOM     23  C   UNL     1      -3.007  -0.850  24.444  0.00  0.00    +0.271 C 
ATOM     24  O   UNL     1      -2.541  -0.328  24.006  0.00  0.00    -0.268 OA
ATOM     32  N   UNL     1      -3.409   0.825  24.469  0.00  0.00    -0.227 NA
ENDROOT
BRANCH  23  25
ATOM     25  C   UNL     1      -2.832  -1.656  24.446  0.00  0.00    +0.059 A 
ATOM     26  C   UNL     1      -3.423  -2.207  24.278  0.00  0.00    +0.035 A 
ATOM     27  C   UNL     1      -3.248  -3.013  24.280  0.00  0.00    +0.138 A 
ATOM     28 CL   UNL     1      -3.839  -3.564  24.112  0.00  0.00    -0.061 Cl
ATOM     29  N   UNL     1      -2.482  -3.268  24.450  0.00  0.00    -0.232 NA
ATOM     30  C   UNL     1      -1.892  -2.718  24.618  0.00  0.00    +0.100 A 
ATOM     31  C   UNL     1      -2.067  -1.912  24.616  0.00  0.00    +0.025 A 
ENDBRANCH  23  25
BRANCH   2   3
ATOM      3  C   UNL     1      -5.561   2.815  25.761  0.00  0.00    +0.184 C 
ATOM      4  O   UNL     1      -6.180   2.969  26.285  0.00  0.00    -0.220 OA
ENDBRANCH   2   3
BRANCH  11  12
ATOM     12  C   UNL     1      -2.966   2.454  23.864  0.00  0.00    +0.120 C 
BRANCH  12  13
ATOM     13  C   UNL     1      -2.194   2.391  24.149  0.00  0.00    +0.365 C 
ATOM     14  O   UNL     1      -1.598   2.095  23.662  0.00  0.00    -0.246 OA
ATOM     15  O   UNL     1      -2.019   2.624  24.920  0.00  0.00    -0.246 OA
ENDBRANCH  12  13
ENDBRANCH  11  12
TORSDOF 4
ENDMDL
