MODEL 1
REMARK VINA RESULT:     -11.6      0.000      0.000
REMARK  Name = 
REMARK  5 active torsions:
REMARK  status: ('A' for Active; 'I' for Inactive)
REMARK    1  A    between atoms: S_2  and  C_5
REMARK    2  A    between atoms: C_8  and  C_9
REMARK    3  A    between atoms: C_9  and  N_10
REMARK    4  A    between atoms: C_14  and  C_15
REMARK    5  A    between atoms: C_17  and  C_20
REMARK                            x       y       z     vdW  Elec       q    Type
REMARK                         _______ _______ _______ _____ _____    ______ ____
ROOT
ATOM     10  N   UNL     1      -4.426   1.220  24.843  0.00  0.00    -0.263 NA
ATOM     11  C   UNL     1      -5.084   0.872  25.199  0.00  0.00    +0.073 C 
ATOM     12  C   UNL     1      -5.558   1.477  25.502  0.00  0.00    +0.019 C 
ATOM     13  C   UNL     1      -5.191   2.196  25.334  0.00  0.00    +0.027 C 
ATOM     14  C   UNL     1      -4.491   2.037  24.926  0.00  0.00    +0.138 C 
ENDROOT
BRANCH  14  15
ATOM     15  C   UNL     1      -3.953   2.597  24.651  0.00  0.00    +0.251 A 
ATOM     16  N   UNL     1      -3.304   2.892  25.067  0.00  0.00    -0.189 NA
ATOM     17  C   UNL     1      -2.918   3.438  24.584  0.00  0.00    +0.208 A 
ATOM     18  N   UNL     1      -3.328   3.481  23.871  0.00  0.00    -0.056 NA
ATOM     19  O   UNL     1      -3.967   2.962  23.912  0.00  0.00    -0.336 OA
BRANCH  17  20
ATOM     20  C   UNL     1      -2.240   3.866  24.782  0.00  0.00    +0.093 A 
ATOM     21  C   UNL     1      -1.497   3.590  24.553  0.00  0.00    +0.176 A 
ATOM     22  N   UNL     1      -1.432   2.887  24.127  0.00  0.00    -0.107 NA
ATOM     23  N   UNL     1      -0.820   4.018  24.750  0.00  0.00    -0.206 NA
ATOM     24  C   UNL     1      -0.886   4.722  25.176  0.00  0.00    +0.200 A 
ATOM     25  N   UNL     1      -1.629   4.998  25.405  0.00  0.00    -0.222 NA
ATOM     26  C   UNL     1      -2.306   4.569  25.208  0.00  0.00    +0.107 A 
ENDBRANCH  17  20
ENDBRANCH  14  15
BRANCH  10   9
ATOM      9  C   UNL     1      -3.809   0.819  24.470  0.00  0.00    +0.099 C 
BRANCH   9   8
ATOM      5  C   UNL     1      -3.687  -1.651  24.589  0.00  0.00    +0.106 A 
ATOM      6  C   UNL     1      -4.071  -1.287  23.956  0.00  0.00    +0.018 A 
ATOM      7  C   UNL     1      -4.112  -0.464  23.916  0.00  0.00    -0.002 A 
ATOM      8  C   UNL     1      -3.768  -0.005  24.510  0.00  0.00    -0.006 A 
ATOM     27  C   UNL     1      -3.385  -0.369  25.143  0.00  0.00    -0.002 A 
ATOM     28  C   UNL     1      -3.344  -1.192  25.182  0.00  0.00    +0.018 A 
BRANCH   5   2
ATOM      1  C   UNL     1      -3.606  -3.297  24.668  0.00  0.00    +0.182 C 
ATOM      2  S   UNL     1      -3.646  -2.474  24.629  0.00  0.00    +0.010 S 
ATOM      3  O   UNL     1      -4.059  -2.529  23.916  0.00  0.00    -0.169 OA
ATOM      4  O   UNL     1      -3.234  -2.420  25.341  0.00  0.00    -0.169 OA
ENDBRANCH   5   2
ENDBRANCH   9   8
ENDBRANCH  10   9
TORSDOF 5
ENDMDL
MODEL 2
REMARK VINA RESULT:     -10.7      2.016      2.950
REMARK  Name = 
REMARK  5 active torsions:
REMARK  status: ('A' for Active; 'I' for Inactive)
REMARK    1  A    between atoms: S_2  and  C_5
REMARK    2  A    between atoms: C_8  and  C_9
REMARK    3  A    between atoms: C_9  and  N_10
REMARK    4  A    between atoms: C_14  and  C_15
REMARK    5  A    between atoms: C_17  and  C_20
REMARK                            x       y       z     vdW  Elec       q    Type
REMARK                         _______ _______ _______ _____ _____    ______ ____
ROOT
ATOM     10  N   UNL     1      -0.564   0.433  24.560  0.00  0.00    -0.263 NA
ATOM     11  C   UNL     1      -0.271  -0.102  24.005  0.00  0.00    +0.073 C 
ATOM     12  C   UNL     1       0.305   0.285  23.559  0.00  0.00    +0.019 C 
ATOM     13  C   UNL     1       0.368   1.059  23.839  0.00  0.00    +0.027 C 
ATOM     14  C   UNL     1      -0.170   1.150  24.458  0.00  0.00    +0.138 C 
ENDROOT
BRANCH  14  15
ATOM     15  C   UNL     1      -0.292   1.837  24.898  0.00  0.00    +0.251 A 
ATOM     16  N   UNL     1      -0.684   2.515  24.639  0.00  0.00    -0.189 NA
ATOM     17  C   UNL     1      -0.677   3.064  25.255  0.00  0.00    +0.208 A 
ATOM     18  N   UNL     1      -0.281   2.725  25.893  0.00  0.00    -0.056 NA
ATOM     19  O   UNL     1      -0.043   1.968  25.673  0.00  0.00    -0.336 OA
BRANCH  17  20
ATOM     20  C   UNL     1      -1.009   3.819  25.235  0.00  0.00    +0.093 A 
ATOM     21  C   UNL     1      -1.761   3.948  25.549  0.00  0.00    +0.176 A 
ATOM     22  N   UNL     1      -2.181   3.322  25.884  0.00  0.00    -0.107 NA
ATOM     23  N   UNL     1      -2.092   4.703  25.529  0.00  0.00    -0.206 NA
ATOM     24  C   UNL     1      -1.672   5.329  25.194  0.00  0.00    +0.200 A 
ATOM     25  N   UNL     1      -0.920   5.201  24.880  0.00  0.00    -0.222 NA
ATOM     26  C   UNL     1      -0.589   4.445  24.900  0.00  0.00    +0.107 A 
ENDBRANCH  17  20
ENDBRANCH  14  15
BRANCH  10   9
ATOM      9  C   UNL     1      -1.150   0.278  25.120  0.00  0.00    +0.099 C 
BRANCH   9   8
ATOM      5  C   UNL     1      -2.664  -1.659  24.823  0.00  0.00    +0.106 A 
ATOM      6  C   UNL     1      -1.940  -1.756  25.205  0.00  0.00    +0.018 A 
ATOM      7  C   UNL     1      -1.435  -1.112  25.305  0.00  0.00    -0.002 A 
ATOM      8  C   UNL     1      -1.655  -0.368  25.021  0.00  0.00    -0.006 A 
ATOM     27  C   UNL     1      -2.379  -0.271  24.638  0.00  0.00    -0.002 A 
ATOM     28  C   UNL     1      -2.883  -0.916  24.539  0.00  0.00    +0.018 A 
BRANCH   5   2
ATOM      1  C   UNL     1      -3.672  -2.950  24.624  0.00  0.00    +0.182 C 
ATOM      2  S   UNL     1      -3.168  -2.304  24.724  0.00  0.00    +0.010 S 
ATOM      3  O   UNL     1      -2.665  -2.608  24.144  0.00  0.00    -0.169 OA
ATOM      4  O   UNL     1      -3.671  -2.000  25.303  0.00  0.00    -0.169 OA
ENDBRANCH   5   2
ENDBRANCH   9   8
ENDBRANCH  10   9
TORSDOF 5
ENDMDL
MODEL 3
REMARK VINA RESULT:     -10.7      2.317      5.223
REMARK  Name = 
REMARK  5 active torsions:
REMARK  status: ('A' for Active; 'I' for Inactive)
REMARK    1  A    between atoms: S_2  and  C_5
REMARK    2  A    between atoms: C_8  and  C_9
REMARK    3  A    between atoms: C_9  and  N_10
REMARK    4  A    between atoms: C_14  and  C_15
REMARK    5  A    between atoms: C_17  and  C_20
REMARK                            x       y       z     vdW  Elec       q    Type
REMARK                         _______ _______ _______ _____ _____    ______ ____
ROOT
ATOM     10  N   UNL     1      -3.896   1.983  24.836  0.00  0.00    -0.263 NA
ATOM     11  C   UNL     1      -4.293   2.676  24.629  0.00  0.00    +0.073 C 
ATOM     12  C   UNL     1      -5.085   2.487  24.499  0.00  0.00    +0.019 C 
ATOM     13  C   UNL     1      -5.178   1.677  24.625  0.00  0.00    +0.027 C 
ATOM     14  C   UNL     1      -4.442   1.366  24.834  0.00  0.00    +0.138 C 
ENDROOT
BRANCH  14  15
ATOM     15  C   UNL     1      -4.282   0.576  25.009  0.00  0.00    +0.251 A 
ATOM     16  N   UNL     1      -4.114  -0.018  24.461  0.00  0.00    -0.189 NA
ATOM     17  C   UNL     1      -3.989  -0.720  24.876  0.00  0.00    +0.208 A 
ATOM     18  N   UNL     1      -4.080  -0.560  25.680  0.00  0.00    -0.056 NA
ATOM     19  O   UNL     1      -4.261   0.240  25.762  0.00  0.00    -0.336 OA
BRANCH  17  20
ATOM     20  C   UNL     1      -3.806  -1.453  24.545  0.00  0.00    +0.093 A 
ATOM     21  C   UNL     1      -3.085  -1.815  24.718  0.00  0.00    +0.176 A 
ATOM     22  N   UNL     1      -2.547  -1.444  25.222  0.00  0.00    -0.107 NA
ATOM     23  N   UNL     1      -2.902  -2.548  24.387  0.00  0.00    -0.206 NA
ATOM     24  C   UNL     1      -3.439  -2.919  23.883  0.00  0.00    +0.200 A 
ATOM     25  N   UNL     1      -4.160  -2.558  23.710  0.00  0.00    -0.222 NA
ATOM     26  C   UNL     1      -4.344  -1.824  24.041  0.00  0.00    +0.107 A 
ENDBRANCH  17  20
ENDBRANCH  14  15
BRANCH  10   9
ATOM      9  C   UNL     1      -3.093   1.919  25.014  0.00  0.00    +0.099 C 
BRANCH   9   8
ATOM      5  C   UNL     1      -1.656   3.935  24.992  0.00  0.00    +0.106 A 
ATOM      6  C   UNL     1      -1.713   3.461  24.319  0.00  0.00    +0.018 A 
ATOM      7  C   UNL     1      -2.192   2.790  24.326  0.00  0.00    -0.002 A 
ATOM      8  C   UNL     1      -2.614   2.591  25.007  0.00  0.00    -0.006 A 
ATOM     27  C   UNL     1      -2.557   3.065  25.680  0.00  0.00    -0.002 A 
ATOM     28  C   UNL     1      -2.078   3.736  25.672  0.00  0.00    +0.018 A 
BRANCH   5   2
ATOM      1  C   UNL     1      -0.697   5.278  24.977  0.00  0.00    +0.182 C 
ATOM      2  S   UNL     1      -1.177   4.606  24.985  0.00  0.00    +0.010 S 
ATOM      3  O   UNL     1      -0.571   4.170  24.634  0.00  0.00    -0.169 OA
ATOM      4  O   UNL     1      -1.783   5.043  25.335  0.00  0.00    -0.169 OA
ENDBRANCH   5   2
ENDBRANCH   9   8
ENDBRANCH  10   9
TORSDOF 5
ENDMDL
MODEL 4
REMARK VINA RESULT:     -10.5      2.821      5.779
REMARK  Name = 
REMARK  5 active torsions:
REMARK  status: ('A' for Active; 'I' for Inactive)
REMARK    1  A    between atoms: S_2  and  C_5
REMARK    2  A    between atoms: C_8  and  C_9
REMARK    3  A    between atoms: C_9  and  N_10
REMARK    4  A    between atoms: C_14  and  C_15
REMARK    5  A    between atoms: C_17  and  C_20
REMARK                            x       y       z     vdW  Elec       q    Type
REMARK                         _______ _______ _______ _____ _____    ______ ____
ROOT
ATOM     10  N   UNL     1      -0.666   1.006  24.732  0.00  0.00    -0.263 NA
ATOM     11  C   UNL     1      -0.010   1.344  24.363  0.00  0.00    +0.073 C 
ATOM     12  C   UNL     1       0.355   0.761  23.908  0.00  0.00    +0.019 C 
ATOM     13  C   UNL     1      -0.076   0.063  23.995  0.00  0.00    +0.027 C 
ATOM     14  C   UNL     1      -0.707   0.214  24.506  0.00  0.00    +0.138 C 
ENDROOT
BRANCH  14  15
ATOM     15  C   UNL     1      -1.277  -0.330  24.746  0.00  0.00    +0.251 A 
ATOM     16  N   UNL     1      -1.899  -0.616  24.285  0.00  0.00    -0.189 NA
ATOM     17  C   UNL     1      -2.333  -1.147  24.744  0.00  0.00    +0.208 A 
ATOM     18  N   UNL     1      -1.980  -1.189  25.487  0.00  0.00    -0.056 NA
ATOM     19  O   UNL     1      -1.328  -0.685  25.489  0.00  0.00    -0.336 OA
BRANCH  17  20
ATOM     20  C   UNL     1      -3.003  -1.563  24.500  0.00  0.00    +0.093 A 
ATOM     21  C   UNL     1      -2.970  -2.383  24.414  0.00  0.00    +0.176 A 
ATOM     22  N   UNL     1      -2.268  -2.787  24.570  0.00  0.00    -0.107 NA
ATOM     23  N   UNL     1      -3.640  -2.799  24.171  0.00  0.00    -0.206 NA
ATOM     24  C   UNL     1      -4.342  -2.395  24.015  0.00  0.00    +0.200 A 
ATOM     25  N   UNL     1      -4.375  -1.576  24.101  0.00  0.00    -0.222 NA
ATOM     26  C   UNL     1      -3.705  -1.160  24.344  0.00  0.00    +0.107 A 
ENDBRANCH  17  20
ENDBRANCH  14  15
BRANCH  10   9
ATOM      9  C   UNL     1      -1.189   1.392  25.240  0.00  0.00    +0.099 C 
BRANCH   9   8
ATOM      5  C   UNL     1      -1.379   3.860  25.179  0.00  0.00    +0.106 A 
ATOM      6  C   UNL     1      -1.844   3.398  24.678  0.00  0.00    +0.018 A 
ATOM      7  C   UNL     1      -1.781   2.575  24.698  0.00  0.00    -0.002 A 
ATOM      8  C   UNL     1      -1.252   2.215  25.219  0.00  0.00    -0.006 A 
ATOM     27  C   UNL     1      -0.787   2.677  25.720  0.00  0.00    -0.002 A 
ATOM     28  C   UNL     1      -0.851   3.499  25.699  0.00  0.00    +0.018 A 
BRANCH   5   2
ATOM      1  C   UNL     1      -1.505   5.504  25.138  0.00  0.00    +0.182 C 
ATOM      2  S   UNL     1      -1.442   4.681  25.158  0.00  0.00    +0.010 S 
ATOM      3  O   UNL     1      -0.736   4.726  24.734  0.00  0.00    -0.169 OA
ATOM      4  O   UNL     1      -2.148   4.638  25.582  0.00  0.00    -0.169 OA
ENDBRANCH   5   2
ENDBRANCH   9   8
ENDBRANCH  10   9
TORSDOF 5
ENDMDL
MODEL 5
REMARK VINA RESULT:      -9.5      1.982      3.245
REMARK  Name = 
REMARK  5 active torsions:
REMARK  status: ('A' for Active; 'I' for Inactive)
REMARK    1  A    between atoms: S_2  and  C_5
REMARK    2  A    between atoms: C_8  and  C_9
REMARK    3  A    between atoms: C_9  and  N_10
REMARK    4  A    between atoms: C_14  and  C_15
REMARK    5  A    between atoms: C_17  and  C_20
REMARK                            x       y       z     vdW  Elec       q    Type
REMARK                         _______ _______ _______ _____ _____    ______ ____
ROOT
ATOM     10  N   UNL     1      -1.091   1.972  25.101  0.00  0.00    -0.263 NA
ATOM     11  C   UNL     1      -0.361   1.918  25.481  0.00  0.00    +0.073 C 
ATOM     12  C   UNL     1      -0.275   2.584  25.962  0.00  0.00    +0.019 C 
ATOM     13  C   UNL     1      -0.951   3.048  25.878  0.00  0.00    +0.027 C 
ATOM     14  C   UNL     1      -1.456   2.669  25.346  0.00  0.00    +0.138 C 
ENDROOT
BRANCH  14  15
ATOM     15  C   UNL     1      -2.195   2.941  25.102  0.00  0.00    +0.251 A 
ATOM     16  N   UNL     1      -2.913   2.806  25.486  0.00  0.00    -0.189 NA
ATOM     17  C   UNL     1      -3.508   3.177  25.052  0.00  0.00    +0.208 A 
ATOM     18  N   UNL     1      -3.159   3.541  24.400  0.00  0.00    -0.056 NA
ATOM     19  O   UNL     1      -2.349   3.396  24.431  0.00  0.00    -0.336 OA
BRANCH  17  20
ATOM     20  C   UNL     1      -4.312   3.182  25.238  0.00  0.00    +0.093 A 
ATOM     21  C   UNL     1      -4.829   2.672  24.848  0.00  0.00    +0.176 A 
ATOM     22  N   UNL     1      -4.543   2.156  24.271  0.00  0.00    -0.107 NA
ATOM     23  N   UNL     1      -5.633   2.677  25.034  0.00  0.00    -0.206 NA
ATOM     24  C   UNL     1      -5.920   3.193  25.610  0.00  0.00    +0.200 A 
ATOM     25  N   UNL     1      -5.403   3.704  26.001  0.00  0.00    -0.222 NA
ATOM     26  C   UNL     1      -4.599   3.698  25.815  0.00  0.00    +0.107 A 
ENDBRANCH  17  20
ENDBRANCH  14  15
BRANCH  10   9
ATOM      9  C   UNL     1      -1.402   1.424  24.569  0.00  0.00    +0.099 C 
BRANCH   9   8
ATOM      5  C   UNL     1      -0.946  -0.991  24.873  0.00  0.00    +0.106 A 
ATOM      6  C   UNL     1      -1.556  -0.630  25.296  0.00  0.00    +0.018 A 
ATOM      7  C   UNL     1      -1.708   0.175  25.195  0.00  0.00    -0.002 A 
ATOM      8  C   UNL     1      -1.250   0.618  24.670  0.00  0.00    -0.006 A 
ATOM     27  C   UNL     1      -0.640   0.257  24.248  0.00  0.00    -0.002 A 
ATOM     28  C   UNL     1      -0.489  -0.548  24.350  0.00  0.00    +0.018 A 
BRANCH   5   2
ATOM      1  C   UNL     1      -0.643  -2.600  25.076  0.00  0.00    +0.182 C 
ATOM      2  S   UNL     1      -0.795  -1.795  24.974  0.00  0.00    +0.010 S 
ATOM      3  O   UNL     1      -1.350  -1.974  24.391  0.00  0.00    -0.169 OA
ATOM      4  O   UNL     1      -0.239  -1.618  25.558  0.00  0.00    -0.169 OA
ENDBRANCH   5   2
ENDBRANCH   9   8
ENDBRANCH  10   9
TORSDOF 5
ENDMDL
MODEL 6
REMARK VINA RESULT:      -9.4      3.077      4.780
REMARK  Name = 
REMARK  5 active torsions:
REMARK  status: ('A' for Active; 'I' for Inactive)
REMARK    1  A    between atoms: S_2  and  C_5
REMARK    2  A    between atoms: C_8  and  C_9
REMARK    3  A    between atoms: C_9  and  N_10
REMARK    4  A    between atoms: C_14  and  C_15
REMARK    5  A    between atoms: C_17  and  C_20
REMARK                            x       y       z     vdW  Elec       q    Type
REMARK                         _______ _______ _______ _____ _____    ______ ____
ROOT
ATOM     10  N   UNL     1      -1.528   3.863  25.379  0.00  0.00    -0.263 NA
ATOM     11  C   UNL     1      -1.722   4.656  25.265  0.00  0.00    +0.073 C 
ATOM     12  C   UNL     1      -1.097   5.015  24.862  0.00  0.00    +0.019 C 
ATOM     13  C   UNL     1      -0.518   4.443  24.727  0.00  0.00    +0.027 C 
ATOM     14  C   UNL     1      -0.785   3.731  25.047  0.00  0.00    +0.138 C 
ENDROOT
BRANCH  14  15
ATOM     15  C   UNL     1      -0.379   3.013  25.037  0.00  0.00    +0.251 A 
ATOM     16  N   UNL     1      -0.392   2.457  24.427  0.00  0.00    -0.189 NA
ATOM     17  C   UNL     1       0.090   1.825  24.647  0.00  0.00    +0.208 A 
ATOM     18  N   UNL     1       0.400   1.990  25.393  0.00  0.00    -0.056 NA
ATOM     19  O   UNL     1       0.110   2.723  25.634  0.00  0.00    -0.336 OA
BRANCH  17  20
ATOM     20  C   UNL     1       0.235   1.147  24.200  0.00  0.00    +0.093 A 
ATOM     21  C   UNL     1      -0.182   0.453  24.356  0.00  0.00    +0.176 A 
ATOM     22  N   UNL     1      -0.744   0.436  24.960  0.00  0.00    -0.107 NA
ATOM     23  N   UNL     1      -0.036  -0.225  23.909  0.00  0.00    -0.206 NA
ATOM     24  C   UNL     1       0.526  -0.208  23.306  0.00  0.00    +0.200 A 
ATOM     25  N   UNL     1       0.943   0.486  23.149  0.00  0.00    -0.222 NA
ATOM     26  C   UNL     1       0.798   1.164  23.597  0.00  0.00    +0.107 A 
ENDBRANCH  17  20
ENDBRANCH  14  15
BRANCH  10   9
ATOM      9  C   UNL     1      -1.996   3.300  25.759  0.00  0.00    +0.099 C 
BRANCH   9   8
ATOM      5  C   UNL     1      -4.464   3.449  25.628  0.00  0.00    +0.106 A 
ATOM      6  C   UNL     1      -4.053   3.893  26.189  0.00  0.00    +0.018 A 
ATOM      7  C   UNL     1      -3.230   3.843  26.233  0.00  0.00    -0.002 A 
ATOM      8  C   UNL     1      -2.819   3.349  25.716  0.00  0.00    -0.006 A 
ATOM     27  C   UNL     1      -3.230   2.905  25.155  0.00  0.00    -0.002 A 
ATOM     28  C   UNL     1      -4.052   2.955  25.112  0.00  0.00    +0.018 A 
BRANCH   5   2
ATOM      1  C   UNL     1      -6.108   3.548  25.542  0.00  0.00    +0.182 C 
ATOM      2  S   UNL     1      -5.285   3.498  25.585  0.00  0.00    +0.010 S 
ATOM      3  O   UNL     1      -5.346   2.713  25.830  0.00  0.00    -0.169 OA
ATOM      4  O   UNL     1      -5.226   4.284  25.340  0.00  0.00    -0.169 OA
ENDBRANCH   5   2
ENDBRANCH   9   8
ENDBRANCH  10   9
TORSDOF 5
ENDMDL
