MODEL 1
REMARK VINA RESULT:     -12.9      0.000      0.000
REMARK  Name = 
REMARK  3 active torsions:
REMARK  status: ('A' for Active; 'I' for Inactive)
REMARK    1  A    between atoms: C_7  and  C_9
REMARK    2  A    between atoms: N_12  and  C_13
REMARK    3  A    between atoms: C_13  and  C_14
REMARK                            x       y       z     vdW  Elec       q    Type
REMARK                         _______ _______ _______ _____ _____    ______ ____
ROOT
ATOM      9  C   UNL     1      -4.390   1.119  24.757  0.00  0.00    +0.076 C 
ATOM     10  C   UNL     1      -5.104   1.454  24.999  0.00  0.00    +0.026 C 
ATOM     11  C   UNL     1      -5.047   2.272  24.911  0.00  0.00    +0.073 C 
ATOM     12  N   UNL     1      -4.297   2.443  24.613  0.00  0.00    -0.272 NA
ATOM     20  C   UNL     1      -3.891   1.731  24.518  0.00  0.00    +0.080 C 
ENDROOT
BRANCH   9   7
ATOM      1  C   UNL     1      -3.796  -3.088  23.995  0.00  0.00    +0.031 C 
ATOM      2  C   UNL     1      -3.782  -2.354  24.370  0.00  0.00    -0.020 A 
ATOM      3  C   UNL     1      -4.112  -1.695  24.000  0.00  0.00    +0.016 A 
ATOM      4  C   UNL     1      -4.099  -0.960  24.376  0.00  0.00    +0.100 A 
ATOM      5  C   UNL     1      -3.755  -0.885  25.122  0.00  0.00    +0.100 A 
ATOM      6  N   UNL     1      -3.823  -0.098  25.355  0.00  0.00    -0.229 NA
ATOM      7  C   UNL     1      -4.208   0.315  24.754  0.00  0.00    +0.140 A 
ATOM      8  N   UNL     1      -4.378  -0.219  24.149  0.00  0.00    -0.229 NA
ATOM     21  C   UNL     1      -3.425  -1.545  25.493  0.00  0.00    +0.020 A 
ATOM     22  C   UNL     1      -3.439  -2.279  25.117  0.00  0.00    -0.003 A 
ENDBRANCH   9   7
BRANCH  12  13
ATOM     13  C   UNL     1      -4.003   3.195  24.441  0.00  0.00    +0.072 C 
BRANCH  13  14
ATOM     14  C   UNL     1      -3.427   3.534  24.924  0.00  0.00    +0.016 C 
ATOM     15  C   UNL     1      -3.642   3.886  25.639  0.00  0.00    +0.001 C 
ATOM     16  C   UNL     1      -3.065   4.225  26.121  0.00  0.00    +0.000 C 
ATOM     17  C   UNL     1      -2.274   4.212  25.890  0.00  0.00    +0.000 C 
ATOM     18  C   UNL     1      -2.058   3.860  25.176  0.00  0.00    +0.000 C 
ATOM     19  C   UNL     1      -2.635   3.521  24.692  0.00  0.00    +0.001 C 
ENDBRANCH  13  14
ENDBRANCH  12  13
TORSDOF 3
ENDMDL
MODEL 2
REMARK VINA RESULT:     -12.5      0.923      5.012
REMARK  Name = 
REMARK  3 active torsions:
REMARK  status: ('A' for Active; 'I' for Inactive)
REMARK    1  A    between atoms: C_7  and  C_9
REMARK    2  A    between atoms: N_12  and  C_13
REMARK    3  A    between atoms: C_13  and  C_14
REMARK                            x       y       z     vdW  Elec       q    Type
REMARK                         _______ _______ _______ _____ _____    ______ ____
ROOT
ATOM      9  C   UNL     1      -3.256   1.487  24.372  0.00  0.00    +0.076 C 
ATOM     10  C   UNL     1      -3.243   1.156  23.617  0.00  0.00    +0.026 C 
ATOM     11  C   UNL     1      -3.661   0.445  23.641  0.00  0.00    +0.073 C 
ATOM     12  N   UNL     1      -3.934   0.337  24.412  0.00  0.00    -0.272 NA
ATOM     20  C   UNL     1      -3.683   0.981  24.864  0.00  0.00    +0.080 C 
ENDROOT
BRANCH   9   7
ATOM      1  C   UNL     1      -0.785   4.956  25.071  0.00  0.00    +0.031 C 
ATOM      2  C   UNL     1      -1.421   4.433  25.103  0.00  0.00    -0.020 A 
ATOM      3  C   UNL     1      -1.394   3.724  24.683  0.00  0.00    +0.016 A 
ATOM      4  C   UNL     1      -2.030   3.200  24.715  0.00  0.00    +0.100 A 
ATOM      5  C   UNL     1      -2.695   3.386  25.167  0.00  0.00    +0.100 A 
ATOM      6  N   UNL     1      -3.235   2.767  25.094  0.00  0.00    -0.229 NA
ATOM      7  C   UNL     1      -2.904   2.199  24.596  0.00  0.00    +0.140 A 
ATOM      8  N   UNL     1      -2.160   2.467  24.362  0.00  0.00    -0.229 NA
ATOM     21  C   UNL     1      -2.723   4.096  25.588  0.00  0.00    +0.020 A 
ATOM     22  C   UNL     1      -2.085   4.619  25.555  0.00  0.00    -0.003 A 
ENDBRANCH   9   7
BRANCH  12  13
ATOM     13  C   UNL     1      -4.379  -0.302  24.684  0.00  0.00    +0.072 C 
BRANCH  13  14
ATOM     14  C   UNL     1      -4.043  -1.056  24.714  0.00  0.00    +0.016 C 
ATOM     15  C   UNL     1      -3.602  -1.285  25.373  0.00  0.00    +0.001 C 
ATOM     16  C   UNL     1      -3.268  -2.039  25.402  0.00  0.00    +0.000 C 
ATOM     17  C   UNL     1      -3.374  -2.562  24.774  0.00  0.00    +0.000 C 
ATOM     18  C   UNL     1      -3.814  -2.333  24.115  0.00  0.00    +0.000 C 
ATOM     19  C   UNL     1      -4.150  -1.579  24.085  0.00  0.00    +0.001 C 
ENDBRANCH  13  14
ENDBRANCH  12  13
TORSDOF 3
ENDMDL
MODEL 3
REMARK VINA RESULT:     -12.3      1.691      2.298
REMARK  Name = 
REMARK  3 active torsions:
REMARK  status: ('A' for Active; 'I' for Inactive)
REMARK    1  A    between atoms: C_7  and  C_9
REMARK    2  A    between atoms: N_12  and  C_13
REMARK    3  A    between atoms: C_13  and  C_14
REMARK                            x       y       z     vdW  Elec       q    Type
REMARK                         _______ _______ _______ _____ _____    ______ ____
ROOT
ATOM      9  C   UNL     1      -1.612   0.929  24.749  0.00  0.00    +0.076 C 
ATOM     10  C   UNL     1      -0.951   1.100  24.287  0.00  0.00    +0.026 C 
ATOM     11  C   UNL     1      -0.580   1.764  24.605  0.00  0.00    +0.073 C 
ATOM     12  N   UNL     1      -1.013   2.005  25.265  0.00  0.00    -0.272 NA
ATOM     20  C   UNL     1      -1.651   1.488  25.354  0.00  0.00    +0.080 C 
ENDROOT
BRANCH   9   7
ATOM      1  C   UNL     1      -3.779  -2.791  24.429  0.00  0.00    +0.031 C 
ATOM      2  C   UNL     1      -3.597  -1.988  24.383  0.00  0.00    -0.020 A 
ATOM      3  C   UNL     1      -2.862  -1.716  24.639  0.00  0.00    +0.016 A 
ATOM      4  C   UNL     1      -2.680  -0.913  24.593  0.00  0.00    +0.100 A 
ATOM      5  C   UNL     1      -3.234  -0.381  24.291  0.00  0.00    +0.100 A 
ATOM      6  N   UNL     1      -2.901   0.373  24.313  0.00  0.00    -0.229 NA
ATOM      7  C   UNL     1      -2.142   0.308  24.628  0.00  0.00    +0.140 A 
ATOM      8  N   UNL     1      -2.006  -0.486  24.801  0.00  0.00    -0.229 NA
ATOM     21  C   UNL     1      -3.970  -0.653  24.035  0.00  0.00    +0.020 A 
ATOM     22  C   UNL     1      -4.151  -1.456  24.082  0.00  0.00    -0.003 A 
ENDBRANCH   9   7
BRANCH  12  13
ATOM     13  C   UNL     1      -0.839   2.648  25.751  0.00  0.00    +0.072 C 
BRANCH  13  14
ATOM     14  C   UNL     1      -1.133   3.397  25.567  0.00  0.00    +0.016 C 
ATOM     15  C   UNL     1      -1.882   3.623  25.830  0.00  0.00    +0.001 C 
ATOM     16  C   UNL     1      -2.175   4.371  25.645  0.00  0.00    +0.000 C 
ATOM     17  C   UNL     1      -1.721   4.894  25.198  0.00  0.00    +0.000 C 
ATOM     18  C   UNL     1      -0.971   4.668  24.934  0.00  0.00    +0.000 C 
ATOM     19  C   UNL     1      -0.677   3.919  25.119  0.00  0.00    +0.001 C 
ENDBRANCH  13  14
ENDBRANCH  12  13
TORSDOF 3
ENDMDL
