MODEL 1
REMARK VINA RESULT:     -11.8      0.000      0.000
REMARK  Name = 
REMARK  4 active torsions:
REMARK  status: ('A' for Active; 'I' for Inactive)
REMARK    1  A    between atoms: C_1  and  C_2
REMARK    2  A    between atoms: C_1  and  C_16
REMARK    3  A    between atoms: C_5  and  C_7
REMARK    4  A    between atoms: N_10  and  C_12
REMARK                            x       y       z     vdW  Elec       q    Type
REMARK                         _______ _______ _______ _____ _____    ______ ____
ROOT
ATOM      2  C   UNL     1      -3.718   0.365  24.447  0.00  0.00    +0.230 A 
ATOM      3  N   UNL     1      -3.566   0.588  23.667  0.00  0.00    -0.111 NA
ATOM      4  N   UNL     1      -3.009   1.196  23.680  0.00  0.00    -0.112 NA
ATOM      5  C   UNL     1      -2.816   1.349  24.468  0.00  0.00    +0.227 A 
ATOM      6  O   UNL     1      -3.255   0.835  24.942  0.00  0.00    -0.423 OA
ENDROOT
BRANCH   5   7
ATOM      7  C   UNL     1      -2.279   1.916  24.734  0.00  0.00    +0.095 C 
ATOM      8  C   UNL     1      -1.548   1.764  25.085  0.00  0.00    +0.028 C 
ATOM      9  C   UNL     1      -1.197   2.488  25.264  0.00  0.00    +0.073 C 
ATOM     10  N   UNL     1      -1.711   3.087  25.025  0.00  0.00    -0.274 NA
ATOM     11  C   UNL     1      -2.380   2.733  24.697  0.00  0.00    +0.081 C 
BRANCH  10  12
ATOM     12  C   UNL     1      -1.579   3.899  25.100  0.00  0.00    +0.058 C 
ATOM     13  C   UNL     1      -0.936   4.400  24.972  0.00  0.00    +0.016 C 
ATOM     14  C   UNL     1      -1.393   5.045  25.206  0.00  0.00    +0.003 C 
ATOM     15  C   UNL     1      -2.036   4.545  25.333  0.00  0.00    +0.016 C 
ENDBRANCH  10  12
ENDBRANCH   5   7
BRANCH   2   1
ATOM      1  C   UNL     1      -4.242  -0.225  24.689  0.00  0.00    +0.113 C 
BRANCH   1  16
ATOM     16  C   UNL     1      -4.008  -1.016  24.672  0.00  0.00    -0.013 A 
ATOM     17  C   UNL     1      -4.173  -1.481  24.010  0.00  0.00    -0.004 A 
ATOM     18  C   UNL     1      -3.939  -2.271  23.994  0.00  0.00    -0.000 A 
ATOM     19  C   UNL     1      -3.541  -2.598  24.638  0.00  0.00    -0.000 A 
ATOM     20  C   UNL     1      -3.376  -2.133  25.300  0.00  0.00    -0.000 A 
ATOM     21  C   UNL     1      -3.610  -1.342  25.317  0.00  0.00    -0.004 A 
ENDBRANCH   1  16
ENDBRANCH   2   1
TORSDOF 4
ENDMDL
MODEL 2
REMARK VINA RESULT:     -11.3      1.229      5.062
REMARK  Name = 
REMARK  4 active torsions:
REMARK  status: ('A' for Active; 'I' for Inactive)
REMARK    1  A    between atoms: C_1  and  C_2
REMARK    2  A    between atoms: C_1  and  C_16
REMARK    3  A    between atoms: C_5  and  C_7
REMARK    4  A    between atoms: N_10  and  C_12
REMARK                            x       y       z     vdW  Elec       q    Type
REMARK                         _______ _______ _______ _____ _____    ______ ____
ROOT
ATOM      2  C   UNL     1      -3.331   3.527  25.381  0.00  0.00    +0.230 A 
ATOM      3  N   UNL     1      -3.768   3.738  24.714  0.00  0.00    -0.111 NA
ATOM      4  N   UNL     1      -4.179   3.070  24.457  0.00  0.00    -0.112 NA
ATOM      5  C   UNL     1      -3.994   2.446  24.965  0.00  0.00    +0.227 A 
ATOM      6  O   UNL     1      -3.470   2.729  25.536  0.00  0.00    -0.423 OA
ENDROOT
BRANCH   5   7
ATOM      7  C   UNL     1      -4.284   1.676  24.911  0.00  0.00    +0.095 C 
ATOM      8  C   UNL     1      -5.072   1.447  24.992  0.00  0.00    +0.028 C 
ATOM      9  C   UNL     1      -5.111   0.629  24.897  0.00  0.00    +0.073 C 
ATOM     10  N   UNL     1      -4.346   0.352  24.757  0.00  0.00    -0.274 NA
ATOM     11  C   UNL     1      -3.835   0.999  24.766  0.00  0.00    +0.081 C 
BRANCH  10  12
ATOM     12  C   UNL     1      -4.130  -0.435  24.631  0.00  0.00    +0.058 C 
ATOM     13  C   UNL     1      -3.731  -1.008  25.071  0.00  0.00    +0.016 C 
ATOM     14  C   UNL     1      -3.826  -1.547  24.453  0.00  0.00    +0.003 C 
ATOM     15  C   UNL     1      -4.224  -0.974  24.014  0.00  0.00    +0.016 C 
ENDBRANCH  10  12
ENDBRANCH   5   7
BRANCH   2   1
ATOM      1  C   UNL     1      -2.839   4.027  25.816  0.00  0.00    +0.113 C 
BRANCH   1  16
ATOM     16  C   UNL     1      -2.094   4.229  25.525  0.00  0.00    -0.013 A 
ATOM     17  C   UNL     1      -1.965   4.980  25.207  0.00  0.00    -0.004 A 
ATOM     18  C   UNL     1      -1.221   5.181  24.916  0.00  0.00    -0.000 A 
ATOM     19  C   UNL     1      -0.605   4.633  24.942  0.00  0.00    -0.000 A 
ATOM     20  C   UNL     1      -0.733   3.883  25.260  0.00  0.00    -0.000 A 
ATOM     21  C   UNL     1      -1.478   3.681  25.551  0.00  0.00    -0.004 A 
ENDBRANCH   1  16
ENDBRANCH   2   1
TORSDOF 4
ENDMDL
MODEL 3
REMARK VINA RESULT:     -11.1      0.765      5.111
REMARK  Name = 
REMARK  4 active torsions:
REMARK  status: ('A' for Active; 'I' for Inactive)
REMARK    1  A    between atoms: C_1  and  C_2
REMARK    2  A    between atoms: C_1  and  C_16
REMARK    3  A    between atoms: C_5  and  C_7
REMARK    4  A    between atoms: N_10  and  C_12
REMARK                            x       y       z     vdW  Elec       q    Type
REMARK                         _______ _______ _______ _____ _____    ______ ____
ROOT
ATOM      2  C   UNL     1      -1.566   2.074  24.990  0.00  0.00    +0.230 A 
ATOM      3  N   UNL     1      -1.389   1.950  24.194  0.00  0.00    -0.111 NA
ATOM      4  N   UNL     1      -1.894   1.363  23.909  0.00  0.00    -0.112 NA
ATOM      5  C   UNL     1      -2.383   1.124  24.529  0.00  0.00    +0.227 A 
ATOM      6  O   UNL     1      -2.181   1.563  25.197  0.00  0.00    -0.423 OA
ENDROOT
BRANCH   5   7
ATOM      7  C   UNL     1      -2.971   0.547  24.488  0.00  0.00    +0.095 C 
ATOM      8  C   UNL     1      -3.784   0.684  24.461  0.00  0.00    +0.028 C 
ATOM      9  C   UNL     1      -4.165  -0.046  24.422  0.00  0.00    +0.073 C 
ATOM     10  N   UNL     1      -3.586  -0.635  24.426  0.00  0.00    -0.274 NA
ATOM     11  C   UNL     1      -2.849  -0.268  24.466  0.00  0.00    +0.081 C 
BRANCH  10  12
ATOM     12  C   UNL     1      -3.723  -1.449  24.395  0.00  0.00    +0.058 C 
ATOM     13  C   UNL     1      -3.514  -2.094  24.866  0.00  0.00    +0.016 C 
ATOM     14  C   UNL     1      -3.915  -2.598  24.350  0.00  0.00    +0.003 C 
ATOM     15  C   UNL     1      -4.123  -1.954  23.880  0.00  0.00    +0.016 C 
ENDBRANCH  10  12
ENDBRANCH   5   7
BRANCH   2   1
ATOM      1  C   UNL     1      -1.194   2.614  25.492  0.00  0.00    +0.113 C 
BRANCH   1  16
ATOM     16  C   UNL     1      -1.351   3.420  25.417  0.00  0.00    -0.013 A 
ATOM     17  C   UNL     1      -0.827   3.906  25.003  0.00  0.00    -0.004 A 
ATOM     18  C   UNL     1      -0.984   4.712  24.929  0.00  0.00    -0.000 A 
ATOM     19  C   UNL     1      -1.663   5.034  25.269  0.00  0.00    -0.000 A 
ATOM     20  C   UNL     1      -2.187   4.549  25.683  0.00  0.00    -0.000 A 
ATOM     21  C   UNL     1      -2.030   3.742  25.757  0.00  0.00    -0.004 A 
ENDBRANCH   1  16
ENDBRANCH   2   1
TORSDOF 4
ENDMDL
