REMARK  Name = 
REMARK  6 active torsions:
REMARK  status: ('A' for Active; 'I' for Inactive)
REMARK    1  A    between atoms: N_5  and  C_8
REMARK    2  A    between atoms: C_9  and  C_10
REMARK    3  A    between atoms: C_10  and  N_11
REMARK    4  A    between atoms: N_11  and  S_12
REMARK    5  A    between atoms: S_12  and  C_15
REMARK    6  A    between atoms: C_21  and  C_22
REMARK                            x       y       z     vdW  Elec       q    Type
REMARK                         _______ _______ _______ _____ _____    ______ ____
ROOT
ATOM      8  C   UNL     1       0.715   3.466   0.000  0.00  0.00    +0.120 C 
ATOM      9  C   UNL     1       1.382   2.981   0.000  0.00  0.00    +0.152 C 
ATOM     20  O   UNL     1       1.127   2.196   0.000  0.00  0.00    -0.350 OA
ATOM     21  C   UNL     1       0.302   2.196   0.000  0.00  0.00    +0.180 C 
ATOM     24  C   UNL     1       0.047   2.981   0.000  0.00  0.00    +0.198 C 
ATOM     25  O   UNL     1      -0.738   3.236   0.000  0.00  0.00    -0.219 OA
ENDROOT
BRANCH   8   5
ATOM      1  C   UNL     1       0.715   6.766   0.000  0.00  0.00    +0.000 C 
ATOM      2  C   UNL     1       0.715   5.941   0.000  0.00  0.00    +0.003 C 
ATOM      3  C   UNL     1       1.429   5.529   0.000  0.00  0.00    +0.017 C 
ATOM      4  C   UNL     1       1.429   4.704   0.000  0.00  0.00    +0.072 C 
ATOM      5  N   UNL     1       0.715   4.291   0.000  0.00  0.00    -0.270 NA
ATOM      6  C   UNL     1       0.000   4.704   0.000  0.00  0.00    +0.072 C 
ATOM      7  C   UNL     1       0.000   5.529   0.000  0.00  0.00    +0.017 C 
ENDBRANCH   8   5
BRANCH  21  22
ATOM     22  C   UNL     1      -0.183   1.529   0.000  0.00  0.00    +0.214 C 
ATOM     23  O   UNL     1      -1.003   1.615   0.000  0.00  0.00    -0.218 OA
ENDBRANCH  21  22
BRANCH   9  10
ATOM     10  C   UNL     1       2.167   3.236   0.000  0.00  0.00    +0.146 C 
BRANCH  10  11
ATOM     11  N   UNL     1       2.338   4.043   0.000  0.00  0.00    -0.075 NA
BRANCH  11  12
ATOM     12  S   UNL     1       3.123   4.298   0.000  0.00  0.00    +0.083 S 
ATOM     13  O   UNL     1       3.378   3.513   0.000  0.00  0.00    -0.151 OA
ATOM     14  O   UNL     1       2.868   5.083   0.000  0.00  0.00    -0.151 OA
BRANCH  12  15
ATOM     15  C   UNL     1       3.907   4.553   0.000  0.00  0.00    +0.153 A 
ATOM     16  C   UNL     1       4.162   5.338   0.000  0.00  0.00    +0.027 A 
ATOM     17  C   UNL     1       4.987   5.338   0.000  0.00  0.00    +0.009 A 
ATOM     18  C   UNL     1       5.242   4.553   0.000  0.00  0.00    +0.037 A 
ATOM     19  S   UNL     1       4.575   4.068   0.000  0.00  0.00    -0.067 S 
ENDBRANCH  12  15
ENDBRANCH  11  12
ENDBRANCH  10  11
ENDBRANCH   9  10
TORSDOF 6
