MODEL 1
REMARK VINA RESULT:     -12.5      0.000      0.000
REMARK  Name = 
REMARK  4 active torsions:
REMARK  status: ('A' for Active; 'I' for Inactive)
REMARK    1  A    between atoms: C_4  and  C_5
REMARK    2  A    between atoms: C_5  and  N_6
REMARK    3  A    between atoms: C_11  and  O_13
REMARK    4  A    between atoms: O_13  and  C_14
REMARK                            x       y       z     vdW  Elec       q    Type
REMARK                         _______ _______ _______ _____ _____    ______ ____
ROOT
ATOM      6  N   UNL     1      -4.298   1.110  24.450  0.00  0.00    -0.264 NA
ATOM      7  C   UNL     1      -4.933   1.117  24.979  0.00  0.00    +0.105 C 
ATOM      8  C   UNL     1      -5.236   1.751  25.412  0.00  0.00    +0.160 C 
ATOM      9  O   UNL     1      -4.980   2.534  25.424  0.00  0.00    -0.348 OA
ATOM     10  C   UNL     1      -4.357   2.879  25.006  0.00  0.00    +0.187 C 
ATOM     11  C   UNL     1      -3.838   2.524  24.473  0.00  0.00    +0.211 C 
ATOM     12  C   UNL     1      -3.811   1.737  24.225  0.00  0.00    +0.119 C 
ENDROOT
BRANCH   6   5
ATOM      5  C   UNL     1      -4.130   0.382  24.102  0.00  0.00    +0.101 C 
BRANCH   5   4
ATOM      1  C   UNL     1      -2.473  -0.955  26.077  0.00  0.00    +0.130 C 
ATOM      2  N   UNL     1      -2.987  -0.820  25.447  0.00  0.00    -0.324 N 
ATOM      3  C   UNL     1      -3.241  -0.083  25.177  0.00  0.00    +0.073 A 
ATOM      4  C   UNL     1      -3.749  -0.206  24.539  0.00  0.00    +0.012 A 
ATOM     20  C   UNL     1      -3.809  -1.018  24.414  0.00  0.00    +0.015 A 
ATOM     21  C   UNL     1      -3.338  -1.398  24.975  0.00  0.00    +0.060 A 
ATOM     22  C   UNL     1      -3.290  -2.222  24.983  0.00  0.00    +0.017 A 
ATOM     23  C   UNL     1      -3.712  -2.665  24.431  0.00  0.00    +0.001 A 
ATOM     24  C   UNL     1      -4.183  -2.286  23.870  0.00  0.00    +0.000 A 
ATOM     25  C   UNL     1      -4.232  -1.462  23.861  0.00  0.00    +0.001 A 
ENDBRANCH   5   4
ENDBRANCH   6   5
BRANCH  11  13
ATOM     13  O   UNL     1      -3.268   3.022  24.142  0.00  0.00    -0.475 OA
BRANCH  13  14
ATOM     14  C   UNL     1      -2.653   3.312  24.610  0.00  0.00    +0.139 A 
ATOM     15  C   UNL     1      -1.929   2.918  24.628  0.00  0.00    +0.037 A 
ATOM     16  C   UNL     1      -1.313   3.208  25.095  0.00  0.00    +0.003 A 
ATOM     17  C   UNL     1      -1.423   3.892  25.544  0.00  0.00    +0.000 A 
ATOM     18  C   UNL     1      -2.149   4.286  25.525  0.00  0.00    +0.003 A 
ATOM     19  C   UNL     1      -2.763   3.995  25.058  0.00  0.00    +0.037 A 
ENDBRANCH  13  14
ENDBRANCH  11  13
TORSDOF 4
ENDMDL
MODEL 2
REMARK VINA RESULT:     -12.5      1.516      4.587
REMARK  Name = 
REMARK  4 active torsions:
REMARK  status: ('A' for Active; 'I' for Inactive)
REMARK    1  A    between atoms: C_4  and  C_5
REMARK    2  A    between atoms: C_5  and  N_6
REMARK    3  A    between atoms: C_11  and  O_13
REMARK    4  A    between atoms: O_13  and  C_14
REMARK                            x       y       z     vdW  Elec       q    Type
REMARK                         _______ _______ _______ _____ _____    ______ ____
ROOT
ATOM      6  N   UNL     1      -2.641   1.205  24.144  0.00  0.00    -0.264 NA
ATOM      7  C   UNL     1      -1.877   1.349  23.867  0.00  0.00    +0.105 C 
ATOM      8  C   UNL     1      -1.204   0.878  23.946  0.00  0.00    +0.160 C 
ATOM      9  O   UNL     1      -1.129   0.147  24.321  0.00  0.00    -0.348 OA
ATOM     10  C   UNL     1      -1.708  -0.293  24.710  0.00  0.00    +0.187 C 
ATOM     11  C   UNL     1      -2.505  -0.112  24.820  0.00  0.00    +0.211 C 
ATOM     12  C   UNL     1      -2.920   0.555  24.568  0.00  0.00    +0.119 C 
ENDROOT
BRANCH   6   5
ATOM      5  C   UNL     1      -3.199   1.789  23.974  0.00  0.00    +0.101 C 
BRANCH   5   4
ATOM      1  C   UNL     1      -2.798   3.969  25.850  0.00  0.00    +0.130 C 
ATOM      2  N   UNL     1      -3.158   3.395  25.380  0.00  0.00    -0.324 N 
ATOM      3  C   UNL     1      -2.771   2.866  24.879  0.00  0.00    +0.073 A 
ATOM      4  C   UNL     1      -3.342   2.393  24.518  0.00  0.00    +0.012 A 
ATOM     20  C   UNL     1      -4.082   2.629  24.796  0.00  0.00    +0.015 A 
ATOM     21  C   UNL     1      -3.968   3.248  25.329  0.00  0.00    +0.060 A 
ATOM     22  C   UNL     1      -4.617   3.598  25.699  0.00  0.00    +0.017 A 
ATOM     23  C   UNL     1      -5.379   3.330  25.536  0.00  0.00    +0.001 A 
ATOM     24  C   UNL     1      -5.493   2.710  25.003  0.00  0.00    +0.000 A 
ATOM     25  C   UNL     1      -4.845   2.360  24.633  0.00  0.00    +0.001 A 
ENDBRANCH   5   4
ENDBRANCH   6   5
BRANCH  11  13
ATOM     13  O   UNL     1      -2.946  -0.671  25.237  0.00  0.00    -0.475 OA
BRANCH  13  14
ATOM     14  C   UNL     1      -3.255  -1.329  24.845  0.00  0.00    +0.139 A 
ATOM     15  C   UNL     1      -2.861  -2.053  24.883  0.00  0.00    +0.037 A 
ATOM     16  C   UNL     1      -3.170  -2.710  24.491  0.00  0.00    +0.003 A 
ATOM     17  C   UNL     1      -3.872  -2.643  24.062  0.00  0.00    +0.000 A 
ATOM     18  C   UNL     1      -4.266  -1.918  24.025  0.00  0.00    +0.003 A 
ATOM     19  C   UNL     1      -3.956  -1.261  24.418  0.00  0.00    +0.037 A 
ENDBRANCH  13  14
ENDBRANCH  11  13
TORSDOF 4
ENDMDL
MODEL 3
REMARK VINA RESULT:     -12.4      1.847      4.790
REMARK  Name = 
REMARK  4 active torsions:
REMARK  status: ('A' for Active; 'I' for Inactive)
REMARK    1  A    between atoms: C_4  and  C_5
REMARK    2  A    between atoms: C_5  and  N_6
REMARK    3  A    between atoms: C_11  and  O_13
REMARK    4  A    between atoms: O_13  and  C_14
REMARK                            x       y       z     vdW  Elec       q    Type
REMARK                         _______ _______ _______ _____ _____    ______ ____
ROOT
ATOM      6  N   UNL     1      -1.647   0.611  24.983  0.00  0.00    -0.264 NA
ATOM      7  C   UNL     1      -0.875   0.477  24.721  0.00  0.00    +0.105 C 
ATOM      8  C   UNL     1      -0.480  -0.241  24.631  0.00  0.00    +0.160 C 
ATOM      9  O   UNL     1      -0.757  -1.003  24.781  0.00  0.00    -0.348 OA
ATOM     10  C   UNL     1      -1.499  -1.236  25.057  0.00  0.00    +0.187 C 
ATOM     11  C   UNL     1      -2.146  -0.763  25.253  0.00  0.00    +0.211 C 
ATOM     12  C   UNL     1      -2.212   0.059  25.220  0.00  0.00    +0.119 C 
ENDROOT
BRANCH   6   5
ATOM      5  C   UNL     1      -1.883   1.401  25.012  0.00  0.00    +0.101 C 
BRANCH   5   4
ATOM      1  C   UNL     1      -2.594   2.105  22.286  0.00  0.00    +0.130 C 
ATOM      2  N   UNL     1      -2.587   2.066  23.109  0.00  0.00    -0.324 N 
ATOM      3  C   UNL     1      -2.071   1.617  23.570  0.00  0.00    +0.073 A 
ATOM      4  C   UNL     1      -2.261   1.743  24.363  0.00  0.00    +0.012 A 
ATOM     20  C   UNL     1      -2.894   2.270  24.392  0.00  0.00    +0.015 A 
ATOM     21  C   UNL     1      -3.096   2.469  23.618  0.00  0.00    +0.060 A 
ATOM     22  C   UNL     1      -3.718   2.993  23.476  0.00  0.00    +0.017 A 
ATOM     23  C   UNL     1      -4.137   3.317  24.108  0.00  0.00    +0.001 A 
ATOM     24  C   UNL     1      -3.935   3.117  24.883  0.00  0.00    +0.000 A 
ATOM     25  C   UNL     1      -3.314   2.594  25.025  0.00  0.00    +0.001 A 
ENDBRANCH   5   4
ENDBRANCH   6   5
BRANCH  11  13
ATOM     13  O   UNL     1      -2.817  -1.165  25.516  0.00  0.00    -0.475 OA
BRANCH  13  14
ATOM     14  C   UNL     1      -3.277  -1.594  24.982  0.00  0.00    +0.139 A 
ATOM     15  C   UNL     1      -3.867  -1.214  24.549  0.00  0.00    +0.037 A 
ATOM     16  C   UNL     1      -4.327  -1.643  24.014  0.00  0.00    +0.003 A 
ATOM     17  C   UNL     1      -4.197  -2.452  23.915  0.00  0.00    +0.000 A 
ATOM     18  C   UNL     1      -3.606  -2.832  24.349  0.00  0.00    +0.003 A 
ATOM     19  C   UNL     1      -3.147  -2.402  24.883  0.00  0.00    +0.037 A 
ENDBRANCH  13  14
ENDBRANCH  11  13
TORSDOF 4
ENDMDL
MODEL 4
REMARK VINA RESULT:     -12.1      1.061      2.270
REMARK  Name = 
REMARK  4 active torsions:
REMARK  status: ('A' for Active; 'I' for Inactive)
REMARK    1  A    between atoms: C_4  and  C_5
REMARK    2  A    between atoms: C_5  and  N_6
REMARK    3  A    between atoms: C_11  and  O_13
REMARK    4  A    between atoms: O_13  and  C_14
REMARK                            x       y       z     vdW  Elec       q    Type
REMARK                         _______ _______ _______ _____ _____    ______ ____
ROOT
ATOM      6  N   UNL     1      -2.843   1.339  23.760  0.00  0.00    -0.264 NA
ATOM      7  C   UNL     1      -2.100   1.683  23.864  0.00  0.00    +0.105 C 
ATOM      8  C   UNL     1      -1.916   2.467  24.046  0.00  0.00    +0.160 C 
ATOM      9  O   UNL     1      -2.430   3.100  24.168  0.00  0.00    -0.348 OA
ATOM     10  C   UNL     1      -3.255   3.107  24.139  0.00  0.00    +0.187 C 
ATOM     11  C   UNL     1      -3.768   2.481  23.981  0.00  0.00    +0.211 C 
ATOM     12  C   UNL     1      -3.585   1.694  23.812  0.00  0.00    +0.119 C 
ENDROOT
BRANCH   6   5
ATOM      5  C   UNL     1      -2.842   0.534  23.581  0.00  0.00    +0.101 C 
BRANCH   5   4
ATOM      1  C   UNL     1      -1.983  -0.832  25.995  0.00  0.00    +0.130 C 
ATOM      2  N   UNL     1      -2.381  -0.651  25.296  0.00  0.00    -0.324 N 
ATOM      3  C   UNL     1      -2.263   0.020  24.831  0.00  0.00    +0.073 A 
ATOM      4  C   UNL     1      -2.776  -0.023  24.186  0.00  0.00    +0.012 A 
ATOM     20  C   UNL     1      -3.210  -0.721  24.253  0.00  0.00    +0.015 A 
ATOM     21  C   UNL     1      -2.966  -1.109  24.939  0.00  0.00    +0.060 A 
ATOM     22  C   UNL     1      -3.309  -1.830  25.149  0.00  0.00    +0.017 A 
ATOM     23  C   UNL     1      -3.895  -2.162  24.674  0.00  0.00    +0.001 A 
ATOM     24  C   UNL     1      -4.140  -1.774  23.988  0.00  0.00    +0.000 A 
ATOM     25  C   UNL     1      -3.797  -1.053  23.777  0.00  0.00    +0.001 A 
ENDBRANCH   5   4
ENDBRANCH   6   5
BRANCH  11  13
ATOM     13  O   UNL     1      -4.573   2.667  23.992  0.00  0.00    -0.475 OA
BRANCH  13  14
ATOM     14  C   UNL     1      -5.009   2.569  24.686  0.00  0.00    +0.139 A 
ATOM     15  C   UNL     1      -5.519   1.926  24.765  0.00  0.00    +0.037 A 
ATOM     16  C   UNL     1      -5.954   1.829  25.459  0.00  0.00    +0.003 A 
ATOM     17  C   UNL     1      -5.880   2.375  26.074  0.00  0.00    +0.000 A 
ATOM     18  C   UNL     1      -5.369   3.019  25.994  0.00  0.00    +0.003 A 
ATOM     19  C   UNL     1      -4.934   3.115  25.299  0.00  0.00    +0.037 A 
ENDBRANCH  13  14
ENDBRANCH  11  13
TORSDOF 4
ENDMDL
MODEL 5
REMARK VINA RESULT:     -11.9      1.667      2.788
REMARK  Name = 
REMARK  4 active torsions:
REMARK  status: ('A' for Active; 'I' for Inactive)
REMARK    1  A    between atoms: C_4  and  C_5
REMARK    2  A    between atoms: C_5  and  N_6
REMARK    3  A    between atoms: C_11  and  O_13
REMARK    4  A    between atoms: O_13  and  C_14
REMARK                            x       y       z     vdW  Elec       q    Type
REMARK                         _______ _______ _______ _____ _____    ______ ____
ROOT
ATOM      6  N   UNL     1      -1.000   0.502  25.062  0.00  0.00    -0.264 NA
ATOM      7  C   UNL     1      -0.587   0.301  24.377  0.00  0.00    +0.105 C 
ATOM      8  C   UNL     1      -0.029   0.746  23.962  0.00  0.00    +0.160 C 
ATOM      9  O   UNL     1       0.251   1.503  24.130  0.00  0.00    -0.348 OA
ATOM     10  C   UNL     1       0.045   2.002  24.753  0.00  0.00    +0.187 C 
ATOM     11  C   UNL     1      -0.493   1.867  25.363  0.00  0.00    +0.211 C 
ATOM     12  C   UNL     1      -0.958   1.200  25.501  0.00  0.00    +0.119 C 
ENDROOT
BRANCH   6   5
ATOM      5  C   UNL     1      -1.524  -0.068  25.345  0.00  0.00    +0.101 C 
BRANCH   5   4
ATOM      1  C   UNL     1      -4.014   0.484  23.955  0.00  0.00    +0.130 C 
ATOM      2  N   UNL     1      -3.406   0.089  24.347  0.00  0.00    -0.324 N 
ATOM      3  C   UNL     1      -2.711   0.430  24.635  0.00  0.00    +0.073 A 
ATOM      4  C   UNL     1      -2.261  -0.165  24.986  0.00  0.00    +0.012 A 
ATOM     20  C   UNL     1      -2.677  -0.874  24.915  0.00  0.00    +0.015 A 
ATOM     21  C   UNL     1      -3.384  -0.717  24.520  0.00  0.00    +0.060 A 
ATOM     22  C   UNL     1      -3.917  -1.329  24.370  0.00  0.00    +0.017 A 
ATOM     23  C   UNL     1      -3.743  -2.097  24.614  0.00  0.00    +0.001 A 
ATOM     24  C   UNL     1      -3.035  -2.254  25.009  0.00  0.00    +0.000 A 
ATOM     25  C   UNL     1      -2.502  -1.643  25.160  0.00  0.00    +0.001 A 
ENDBRANCH   5   4
ENDBRANCH   6   5
BRANCH  11  13
ATOM     13  O   UNL     1      -0.578   2.481  25.909  0.00  0.00    -0.475 OA
BRANCH  13  14
ATOM     14  C   UNL     1      -0.969   3.174  25.692  0.00  0.00    +0.139 A 
ATOM     15  C   UNL     1      -1.760   3.283  25.900  0.00  0.00    +0.037 A 
ATOM     16  C   UNL     1      -2.151   3.976  25.684  0.00  0.00    +0.003 A 
ATOM     17  C   UNL     1      -1.752   4.560  25.259  0.00  0.00    +0.000 A 
ATOM     18  C   UNL     1      -0.960   4.451  25.051  0.00  0.00    +0.003 A 
ATOM     19  C   UNL     1      -0.570   3.757  25.268  0.00  0.00    +0.037 A 
ENDBRANCH  13  14
ENDBRANCH  11  13
TORSDOF 4
ENDMDL
MODEL 6
REMARK VINA RESULT:     -11.6      1.504      2.935
REMARK  Name = 
REMARK  4 active torsions:
REMARK  status: ('A' for Active; 'I' for Inactive)
REMARK    1  A    between atoms: C_4  and  C_5
REMARK    2  A    between atoms: C_5  and  N_6
REMARK    3  A    between atoms: C_11  and  O_13
REMARK    4  A    between atoms: O_13  and  C_14
REMARK                            x       y       z     vdW  Elec       q    Type
REMARK                         _______ _______ _______ _____ _____    ______ ____
ROOT
ATOM      6  N   UNL     1      -1.960   1.606  24.118  0.00  0.00    -0.264 NA
ATOM      7  C   UNL     1      -1.436   1.090  23.741  0.00  0.00    +0.105 C 
ATOM      8  C   UNL     1      -0.624   1.003  23.860  0.00  0.00    +0.160 C 
ATOM      9  O   UNL     1      -0.135   1.409  24.385  0.00  0.00    -0.348 OA
ATOM     10  C   UNL     1      -0.336   2.004  24.921  0.00  0.00    +0.187 C 
ATOM     11  C   UNL     1      -1.077   2.338  25.064  0.00  0.00    +0.211 C 
ATOM     12  C   UNL     1      -1.799   2.161  24.706  0.00  0.00    +0.119 C 
ENDROOT
BRANCH   6   5
ATOM      5  C   UNL     1      -2.746   1.559  23.873  0.00  0.00    +0.101 C 
BRANCH   5   4
ATOM      1  C   UNL     1      -3.963  -0.600  25.386  0.00  0.00    +0.130 C 
ATOM      2  N   UNL     1      -3.847   0.121  25.004  0.00  0.00    -0.324 N 
ATOM      3  C   UNL     1      -3.163   0.355  24.606  0.00  0.00    +0.073 A 
ATOM      4  C   UNL     1      -3.287   1.114  24.309  0.00  0.00    +0.012 A 
ATOM     20  C   UNL     1      -4.048   1.350  24.523  0.00  0.00    +0.015 A 
ATOM     21  C   UNL     1      -4.393   0.736  24.953  0.00  0.00    +0.060 A 
ATOM     22  C   UNL     1      -5.162   0.818  25.242  0.00  0.00    +0.017 A 
ATOM     23  C   UNL     1      -5.584   1.512  25.102  0.00  0.00    +0.001 A 
ATOM     24  C   UNL     1      -5.239   2.126  24.672  0.00  0.00    +0.000 A 
ATOM     25  C   UNL     1      -4.470   2.045  24.383  0.00  0.00    +0.001 A 
ENDBRANCH   5   4
ENDBRANCH   6   5
BRANCH  11  13
ATOM     13  O   UNL     1      -1.098   2.928  25.641  0.00  0.00    -0.475 OA
BRANCH  13  14
ATOM     14  C   UNL     1      -1.167   3.720  25.419  0.00  0.00    +0.139 A 
ATOM     15  C   UNL     1      -1.857   4.137  25.595  0.00  0.00    +0.037 A 
ATOM     16  C   UNL     1      -1.926   4.929  25.373  0.00  0.00    +0.003 A 
ATOM     17  C   UNL     1      -1.306   5.303  24.976  0.00  0.00    +0.000 A 
ATOM     18  C   UNL     1      -0.617   4.884  24.801  0.00  0.00    +0.003 A 
ATOM     19  C   UNL     1      -0.548   4.092  25.023  0.00  0.00    +0.037 A 
ENDBRANCH  13  14
ENDBRANCH  11  13
TORSDOF 4
ENDMDL
