REMARK  Name = 
REMARK  4 active torsions:
REMARK  status: ('A' for Active; 'I' for Inactive)
REMARK    1  A    between atoms: C_2  and  O_5
REMARK    2  A    between atoms: O_5  and  C_6
REMARK    3  A    between atoms: C_8  and  C_9
REMARK    4  A    between atoms: C_9  and  N_10
REMARK                            x       y       z     vdW  Elec       q    Type
REMARK                         _______ _______ _______ _____ _____    ______ ____
ROOT
ATOM      6  C   UNL     1       4.781   4.410   0.000  0.00  0.00    +0.147 A 
ATOM      7  C   UNL     1       4.781   3.585   0.000  0.00  0.00    +0.034 A 
ATOM      8  C   UNL     1       4.067   3.173   0.000  0.00  0.00    -0.003 A 
ATOM     20  C   UNL     1       3.352   3.585   0.000  0.00  0.00    -0.003 A 
ATOM     21  C   UNL     1       3.352   4.410   0.000  0.00  0.00    +0.003 A 
ATOM     22  C   UNL     1       4.067   4.823   0.000  0.00  0.00    +0.037 A 
ENDROOT
BRANCH   6   5
ATOM      5  O   UNL     1       5.496   4.823   0.000  0.00  0.00    -0.404 OA
BRANCH   5   2
ATOM      1  F   UNL     1       5.496   6.473   0.000  0.00  0.00    -0.133 F 
ATOM      2  C   UNL     1       5.496   5.648   0.000  0.00  0.00    +0.575 C 
ATOM      3  F   UNL     1       4.671   5.648   0.000  0.00  0.00    -0.133 F 
ATOM      4  F   UNL     1       6.321   5.648   0.000  0.00  0.00    -0.133 F 
ENDBRANCH   5   2
ENDBRANCH   6   5
BRANCH   8   9
ATOM      9  C   UNL     1       4.067   2.348   0.000  0.00  0.00    +0.099 C 
BRANCH   9  10
ATOM     10  N   UNL     1       3.352   1.935   0.000  0.00  0.00    -0.266 NA
ATOM     11  C   UNL     1       3.352   1.110   0.000  0.00  0.00    +0.094 C 
ATOM     12  C   UNL     1       2.638   0.698   0.000  0.00  0.00    +0.112 C 
ATOM     13  N   UNL     1       1.923   1.110   0.000  0.00  0.00    -0.260 N 
ATOM     14  C   UNL     1       1.923   1.935   0.000  0.00  0.00    +0.115 C 
ATOM     15  C   UNL     1       1.139   2.190   0.000  0.00  0.00    +0.138 C 
ATOM     16  N   UNL     1       0.654   1.523   0.000  0.00  0.00    -0.187 NA
ATOM     17  C   UNL     1       1.139   0.856   0.000  0.00  0.00    +0.323 C 
ATOM     18  O   UNL     1       0.884   0.071   0.000  0.00  0.00    -0.251 OA
ATOM     19  C   UNL     1       2.638   2.348   0.000  0.00  0.00    +0.094 C 
ENDBRANCH   9  10
ENDBRANCH   8   9
TORSDOF 4
