MODEL 1
REMARK VINA RESULT:     -11.8      0.000      0.000
REMARK  Name = 
REMARK  5 active torsions:
REMARK  status: ('A' for Active; 'I' for Inactive)
REMARK    1  A    between atoms: C_2  and  N_4
REMARK    2  A    between atoms: N_7  and  C_8
REMARK    3  A    between atoms: C_13  and  C_14
REMARK    4  A    between atoms: C_14  and  C_15
REMARK    5  A    between atoms: C_15  and  C_16
REMARK                            x       y       z     vdW  Elec       q    Type
REMARK                         _______ _______ _______ _____ _____    ______ ____
ROOT
ATOM      8  C   UNL     1      -0.865  -0.834  24.742  0.00  0.00    +0.115 C 
ATOM      9  C   UNL     1      -0.338  -0.795  24.108  0.00  0.00    +0.049 C 
ATOM     10  C   UNL     1      -0.074  -0.015  24.044  0.00  0.00    +0.138 C 
ATOM     11  N   UNL     1      -0.438   0.427  24.639  0.00  0.00    -0.265 NA
ATOM     12  C   UNL     1      -0.926  -0.080  25.070  0.00  0.00    +0.094 C 
ATOM     13  C   UNL     1      -0.277   1.232  24.710  0.00  0.00    +0.080 C 
ATOM     27  C   UNL     1       0.247   1.597  24.188  0.00  0.00    +0.131 C 
ATOM     28  N   UNL     1       0.611   1.155  23.594  0.00  0.00    -0.203 NA
ATOM     29  C   UNL     1       0.451   0.349  23.522  0.00  0.00    +0.256 C 
ATOM     30  O   UNL     1       0.815  -0.093  22.928  0.00  0.00    -0.272 OA
ENDROOT
BRANCH   8   7
ATOM      4  N   UNL     1      -2.442  -2.310  25.048  0.00  0.00    -0.189 NA
ATOM      5  C   UNL     1      -2.047  -1.635  24.788  0.00  0.00    +0.339 C 
ATOM      6  O   UNL     1      -2.438  -1.085  24.313  0.00  0.00    -0.249 OA
ATOM      7  N   UNL     1      -1.260  -1.509  25.002  0.00  0.00    -0.187 NA
BRANCH   4   2
ATOM      1  C   UNL     1      -3.410  -2.929  24.197  0.00  0.00    +0.023 C 
ATOM      2  C   UNL     1      -3.229  -2.437  24.834  0.00  0.00    +0.097 C 
ATOM      3  C   UNL     1      -3.835  -2.070  25.257  0.00  0.00    +0.023 C 
ENDBRANCH   4   2
ENDBRANCH   8   7
BRANCH  13  14
ATOM     14  C   UNL     1      -0.641   1.674  25.304  0.00  0.00    +0.027 C 
BRANCH  14  15
ATOM     15  C   UNL     1      -1.191   2.257  25.108  0.00  0.00    +0.087 C 
BRANCH  15  16
ATOM     16  C   UNL     1      -1.383   2.844  25.654  0.00  0.00    +0.229 C 
ATOM     17  O   UNL     1      -0.874   3.007  26.282  0.00  0.00    -0.275 OA
ATOM     18  N   UNL     1      -2.086   3.269  25.573  0.00  0.00    -0.259 N 
ATOM     19  C   UNL     1      -2.351   3.868  26.074  0.00  0.00    +0.103 C 
ATOM     20  C   UNL     1      -3.076   4.139  25.787  0.00  0.00    +0.049 C 
ATOM     21  C   UNL     1      -3.259   3.706  25.110  0.00  0.00    -0.007 A 
ATOM     22  C   UNL     1      -3.904   3.731  24.595  0.00  0.00    -0.003 A 
ATOM     23  C   UNL     1      -3.937   3.220  23.949  0.00  0.00    -0.000 A 
ATOM     24  C   UNL     1      -3.325   2.682  23.817  0.00  0.00    +0.001 A 
ATOM     25  C   UNL     1      -2.680   2.656  24.330  0.00  0.00    +0.015 A 
ATOM     26  C   UNL     1      -2.647   3.168  24.977  0.00  0.00    +0.050 A 
ENDBRANCH  15  16
ENDBRANCH  14  15
ENDBRANCH  13  14
TORSDOF 5
ENDMDL
MODEL 2
REMARK VINA RESULT:     -11.7      2.080      5.657
REMARK  Name = 
REMARK  5 active torsions:
REMARK  status: ('A' for Active; 'I' for Inactive)
REMARK    1  A    between atoms: C_2  and  N_4
REMARK    2  A    between atoms: N_7  and  C_8
REMARK    3  A    between atoms: C_13  and  C_14
REMARK    4  A    between atoms: C_14  and  C_15
REMARK    5  A    between atoms: C_15  and  C_16
REMARK                            x       y       z     vdW  Elec       q    Type
REMARK                         _______ _______ _______ _____ _____    ______ ____
ROOT
ATOM      8  C   UNL     1      -3.827   3.042  24.610  0.00  0.00    +0.115 C 
ATOM      9  C   UNL     1      -4.427   3.205  25.152  0.00  0.00    +0.049 C 
ATOM     10  C   UNL     1      -4.836   2.502  25.297  0.00  0.00    +0.138 C 
ATOM     11  N   UNL     1      -4.488   1.907  24.844  0.00  0.00    -0.265 NA
ATOM     12  C   UNL     1      -3.864   2.241  24.420  0.00  0.00    +0.094 C 
ATOM     13  C   UNL     1      -4.784   1.138  24.877  0.00  0.00    +0.080 C 
ATOM     27  C   UNL     1      -5.428   0.963  25.363  0.00  0.00    +0.131 C 
ATOM     28  N   UNL     1      -5.776   1.559  25.815  0.00  0.00    -0.203 NA
ATOM     29  C   UNL     1      -5.480   2.329  25.782  0.00  0.00    +0.256 C 
ATOM     30  O   UNL     1      -5.828   2.924  26.235  0.00  0.00    -0.272 OA
ENDROOT
BRANCH   8   7
ATOM      4  N   UNL     1      -2.062   4.315  24.442  0.00  0.00    -0.189 NA
ATOM      5  C   UNL     1      -2.604   3.771  24.741  0.00  0.00    +0.339 C 
ATOM      6  O   UNL     1      -2.467   3.410  25.470  0.00  0.00    -0.249 OA
ATOM      7  N   UNL     1      -3.284   3.587  24.310  0.00  0.00    -0.187 NA
BRANCH   4   2
ATOM      1  C   UNL     1      -0.767   3.953  24.925  0.00  0.00    +0.023 C 
ATOM      2  C   UNL     1      -1.382   4.500  24.871  0.00  0.00    +0.097 C 
ATOM      3  C   UNL     1      -1.318   5.232  25.247  0.00  0.00    +0.023 C 
ENDBRANCH   4   2
ENDBRANCH   8   7
BRANCH  13  14
ATOM     14  C   UNL     1      -4.436   0.542  24.425  0.00  0.00    +0.027 C 
BRANCH  14  15
ATOM     15  C   UNL     1      -4.026  -0.071  24.794  0.00  0.00    +0.087 C 
BRANCH  15  16
ATOM     16  C   UNL     1      -4.029  -0.827  24.465  0.00  0.00    +0.229 C 
ATOM     17  O   UNL     1      -4.689  -1.093  24.048  0.00  0.00    -0.275 OA
ATOM     18  N   UNL     1      -3.372  -1.318  24.553  0.00  0.00    -0.259 N 
ATOM     19  C   UNL     1      -3.296  -2.084  24.256  0.00  0.00    +0.103 C 
ATOM     20  C   UNL     1      -2.552  -2.369  24.473  0.00  0.00    +0.049 C 
ATOM     21  C   UNL     1      -2.169  -1.779  24.904  0.00  0.00    -0.007 A 
ATOM     22  C   UNL     1      -1.425  -1.749  25.258  0.00  0.00    -0.003 A 
ATOM     23  C   UNL     1      -1.187  -1.071  25.661  0.00  0.00    -0.000 A 
ATOM     24  C   UNL     1      -1.693  -0.421  25.711  0.00  0.00    +0.001 A 
ATOM     25  C   UNL     1      -2.438  -0.450  25.357  0.00  0.00    +0.015 A 
ATOM     26  C   UNL     1      -2.676  -1.130  24.953  0.00  0.00    +0.050 A 
ENDBRANCH  15  16
ENDBRANCH  14  15
ENDBRANCH  13  14
TORSDOF 5
ENDMDL
MODEL 3
REMARK VINA RESULT:     -11.4      1.118      4.443
REMARK  Name = 
REMARK  5 active torsions:
REMARK  status: ('A' for Active; 'I' for Inactive)
REMARK    1  A    between atoms: C_2  and  N_4
REMARK    2  A    between atoms: N_7  and  C_8
REMARK    3  A    between atoms: C_13  and  C_14
REMARK    4  A    between atoms: C_14  and  C_15
REMARK    5  A    between atoms: C_15  and  C_16
REMARK                            x       y       z     vdW  Elec       q    Type
REMARK                         _______ _______ _______ _____ _____    ______ ____
ROOT
ATOM      8  C   UNL     1      -0.496   1.830  25.337  0.00  0.00    +0.115 C 
ATOM      9  C   UNL     1       0.044   1.890  24.716  0.00  0.00    +0.049 C 
ATOM     10  C   UNL     1       0.133   1.140  24.383  0.00  0.00    +0.138 C 
ATOM     11  N   UNL     1      -0.351   0.617  24.797  0.00  0.00    -0.265 NA
ATOM     12  C   UNL     1      -0.740   1.044  25.387  0.00  0.00    +0.094 C 
ATOM     13  C   UNL     1      -0.375  -0.179  24.584  0.00  0.00    +0.080 C 
ATOM     27  C   UNL     1       0.085  -0.453  23.957  0.00  0.00    +0.131 C 
ATOM     28  N   UNL     1       0.569   0.070  23.542  0.00  0.00    -0.203 NA
ATOM     29  C   UNL     1       0.594   0.867  23.755  0.00  0.00    +0.256 C 
ATOM     30  O   UNL     1       1.078   1.391  23.340  0.00  0.00    -0.272 OA
ENDROOT
BRANCH   8   7
ATOM      4  N   UNL     1      -1.581   3.587  26.043  0.00  0.00    -0.189 NA
ATOM      5  C   UNL     1      -1.329   2.970  25.557  0.00  0.00    +0.339 C 
ATOM      6  O   UNL     1      -1.659   2.874  24.807  0.00  0.00    -0.249 OA
ATOM      7  N   UNL     1      -0.748   2.448  25.823  0.00  0.00    -0.187 NA
BRANCH   4   2
ATOM      1  C   UNL     1      -2.959   3.943  25.912  0.00  0.00    +0.023 C 
ATOM      2  C   UNL     1      -2.162   4.110  25.778  0.00  0.00    +0.097 C 
ATOM      3  C   UNL     1      -1.946   4.800  25.380  0.00  0.00    +0.023 C 
ENDBRANCH   4   2
ENDBRANCH   8   7
BRANCH  13  14
ATOM     14  C   UNL     1      -0.860  -0.702  24.999  0.00  0.00    +0.027 C 
BRANCH  14  15
ATOM     15  C   UNL     1      -1.509  -1.048  24.625  0.00  0.00    +0.087 C 
BRANCH  15  16
ATOM     16  C   UNL     1      -1.728  -1.821  24.811  0.00  0.00    +0.229 C 
ATOM     17  O   UNL     1      -1.172  -2.344  25.124  0.00  0.00    -0.275 OA
ATOM     18  N   UNL     1      -2.504  -2.072  24.684  0.00  0.00    -0.259 N 
ATOM     19  C   UNL     1      -2.802  -2.825  24.842  0.00  0.00    +0.103 C 
ATOM     20  C   UNL     1      -3.600  -2.832  24.631  0.00  0.00    +0.049 C 
ATOM     21  C   UNL     1      -3.795  -2.085  24.344  0.00  0.00    -0.007 A 
ATOM     22  C   UNL     1      -4.501  -1.769  24.056  0.00  0.00    -0.003 A 
ATOM     23  C   UNL     1      -4.530  -0.986  23.801  0.00  0.00    -0.000 A 
ATOM     24  C   UNL     1      -3.853  -0.516  23.833  0.00  0.00    +0.001 A 
ATOM     25  C   UNL     1      -3.146  -0.830  24.121  0.00  0.00    +0.015 A 
ATOM     26  C   UNL     1      -3.117  -1.615  24.376  0.00  0.00    +0.050 A 
ENDBRANCH  15  16
ENDBRANCH  14  15
ENDBRANCH  13  14
TORSDOF 5
ENDMDL
MODEL 4
REMARK VINA RESULT:     -11.4      2.077      3.798
REMARK  Name = 
REMARK  5 active torsions:
REMARK  status: ('A' for Active; 'I' for Inactive)
REMARK    1  A    between atoms: C_2  and  N_4
REMARK    2  A    between atoms: N_7  and  C_8
REMARK    3  A    between atoms: C_13  and  C_14
REMARK    4  A    between atoms: C_14  and  C_15
REMARK    5  A    between atoms: C_15  and  C_16
REMARK                            x       y       z     vdW  Elec       q    Type
REMARK                         _______ _______ _______ _____ _____    ______ ____
ROOT
ATOM      8  C   UNL     1      -4.566   0.597  24.550  0.00  0.00    +0.115 C 
ATOM      9  C   UNL     1      -5.190   0.728  25.074  0.00  0.00    +0.049 C 
ATOM     10  C   UNL     1      -5.175   1.523  25.295  0.00  0.00    +0.138 C 
ATOM     11  N   UNL     1      -4.543   1.883  24.906  0.00  0.00    -0.265 NA
ATOM     12  C   UNL     1      -4.167   1.311  24.446  0.00  0.00    +0.094 C 
ATOM     13  C   UNL     1      -4.391   2.686  25.021  0.00  0.00    +0.080 C 
ATOM     27  C   UNL     1      -4.871   3.129  25.525  0.00  0.00    +0.131 C 
ATOM     28  N   UNL     1      -5.503   2.768  25.914  0.00  0.00    -0.203 NA
ATOM     29  C   UNL     1      -5.655   1.965  25.799  0.00  0.00    +0.256 C 
ATOM     30  O   UNL     1      -6.288   1.605  26.187  0.00  0.00    -0.272 OA
ENDROOT
BRANCH   8   7
ATOM      4  N   UNL     1      -3.690  -1.374  24.221  0.00  0.00    -0.189 NA
ATOM      5  C   UNL     1      -3.880  -0.656  24.578  0.00  0.00    +0.339 C 
ATOM      6  O   UNL     1      -3.572  -0.471  25.321  0.00  0.00    -0.249 OA
ATOM      7  N   UNL     1      -4.377  -0.122  24.192  0.00  0.00    -0.187 NA
BRANCH   4   2
ATOM      1  C   UNL     1      -2.375  -1.810  24.572  0.00  0.00    +0.023 C 
ATOM      2  C   UNL     1      -3.193  -1.909  24.606  0.00  0.00    +0.097 C 
ATOM      3  C   UNL     1      -3.515  -2.542  25.025  0.00  0.00    +0.023 C 
ENDBRANCH   4   2
ENDBRANCH   8   7
BRANCH  13  14
ATOM     14  C   UNL     1      -3.759   3.046  24.633  0.00  0.00    +0.027 C 
BRANCH  14  15
ATOM     15  C   UNL     1      -3.088   3.272  25.056  0.00  0.00    +0.087 C 
BRANCH  15  16
ATOM     16  C   UNL     1      -2.674   3.953  24.842  0.00  0.00    +0.229 C 
ATOM     17  O   UNL     1      -3.071   4.582  24.485  0.00  0.00    -0.275 OA
ATOM     18  N   UNL     1      -1.863   4.004  24.985  0.00  0.00    -0.259 N 
ATOM     19  C   UNL     1      -1.379   4.646  24.802  0.00  0.00    +0.103 C 
ATOM     20  C   UNL     1      -0.610   4.462  25.040  0.00  0.00    +0.049 C 
ATOM     21  C   UNL     1      -0.620   3.707  25.370  0.00  0.00    -0.007 A 
ATOM     22  C   UNL     1      -0.025   3.239  25.697  0.00  0.00    -0.003 A 
ATOM     23  C   UNL     1      -0.203   2.489  25.990  0.00  0.00    -0.000 A 
ATOM     24  C   UNL     1      -0.977   2.206  25.956  0.00  0.00    +0.001 A 
ATOM     25  C   UNL     1      -1.573   2.673  25.629  0.00  0.00    +0.015 A 
ATOM     26  C   UNL     1      -1.395   3.424  25.336  0.00  0.00    +0.050 A 
ENDBRANCH  15  16
ENDBRANCH  14  15
ENDBRANCH  13  14
TORSDOF 5
ENDMDL
MODEL 5
REMARK VINA RESULT:     -11.1      1.333      4.503
REMARK  Name = 
REMARK  5 active torsions:
REMARK  status: ('A' for Active; 'I' for Inactive)
REMARK    1  A    between atoms: C_2  and  N_4
REMARK    2  A    between atoms: N_7  and  C_8
REMARK    3  A    between atoms: C_13  and  C_14
REMARK    4  A    between atoms: C_14  and  C_15
REMARK    5  A    between atoms: C_15  and  C_16
REMARK                            x       y       z     vdW  Elec       q    Type
REMARK                         _______ _______ _______ _____ _____    ______ ____
ROOT
ATOM      8  C   UNL     1      -2.486   2.725  24.716  0.00  0.00    +0.115 C 
ATOM      9  C   UNL     1      -1.947   3.094  25.219  0.00  0.00    +0.049 C 
ATOM     10  C   UNL     1      -1.294   2.596  25.304  0.00  0.00    +0.138 C 
ATOM     11  N   UNL     1      -1.430   1.919  24.852  0.00  0.00    -0.265 NA
ATOM     12  C   UNL     1      -2.167   1.999  24.489  0.00  0.00    +0.094 C 
ATOM     13  C   UNL     1      -0.866   1.318  24.831  0.00  0.00    +0.080 C 
ATOM     27  C   UNL     1      -0.165   1.393  25.260  0.00  0.00    +0.131 C 
ATOM     28  N   UNL     1      -0.029   2.070  25.711  0.00  0.00    -0.203 NA
ATOM     29  C   UNL     1      -0.593   2.672  25.733  0.00  0.00    +0.256 C 
ATOM     30  O   UNL     1      -0.457   3.349  26.185  0.00  0.00    -0.272 OA
ENDROOT
BRANCH   8   7
ATOM      4  N   UNL     1      -4.631   3.122  24.654  0.00  0.00    -0.189 NA
ATOM      5  C   UNL     1      -3.901   2.818  24.889  0.00  0.00    +0.339 C 
ATOM      6  O   UNL     1      -3.856   2.304  25.533  0.00  0.00    -0.249 OA
ATOM      7  N   UNL     1      -3.216   3.028  24.481  0.00  0.00    -0.187 NA
BRANCH   4   2
ATOM      1  C   UNL     1      -5.704   2.206  24.882  0.00  0.00    +0.023 C 
ATOM      2  C   UNL     1      -5.316   2.912  25.062  0.00  0.00    +0.097 C 
ATOM      3  C   UNL     1      -5.614   3.408  25.651  0.00  0.00    +0.023 C 
ENDBRANCH   4   2
ENDBRANCH   8   7
BRANCH  13  14
ATOM     14  C   UNL     1      -1.002   0.641  24.379  0.00  0.00    +0.027 C 
BRANCH  14  15
ATOM     15  C   UNL     1      -1.193  -0.071  24.750  0.00  0.00    +0.087 C 
BRANCH  15  16
ATOM     16  C   UNL     1      -0.976  -0.787  24.404  0.00  0.00    +0.229 C 
ATOM     17  O   UNL     1      -0.277  -0.841  23.970  0.00  0.00    -0.275 OA
ATOM     18  N   UNL     1      -1.458  -1.452  24.493  0.00  0.00    -0.259 N 
ATOM     19  C   UNL     1      -1.313  -2.201  24.181  0.00  0.00    +0.103 C 
ATOM     20  C   UNL     1      -1.935  -2.695  24.405  0.00  0.00    +0.049 C 
ATOM     21  C   UNL     1      -2.464  -2.251  24.855  0.00  0.00    -0.007 A 
ATOM     22  C   UNL     1      -3.176  -2.446  25.223  0.00  0.00    -0.003 A 
ATOM     23  C   UNL     1      -3.593  -1.874  25.645  0.00  0.00    -0.000 A 
ATOM     24  C   UNL     1      -3.299  -1.105  25.699  0.00  0.00    +0.001 A 
ATOM     25  C   UNL     1      -2.587  -0.909  25.332  0.00  0.00    +0.015 A 
ATOM     26  C   UNL     1      -2.169  -1.482  24.910  0.00  0.00    +0.050 A 
ENDBRANCH  15  16
ENDBRANCH  14  15
ENDBRANCH  13  14
TORSDOF 5
ENDMDL
MODEL 6
REMARK VINA RESULT:     -10.0      1.790      3.474
REMARK  Name = 
REMARK  5 active torsions:
REMARK  status: ('A' for Active; 'I' for Inactive)
REMARK    1  A    between atoms: C_2  and  N_4
REMARK    2  A    between atoms: N_7  and  C_8
REMARK    3  A    between atoms: C_13  and  C_14
REMARK    4  A    between atoms: C_14  and  C_15
REMARK    5  A    between atoms: C_15  and  C_16
REMARK                            x       y       z     vdW  Elec       q    Type
REMARK                         _______ _______ _______ _____ _____    ______ ____
ROOT
ATOM      8  C   UNL     1      -1.395  -1.282  24.674  0.00  0.00    +0.115 C 
ATOM      9  C   UNL     1      -1.717  -1.986  24.389  0.00  0.00    +0.049 C 
ATOM     10  C   UNL     1      -2.536  -1.950  24.487  0.00  0.00    +0.138 C 
ATOM     11  N   UNL     1      -2.719  -1.223  24.833  0.00  0.00    -0.265 NA
ATOM     12  C   UNL     1      -2.013  -0.811  24.948  0.00  0.00    +0.094 C 
ATOM     13  C   UNL     1      -3.504  -1.031  24.998  0.00  0.00    +0.080 C 
ATOM     27  C   UNL     1      -4.106  -1.565  24.817  0.00  0.00    +0.131 C 
ATOM     28  N   UNL     1      -3.923  -2.292  24.471  0.00  0.00    -0.203 NA
ATOM     29  C   UNL     1      -3.138  -2.484  24.306  0.00  0.00    +0.256 C 
ATOM     30  O   UNL     1      -2.955  -3.210  23.960  0.00  0.00    -0.272 OA
ENDROOT
BRANCH   8   7
ATOM      4  N   UNL     1       0.514  -0.384  24.116  0.00  0.00    -0.189 NA
ATOM      5  C   UNL     1      -0.287  -0.581  24.107  0.00  0.00    +0.339 C 
ATOM      6  O   UNL     1      -0.781  -0.274  23.521  0.00  0.00    -0.249 OA
ATOM      7  N   UNL     1      -0.594  -1.085  24.683  0.00  0.00    -0.187 NA
BRANCH   4   2
ATOM      1  C   UNL     1       1.149  -0.192  22.850  0.00  0.00    +0.023 C 
ATOM      2  C   UNL     1       0.822   0.120  23.540  0.00  0.00    +0.097 C 
ATOM      3  C   UNL     1       0.802   0.938  23.654  0.00  0.00    +0.023 C 
ENDBRANCH   4   2
ENDBRANCH   8   7
BRANCH  13  14
ATOM     14  C   UNL     1      -3.686  -0.305  25.344  0.00  0.00    +0.027 C 
BRANCH  14  15
ATOM     15  C   UNL     1      -4.061   0.281  24.900  0.00  0.00    +0.087 C 
BRANCH  15  16
ATOM     16  C   UNL     1      -4.594   0.796  25.263  0.00  0.00    +0.229 C 
ATOM     17  O   UNL     1      -5.070   0.529  25.882  0.00  0.00    -0.275 OA
ATOM     18  N   UNL     1      -4.651   1.578  25.007  0.00  0.00    -0.259 N 
ATOM     19  C   UNL     1      -5.156   2.153  25.315  0.00  0.00    +0.103 C 
ATOM     20  C   UNL     1      -5.030   2.853  24.896  0.00  0.00    +0.049 C 
ATOM     21  C   UNL     1      -4.448   2.710  24.330  0.00  0.00    -0.007 A 
ATOM     22  C   UNL     1      -4.101   3.195  23.760  0.00  0.00    -0.003 A 
ATOM     23  C   UNL     1      -3.520   2.893  23.259  0.00  0.00    -0.000 A 
ATOM     24  C   UNL     1      -3.286   2.105  23.327  0.00  0.00    +0.001 A 
ATOM     25  C   UNL     1      -3.633   1.619  23.897  0.00  0.00    +0.015 A 
ATOM     26  C   UNL     1      -4.214   1.922  24.398  0.00  0.00    +0.050 A 
ENDBRANCH  15  16
ENDBRANCH  14  15
ENDBRANCH  13  14
TORSDOF 5
ENDMDL
MODEL 7
REMARK VINA RESULT:     -10.0      1.553      3.360
REMARK  Name = 
REMARK  5 active torsions:
REMARK  status: ('A' for Active; 'I' for Inactive)
REMARK    1  A    between atoms: C_2  and  N_4
REMARK    2  A    between atoms: N_7  and  C_8
REMARK    3  A    between atoms: C_13  and  C_14
REMARK    4  A    between atoms: C_14  and  C_15
REMARK    5  A    between atoms: C_15  and  C_16
REMARK                            x       y       z     vdW  Elec       q    Type
REMARK                         _______ _______ _______ _____ _____    ______ ____
ROOT
ATOM      8  C   UNL     1       0.249  -0.096  23.517  0.00  0.00    +0.115 C 
ATOM      9  C   UNL     1       0.099  -0.748  24.001  0.00  0.00    +0.049 C 
ATOM     10  C   UNL     1      -0.485  -0.534  24.543  0.00  0.00    +0.138 C 
ATOM     11  N   UNL     1      -0.696   0.250  24.395  0.00  0.00    -0.265 NA
ATOM     12  C   UNL     1      -0.242   0.520  23.761  0.00  0.00    +0.094 C 
ATOM     13  C   UNL     1      -1.274   0.615  24.856  0.00  0.00    +0.080 C 
ATOM     27  C   UNL     1      -1.641   0.198  25.466  0.00  0.00    +0.131 C 
ATOM     28  N   UNL     1      -1.430  -0.585  25.614  0.00  0.00    -0.203 NA
ATOM     29  C   UNL     1      -0.852  -0.952  25.153  0.00  0.00    +0.256 C 
ATOM     30  O   UNL     1      -0.641  -1.735  25.301  0.00  0.00    -0.272 OA
ENDROOT
BRANCH   8   7
ATOM      4  N   UNL     1       2.129   0.146  22.436  0.00  0.00    -0.189 NA
ATOM      5  C   UNL     1       1.583   0.117  23.054  0.00  0.00    +0.339 C 
ATOM      6  O   UNL     1       1.828   0.270  23.828  0.00  0.00    -0.249 OA
ATOM      7  N   UNL     1       0.794  -0.066  22.899  0.00  0.00    -0.187 NA
BRANCH   4   2
ATOM      1  C   UNL     1       3.153   1.116  22.663  0.00  0.00    +0.023 C 
ATOM      2  C   UNL     1       2.918   0.329  22.590  0.00  0.00    +0.097 C 
ATOM      3  C   UNL     1       3.473  -0.277  22.672  0.00  0.00    +0.023 C 
ENDBRANCH   4   2
ENDBRANCH   8   7
BRANCH  13  14
ATOM     14  C   UNL     1      -1.484   1.399  24.708  0.00  0.00    +0.027 C 
BRANCH  14  15
ATOM     15  C   UNL     1      -2.249   1.660  24.874  0.00  0.00    +0.087 C 
BRANCH  15  16
ATOM     16  C   UNL     1      -2.406   2.467  24.937  0.00  0.00    +0.229 C 
ATOM     17  O   UNL     1      -1.783   3.005  24.993  0.00  0.00    -0.275 OA
ATOM     18  N   UNL     1      -3.186   2.737  24.944  0.00  0.00    -0.259 N 
ATOM     19  C   UNL     1      -3.426   3.523  25.004  0.00  0.00    +0.103 C 
ATOM     20  C   UNL     1      -4.251   3.540  24.989  0.00  0.00    +0.049 C 
ATOM     21  C   UNL     1      -4.520   2.764  24.921  0.00  0.00    -0.007 A 
ATOM     22  C   UNL     1      -5.279   2.443  24.880  0.00  0.00    -0.003 A 
ATOM     23  C   UNL     1      -5.381   1.628  24.812  0.00  0.00    -0.000 A 
ATOM     24  C   UNL     1      -4.722   1.132  24.784  0.00  0.00    +0.001 A 
ATOM     25  C   UNL     1      -3.963   1.451  24.825  0.00  0.00    +0.015 A 
ATOM     26  C   UNL     1      -3.862   2.267  24.893  0.00  0.00    +0.050 A 
ENDBRANCH  15  16
ENDBRANCH  14  15
ENDBRANCH  13  14
TORSDOF 5
ENDMDL
