MODEL 1
REMARK VINA RESULT:     -11.0      0.000      0.000
REMARK  Name = 
REMARK  4 active torsions:
REMARK  status: ('A' for Active; 'I' for Inactive)
REMARK    1  A    between atoms: O_2  and  C_3
REMARK    2  A    between atoms: C_6  and  C_7
REMARK    3  A    between atoms: C_7  and  N_8
REMARK    4  A    between atoms: C_18  and  C_20
REMARK                            x       y       z     vdW  Elec       q    Type
REMARK                         _______ _______ _______ _____ _____    ______ ____
ROOT
ATOM      8  N   UNL     1      -4.707   2.548  24.870  0.00  0.00    -0.271 N 
ATOM      9  C   UNL     1      -4.562   1.742  24.766  0.00  0.00    +0.124 C 
ATOM     10  C   UNL     1      -4.044   1.332  24.271  0.00  0.00    +0.116 C 
ATOM     11  N   UNL     1      -4.143   0.526  24.410  0.00  0.00    -0.275 N 
ATOM     12  C   UNL     1      -4.722   0.435  24.990  0.00  0.00    +0.125 C 
ATOM     13  C   UNL     1      -4.982   1.188  25.211  0.00  0.00    +0.155 C 
ATOM     14  O   UNL     1      -5.546   1.439  25.759  0.00  0.00    -0.343 OA
ATOM     15  C   UNL     1      -5.689   2.245  25.861  0.00  0.00    +0.227 C 
ATOM     16  C   UNL     1      -5.270   2.799  25.417  0.00  0.00    +0.256 C 
ATOM     17  O   UNL     1      -5.414   3.604  25.520  0.00  0.00    -0.272 OA
ATOM     18  C   UNL     1      -3.734  -0.085  24.034  0.00  0.00    +0.225 C 
ATOM     19  O   UNL     1      -3.167   0.090  23.462  0.00  0.00    -0.275 OA
ENDROOT
BRANCH  18  20
ATOM     20  C   UNL     1      -3.893  -0.870  24.232  0.00  0.00    +0.077 C 
ATOM     21  C   UNL     1      -3.784  -1.517  24.731  0.00  0.00    +0.010 C 
ATOM     22  C   UNL     1      -4.278  -1.583  24.075  0.00  0.00    +0.010 C 
ENDBRANCH  18  20
BRANCH   8   7
ATOM      7  C   UNL     1      -4.287   3.103  24.425  0.00  0.00    +0.120 C 
BRANCH   7   6
ATOM      3  C   UNL     1      -2.174   4.047  25.300  0.00  0.00    +0.139 A 
ATOM      4  C   UNL     1      -2.173   3.611  24.598  0.00  0.00    +0.037 A 
ATOM      5  C   UNL     1      -2.877   3.297  24.307  0.00  0.00    +0.001 A 
ATOM      6  C   UNL     1      -3.584   3.417  24.716  0.00  0.00    -0.002 A 
ATOM     23  C   UNL     1      -3.585   3.852  25.416  0.00  0.00    +0.001 A 
ATOM     24  C   UNL     1      -2.880   4.167  25.709  0.00  0.00    +0.037 A 
BRANCH   3   2
ATOM      1  C   UNL     1      -1.055   4.922  25.148  0.00  0.00    +0.252 C 
ATOM      2  O   UNL     1      -1.470   4.361  25.591  0.00  0.00    -0.471 OA
ENDBRANCH   3   2
ENDBRANCH   7   6
ENDBRANCH   8   7
TORSDOF 4
ENDMDL
MODEL 2
REMARK VINA RESULT:     -10.9      0.981      4.022
REMARK  Name = 
REMARK  4 active torsions:
REMARK  status: ('A' for Active; 'I' for Inactive)
REMARK    1  A    between atoms: O_2  and  C_3
REMARK    2  A    between atoms: C_6  and  C_7
REMARK    3  A    between atoms: C_7  and  N_8
REMARK    4  A    between atoms: C_18  and  C_20
REMARK                            x       y       z     vdW  Elec       q    Type
REMARK                         _______ _______ _______ _____ _____    ______ ____
ROOT
ATOM      8  N   UNL     1      -4.457   2.175  24.718  0.00  0.00    -0.271 N 
ATOM      9  C   UNL     1      -3.797   2.661  24.813  0.00  0.00    +0.124 C 
ATOM     10  C   UNL     1      -3.047   2.648  24.469  0.00  0.00    +0.116 C 
ATOM     11  N   UNL     1      -2.613   3.278  24.778  0.00  0.00    -0.275 N 
ATOM     12  C   UNL     1      -3.095   3.681  25.314  0.00  0.00    +0.125 C 
ATOM     13  C   UNL     1      -3.827   3.299  25.335  0.00  0.00    +0.155 C 
ATOM     14  O   UNL     1      -4.516   3.451  25.763  0.00  0.00    -0.343 OA
ATOM     15  C   UNL     1      -5.175   2.965  25.667  0.00  0.00    +0.227 C 
ATOM     16  C   UNL     1      -5.146   2.327  25.145  0.00  0.00    +0.256 C 
ATOM     17  O   UNL     1      -5.805   1.841  25.050  0.00  0.00    -0.272 OA
ATOM     18  C   UNL     1      -1.834   3.471  24.586  0.00  0.00    +0.225 C 
ATOM     19  O   UNL     1      -1.420   3.015  24.039  0.00  0.00    -0.275 OA
ENDROOT
BRANCH  18  20
ATOM     20  C   UNL     1      -1.471   4.120  24.943  0.00  0.00    +0.077 C 
ATOM     21  C   UNL     1      -1.421   4.935  25.061  0.00  0.00    +0.010 C 
ATOM     22  C   UNL     1      -0.892   4.431  25.443  0.00  0.00    +0.010 C 
ENDBRANCH  18  20
BRANCH   8   7
ATOM      7  C   UNL     1      -4.427   1.536  24.196  0.00  0.00    +0.120 C 
BRANCH   7   6
ATOM      3  C   UNL     1      -3.699  -0.687  25.000  0.00  0.00    +0.139 A 
ATOM      4  C   UNL     1      -3.347  -0.355  24.332  0.00  0.00    +0.037 A 
ATOM      5  C   UNL     1      -3.590   0.387  24.064  0.00  0.00    +0.001 A 
ATOM      6  C   UNL     1      -4.185   0.796  24.464  0.00  0.00    -0.002 A 
ATOM     23  C   UNL     1      -4.536   0.463  25.131  0.00  0.00    +0.001 A 
ATOM     24  C   UNL     1      -4.294  -0.279  25.400  0.00  0.00    +0.037 A 
BRANCH   3   2
ATOM      1  C   UNL     1      -3.553  -2.093  24.787  0.00  0.00    +0.252 C 
ATOM      2  O   UNL     1      -3.456  -1.429  25.268  0.00  0.00    -0.471 OA
ENDBRANCH   3   2
ENDBRANCH   7   6
ENDBRANCH   8   7
TORSDOF 4
ENDMDL
MODEL 3
REMARK VINA RESULT:     -10.6      1.530      2.758
REMARK  Name = 
REMARK  4 active torsions:
REMARK  status: ('A' for Active; 'I' for Inactive)
REMARK    1  A    between atoms: O_2  and  C_3
REMARK    2  A    between atoms: C_6  and  C_7
REMARK    3  A    between atoms: C_7  and  N_8
REMARK    4  A    between atoms: C_18  and  C_20
REMARK                            x       y       z     vdW  Elec       q    Type
REMARK                         _______ _______ _______ _____ _____    ______ ____
ROOT
ATOM      8  N   UNL     1      -2.036   1.388  24.533  0.00  0.00    -0.271 N 
ATOM      9  C   UNL     1      -2.309   0.611  24.590  0.00  0.00    +0.124 C 
ATOM     10  C   UNL     1      -2.948   0.223  24.240  0.00  0.00    +0.116 C 
ATOM     11  N   UNL     1      -2.948  -0.558  24.505  0.00  0.00    -0.275 N 
ATOM     12  C   UNL     1      -2.309  -0.653  25.019  0.00  0.00    +0.125 C 
ATOM     13  C   UNL     1      -1.914   0.070  25.072  0.00  0.00    +0.155 C 
ATOM     14  O   UNL     1      -1.246   0.305  25.496  0.00  0.00    -0.343 OA
ATOM     15  C   UNL     1      -0.974   1.082  25.438  0.00  0.00    +0.227 C 
ATOM     16  C   UNL     1      -1.369   1.623  24.957  0.00  0.00    +0.256 C 
ATOM     17  O   UNL     1      -1.097   2.399  24.899  0.00  0.00    -0.272 OA
ATOM     18  C   UNL     1      -3.491  -1.142  24.294  0.00  0.00    +0.225 C 
ATOM     19  O   UNL     1      -4.104  -0.966  23.771  0.00  0.00    -0.275 OA
ENDROOT
BRANCH  18  20
ATOM     20  C   UNL     1      -3.419  -1.903  24.605  0.00  0.00    +0.077 C 
ATOM     21  C   UNL     1      -3.178  -2.688  24.526  0.00  0.00    +0.010 C 
ATOM     22  C   UNL     1      -3.537  -2.436  25.224  0.00  0.00    +0.010 C 
ENDBRANCH  18  20
BRANCH   8   7
ATOM      7  C   UNL     1      -2.432   1.930  24.051  0.00  0.00    +0.120 C 
BRANCH   7   6
ATOM      3  C   UNL     1      -4.226   3.347  24.997  0.00  0.00    +0.139 A 
ATOM      4  C   UNL     1      -4.387   2.849  24.359  0.00  0.00    +0.037 A 
ATOM      5  C   UNL     1      -3.788   2.377  24.044  0.00  0.00    +0.001 A 
ATOM      6  C   UNL     1      -3.029   2.402  24.366  0.00  0.00    -0.002 A 
ATOM     23  C   UNL     1      -2.869   2.900  25.004  0.00  0.00    +0.001 A 
ATOM     24  C   UNL     1      -3.467   3.372  25.320  0.00  0.00    +0.037 A 
BRANCH   3   2
ATOM      1  C   UNL     1      -5.489   3.468  25.654  0.00  0.00    +0.252 C 
ATOM      2  O   UNL     1      -4.825   3.819  25.312  0.00  0.00    -0.471 OA
ENDBRANCH   3   2
ENDBRANCH   7   6
ENDBRANCH   8   7
TORSDOF 4
ENDMDL
MODEL 4
REMARK VINA RESULT:     -10.3      1.994      5.012
REMARK  Name = 
REMARK  4 active torsions:
REMARK  status: ('A' for Active; 'I' for Inactive)
REMARK    1  A    between atoms: O_2  and  C_3
REMARK    2  A    between atoms: C_6  and  C_7
REMARK    3  A    between atoms: C_7  and  N_8
REMARK    4  A    between atoms: C_18  and  C_20
REMARK                            x       y       z     vdW  Elec       q    Type
REMARK                         _______ _______ _______ _____ _____    ______ ____
ROOT
ATOM      8  N   UNL     1      -1.545   0.143  24.974  0.00  0.00    -0.271 N 
ATOM      9  C   UNL     1      -2.003   0.802  24.779  0.00  0.00    +0.124 C 
ATOM     10  C   UNL     1      -2.737   1.064  25.051  0.00  0.00    +0.116 C 
ATOM     11  N   UNL     1      -2.920   1.763  24.654  0.00  0.00    -0.275 N 
ATOM     12  C   UNL     1      -2.300   1.933  24.136  0.00  0.00    +0.125 C 
ATOM     13  C   UNL     1      -1.733   1.339  24.214  0.00  0.00    +0.155 C 
ATOM     14  O   UNL     1      -1.005   1.217  23.843  0.00  0.00    -0.343 OA
ATOM     15  C   UNL     1      -0.549   0.559  24.038  0.00  0.00    +0.227 C 
ATOM     16  C   UNL     1      -0.818   0.022  24.604  0.00  0.00    +0.256 C 
ATOM     17  O   UNL     1      -0.362  -0.636  24.798  0.00  0.00    -0.272 OA
ATOM     18  C   UNL     1      -3.604   2.214  24.755  0.00  0.00    +0.225 C 
ATOM     19  O   UNL     1      -4.179   1.974  25.295  0.00  0.00    -0.275 OA
ENDROOT
BRANCH  18  20
ATOM     20  C   UNL     1      -3.712   2.904  24.316  0.00  0.00    +0.077 C 
ATOM     21  C   UNL     1      -3.946   3.278  23.619  0.00  0.00    +0.010 C 
ATOM     22  C   UNL     1      -3.664   3.725  24.252  0.00  0.00    +0.010 C 
ENDBRANCH  18  20
BRANCH   8   7
ATOM      7  C   UNL     1      -1.815  -0.394  25.540  0.00  0.00    +0.120 C 
BRANCH   7   6
ATOM      3  C   UNL     1      -3.183  -2.336  24.847  0.00  0.00    +0.139 A 
ATOM      4  C   UNL     1      -3.485  -1.791  25.389  0.00  0.00    +0.037 A 
ATOM      5  C   UNL     1      -3.028  -1.144  25.620  0.00  0.00    +0.001 A 
ATOM      6  C   UNL     1      -2.271  -1.041  25.309  0.00  0.00    -0.002 A 
ATOM     23  C   UNL     1      -1.970  -1.585  24.767  0.00  0.00    +0.001 A 
ATOM     24  C   UNL     1      -2.426  -2.233  24.536  0.00  0.00    +0.037 A 
BRANCH   3   2
ATOM      1  C   UNL     1      -4.096  -2.942  23.929  0.00  0.00    +0.252 C 
ATOM      2  O   UNL     1      -3.640  -2.983  24.617  0.00  0.00    -0.471 OA
ENDBRANCH   3   2
ENDBRANCH   7   6
ENDBRANCH   8   7
TORSDOF 4
ENDMDL
MODEL 5
REMARK VINA RESULT:     -10.3      1.404      4.250
REMARK  Name = 
REMARK  4 active torsions:
REMARK  status: ('A' for Active; 'I' for Inactive)
REMARK    1  A    between atoms: O_2  and  C_3
REMARK    2  A    between atoms: C_6  and  C_7
REMARK    3  A    between atoms: C_7  and  N_8
REMARK    4  A    between atoms: C_18  and  C_20
REMARK                            x       y       z     vdW  Elec       q    Type
REMARK                         _______ _______ _______ _____ _____    ______ ____
ROOT
ATOM      8  N   UNL     1      -4.174   1.380  25.031  0.00  0.00    -0.271 N 
ATOM      9  C   UNL     1      -3.458   1.784  24.969  0.00  0.00    +0.124 C 
ATOM     10  C   UNL     1      -2.707   1.628  25.274  0.00  0.00    +0.116 C 
ATOM     11  N   UNL     1      -2.201   2.231  25.028  0.00  0.00    -0.275 N 
ATOM     12  C   UNL     1      -2.639   2.761  24.571  0.00  0.00    +0.125 C 
ATOM     13  C   UNL     1      -3.416   2.484  24.535  0.00  0.00    +0.155 C 
ATOM     14  O   UNL     1      -4.091   2.780  24.162  0.00  0.00    -0.343 OA
ATOM     15  C   UNL     1      -4.807   2.375  24.225  0.00  0.00    +0.227 C 
ATOM     16  C   UNL     1      -4.848   1.674  24.659  0.00  0.00    +0.256 C 
ATOM     17  O   UNL     1      -5.564   1.270  24.721  0.00  0.00    -0.272 OA
ATOM     18  C   UNL     1      -1.398   2.295  25.207  0.00  0.00    +0.225 C 
ATOM     19  O   UNL     1      -1.033   1.720  25.672  0.00  0.00    -0.275 OA
ENDROOT
BRANCH  18  20
ATOM     20  C   UNL     1      -0.961   2.933  24.920  0.00  0.00    +0.077 C 
ATOM     21  C   UNL     1      -0.695   3.710  25.000  0.00  0.00    +0.010 C 
ATOM     22  C   UNL     1      -0.471   3.263  24.344  0.00  0.00    +0.010 C 
ENDBRANCH  18  20
BRANCH   8   7
ATOM      7  C   UNL     1      -4.216   0.678  25.466  0.00  0.00    +0.120 C 
BRANCH   7   6
ATOM      3  C   UNL     1      -3.818  -1.494  24.350  0.00  0.00    +0.139 A 
ATOM      4  C   UNL     1      -3.482  -1.342  25.089  0.00  0.00    +0.037 A 
ATOM      5  C   UNL     1      -3.615  -0.617  25.460  0.00  0.00    +0.001 A 
ATOM      6  C   UNL     1      -4.084  -0.045  25.094  0.00  0.00    -0.002 A 
ATOM     23  C   UNL     1      -4.419  -0.198  24.356  0.00  0.00    +0.001 A 
ATOM     24  C   UNL     1      -4.286  -0.922  23.984  0.00  0.00    +0.037 A 
BRANCH   3   2
ATOM      1  C   UNL     1      -3.530  -2.891  24.432  0.00  0.00    +0.252 C 
ATOM      2  O   UNL     1      -3.685  -2.219  23.979  0.00  0.00    -0.471 OA
ENDBRANCH   3   2
ENDBRANCH   7   6
ENDBRANCH   8   7
TORSDOF 4
ENDMDL
MODEL 6
REMARK VINA RESULT:     -10.1      2.058      3.112
REMARK  Name = 
REMARK  4 active torsions:
REMARK  status: ('A' for Active; 'I' for Inactive)
REMARK    1  A    between atoms: O_2  and  C_3
REMARK    2  A    between atoms: C_6  and  C_7
REMARK    3  A    between atoms: C_7  and  N_8
REMARK    4  A    between atoms: C_18  and  C_20
REMARK                            x       y       z     vdW  Elec       q    Type
REMARK                         _______ _______ _______ _____ _____    ______ ____
ROOT
ATOM      8  N   UNL     1      -0.967   1.088  25.085  0.00  0.00    -0.271 N 
ATOM      9  C   UNL     1      -1.546   0.518  24.937  0.00  0.00    +0.124 C 
ATOM     10  C   UNL     1      -2.263   0.350  25.309  0.00  0.00    +0.116 C 
ATOM     11  N   UNL     1      -2.611  -0.287  24.916  0.00  0.00    -0.275 N 
ATOM     12  C   UNL     1      -2.108  -0.513  24.302  0.00  0.00    +0.125 C 
ATOM     13  C   UNL     1      -1.450  -0.015  24.315  0.00  0.00    +0.155 C 
ATOM     14  O   UNL     1      -0.775   0.022  23.840  0.00  0.00    -0.343 OA
ATOM     15  C   UNL     1      -0.197   0.592  23.989  0.00  0.00    +0.227 C 
ATOM     16  C   UNL     1      -0.294   1.125  24.611  0.00  0.00    +0.256 C 
ATOM     17  O   UNL     1       0.284   1.694  24.759  0.00  0.00    -0.272 OA
ATOM     18  C   UNL     1      -3.333  -0.637  25.105  0.00  0.00    +0.225 C 
ATOM     19  O   UNL     1      -3.778  -0.350  25.737  0.00  0.00    -0.275 OA
ENDROOT
BRANCH  18  20
ATOM     20  C   UNL     1      -3.611  -1.274  24.660  0.00  0.00    +0.077 C 
ATOM     21  C   UNL     1      -3.654  -2.086  24.525  0.00  0.00    +0.010 C 
ATOM     22  C   UNL     1      -4.049  -1.564  24.024  0.00  0.00    +0.010 C 
ENDBRANCH  18  20
BRANCH   8   7
ATOM      7  C   UNL     1      -1.063   1.622  25.708  0.00  0.00    +0.120 C 
BRANCH   7   6
ATOM      3  C   UNL     1      -1.664   3.976  25.238  0.00  0.00    +0.139 A 
ATOM      4  C   UNL     1      -0.878   3.772  25.386  0.00  0.00    +0.037 A 
ATOM      5  C   UNL     1      -0.678   2.987  25.542  0.00  0.00    +0.001 A 
ATOM      6  C   UNL     1      -1.264   2.406  25.551  0.00  0.00    -0.002 A 
ATOM     23  C   UNL     1      -2.049   2.610  25.403  0.00  0.00    +0.001 A 
ATOM     24  C   UNL     1      -2.249   3.395  25.246  0.00  0.00    +0.037 A 
BRANCH   3   2
ATOM      1  C   UNL     1      -1.270   5.329  25.004  0.00  0.00    +0.252 C 
ATOM      2  O   UNL     1      -1.864   4.761  25.081  0.00  0.00    -0.471 OA
ENDBRANCH   3   2
ENDBRANCH   7   6
ENDBRANCH   8   7
TORSDOF 4
ENDMDL
