REMARK  Name = 
REMARK  4 active torsions:
REMARK  status: ('A' for Active; 'I' for Inactive)
REMARK    1  A    between atoms: C_2  and  C_4
REMARK    2  A    between atoms: C_6  and  C_7
REMARK    3  A    between atoms: C_7  and  C_8
REMARK    4  A    between atoms: C_18  and  C_19
REMARK                            x       y       z     vdW  Elec       q    Type
REMARK                         _______ _______ _______ _____ _____    ______ ____
ROOT
ATOM      4  C   UNL     1      -0.608   6.828   0.000  0.00  0.00    +0.007 C 
ATOM      5  C   UNL     1      -0.608   6.003   0.000  0.00  0.00    +0.005 C 
ATOM      6  C   UNL     1      -1.322   5.590   0.000  0.00  0.00    +0.027 C 
ATOM     15  C   UNL     1      -2.037   6.003   0.000  0.00  0.00    -0.048 C 
ATOM     16  C   UNL     1      -2.751   5.590   0.000  0.00  0.00    +0.026 C 
ATOM     17  C   UNL     1      -2.037   6.828   0.000  0.00  0.00    -0.032 C 
ATOM     18  C   UNL     1      -1.322   7.240   0.000  0.00  0.00    +0.054 C 
ENDROOT
BRANCH   4   2
ATOM      1  C   UNL     1       0.107   8.065   0.000  0.00  0.00    +0.000 C 
ATOM      2  C   UNL     1       0.107   7.240   0.000  0.00  0.00    +0.000 C 
ATOM      3  C   UNL     1       0.821   6.828   0.000  0.00  0.00    +0.000 C 
ENDBRANCH   4   2
BRANCH  18  19
ATOM     19  C   UNL     1      -1.322   8.065   0.000  0.00  0.00    +0.186 C 
ATOM     20  O   UNL     1      -2.037   8.478   0.000  0.00  0.00    -0.220 OA
ENDBRANCH  18  19
BRANCH   6   7
ATOM      7  C   UNL     1      -1.322   4.765   0.000  0.00  0.00    +0.089 C 
BRANCH   7   8
ATOM      8  C   UNL     1      -2.037   4.353   0.000  0.00  0.00    +0.226 C 
ATOM      9  O   UNL     1      -2.751   4.765   0.000  0.00  0.00    -0.275 OA
ATOM     10  N   UNL     1      -2.037   3.528   0.000  0.00  0.00    -0.280 N 
ATOM     11  C   UNL     1      -1.369   3.043   0.000  0.00  0.00    +0.093 C 
ATOM     12  C   UNL     1      -1.624   2.258   0.000  0.00  0.00    +0.023 C 
ATOM     13  C   UNL     1      -2.449   2.258   0.000  0.00  0.00    +0.023 C 
ATOM     14  C   UNL     1      -2.704   3.043   0.000  0.00  0.00    +0.093 C 
ENDBRANCH   7   8
ENDBRANCH   6   7
TORSDOF 4
