REMARK  Name = 
REMARK  4 active torsions:
REMARK  status: ('A' for Active; 'I' for Inactive)
REMARK    1  A    between atoms: C_7  and  C_8
REMARK    2  A    between atoms: C_15  and  O_17
REMARK    3  A    between atoms: O_17  and  C_18
REMARK    4  A    between atoms: C_21  and  C_24
REMARK                            x       y       z     vdW  Elec       q    Type
REMARK                         _______ _______ _______ _____ _____    ______ ____
ROOT
ATOM      8  C   UNL     1      -2.450  -1.297   0.000  0.00  0.00    +0.267 C 
ATOM      9  O   UNL     1      -2.621  -0.490   0.000  0.00  0.00    -0.268 OA
ATOM     10  N   UNL     1      -3.063  -1.849   0.000  0.00  0.00    -0.268 N 
ATOM     11  C   UNL     1      -2.831  -2.641   0.000  0.00  0.00    +0.126 C 
ATOM     12  C   UNL     1      -3.306  -3.316   0.000  0.00  0.00    +0.164 C 
ATOM     13  O   UNL     1      -4.130  -3.365   0.000  0.00  0.00    -0.348 OA
ATOM     14  C   UNL     1      -4.682  -2.752   0.000  0.00  0.00    +0.187 C 
ATOM     15  C   UNL     1      -4.547  -1.938   0.000  0.00  0.00    +0.217 C 
ATOM     16  C   UNL     1      -3.826  -1.536   0.000  0.00  0.00    +0.140 C 
ENDROOT
BRANCH   8   7
ATOM      1  C   UNL     1      -0.998  -0.242   0.000  0.00  0.00    +0.154 C 
ATOM      2  N   UNL     1      -0.998  -1.067   0.000  0.00  0.00    -0.245 N 
ATOM      3  N   UNL     1      -0.330  -1.552   0.000  0.00  0.00    -0.173 NA
ATOM      4  C   UNL     1      -0.585  -2.337   0.000  0.00  0.00    +0.081 A 
ATOM      5  C   UNL     1      -0.100  -3.004   0.000  0.00  0.00    +0.054 C 
ATOM      6  C   UNL     1      -1.410  -2.337   0.000  0.00  0.00    +0.040 A 
ATOM      7  C   UNL     1      -1.665  -1.552   0.000  0.00  0.00    +0.132 A 
ENDBRANCH   8   7
BRANCH  15  17
ATOM     17  O   UNL     1      -5.221  -1.463   0.000  0.00  0.00    -0.460 OA
BRANCH  17  18
ATOM     18  C   UNL     1      -5.147  -0.641   0.000  0.00  0.00    +0.225 A 
ATOM     19  C   UNL     1      -5.822  -0.166   0.000  0.00  0.00    +0.058 A 
ATOM     20  C   UNL     1      -5.748   0.655   0.000  0.00  0.00    +0.010 A 
ATOM     21  C   UNL     1      -4.999   1.002   0.000  0.00  0.00    +0.091 A 
ATOM     22  C   UNL     1      -4.325   0.527   0.000  0.00  0.00    +0.106 A 
ATOM     23  N   UNL     1      -4.399  -0.294   0.000  0.00  0.00    -0.210 NA
BRANCH  21  24
ATOM     24  C   UNL     1      -4.925   1.824   0.000  0.00  0.00    +0.420 C 
ATOM     25  F   UNL     1      -4.851   2.645   0.000  0.00  0.00    -0.166 F 
ATOM     26  F   UNL     1      -4.104   1.750   0.000  0.00  0.00    -0.166 F 
ATOM     27  F   UNL     1      -5.747   1.898   0.000  0.00  0.00    -0.166 F 
ENDBRANCH  21  24
ENDBRANCH  17  18
ENDBRANCH  15  17
TORSDOF 4
