MODEL 1
REMARK VINA RESULT:     -11.7      0.000      0.000
REMARK  Name = 
REMARK  8 active torsions:
REMARK  status: ('A' for Active; 'I' for Inactive)
REMARK    1  A    between atoms: C_2  and  C_3
REMARK    2  A    between atoms: C_3  and  C_4
REMARK    3  A    between atoms: C_9  and  C_10
REMARK    4  A    between atoms: C_10  and  C_11
REMARK    5  A    between atoms: C_14  and  C_15
REMARK    6  A    between atoms: C_15  and  O_16
REMARK    7  A    between atoms: O_16  and  C_17
REMARK    8  A    between atoms: N_24  and  C_25
REMARK                            x       y       z     vdW  Elec       q    Type
REMARK                         _______ _______ _______ _____ _____    ______ ____
ROOT
ATOM      4  C   UNL     1      -0.568  -0.035  24.626  0.00  0.00    +0.012 C 
ATOM      5  C   UNL     1      -0.265  -0.406  23.954  0.00  0.00    +0.019 C 
ATOM      6  C   UNL     1       0.217   0.016  23.433  0.00  0.00    +0.089 C 
ATOM      7  N   UNL     1       0.395   0.806  23.584  0.00  0.00    -0.218 NA
ATOM      8  C   UNL     1       0.092   1.177  24.255  0.00  0.00    +0.089 C 
ATOM      9  C   UNL     1      -0.390   0.755  24.777  0.00  0.00    +0.024 C 
ENDROOT
BRANCH   4   3
ATOM      3  C   UNL     1      -1.049  -0.456  25.147  0.00  0.00    +0.087 C 
BRANCH   3   2
ATOM      1  O   UNL     1      -1.342  -1.589  24.327  0.00  0.00    -0.273 OA
ATOM      2  C   UNL     1      -1.591  -1.007  24.855  0.00  0.00    +0.246 C 
ATOM     24  N   UNL     1      -2.379  -0.975  25.093  0.00  0.00    -0.179 NA
BRANCH  24  25
ATOM     25  C   UNL     1      -2.921  -1.526  24.801  0.00  0.00    +0.073 A 
ATOM     26  C   UNL     1      -3.495  -1.291  24.257  0.00  0.00    +0.017 A 
ATOM     27  C   UNL     1      -4.036  -1.841  23.965  0.00  0.00    +0.001 A 
ATOM     28  C   UNL     1      -4.003  -2.627  24.219  0.00  0.00    +0.000 A 
ATOM     29  C   UNL     1      -3.429  -2.860  24.763  0.00  0.00    +0.001 A 
ATOM     30  C   UNL     1      -2.888  -2.310  25.054  0.00  0.00    +0.017 A 
ENDBRANCH  24  25
ENDBRANCH   3   2
ENDBRANCH   4   3
BRANCH   9  10
ATOM     10  C   UNL     1      -0.693   1.126  25.448  0.00  0.00    +0.051 C 
BRANCH  10  11
ATOM     11  C   UNL     1      -1.073   1.855  25.382  0.00  0.00    +0.100 A 
ATOM     12  N   UNL     1      -0.708   2.583  25.249  0.00  0.00    -0.082 NA
ATOM     13  O   UNL     1      -1.294   3.162  25.221  0.00  0.00    -0.354 OA
ATOM     14  C   UNL     1      -2.023   2.793  25.337  0.00  0.00    +0.198 A 
ATOM     23  C   UNL     1      -1.887   1.985  25.436  0.00  0.00    +0.057 A 
BRANCH  14  15
ATOM     15  C   UNL     1      -2.759   3.166  25.351  0.00  0.00    +0.272 C 
BRANCH  15  16
ATOM     16  O   UNL     1      -3.348   2.934  24.821  0.00  0.00    -0.467 OA
BRANCH  16  17
ATOM     17  C   UNL     1      -4.142   3.002  25.033  0.00  0.00    +0.139 A 
ATOM     18  C   UNL     1      -4.661   2.375  24.894  0.00  0.00    +0.037 A 
ATOM     19  C   UNL     1      -5.455   2.443  25.107  0.00  0.00    +0.003 A 
ATOM     20  C   UNL     1      -5.731   3.137  25.458  0.00  0.00    +0.000 A 
ATOM     21  C   UNL     1      -5.212   3.763  25.596  0.00  0.00    +0.003 A 
ATOM     22  C   UNL     1      -4.418   3.695  25.384  0.00  0.00    +0.037 A 
ENDBRANCH  16  17
ENDBRANCH  15  16
ENDBRANCH  14  15
ENDBRANCH  10  11
ENDBRANCH   9  10
TORSDOF 8
ENDMDL
MODEL 2
REMARK VINA RESULT:     -11.7      0.945      4.394
REMARK  Name = 
REMARK  8 active torsions:
REMARK  status: ('A' for Active; 'I' for Inactive)
REMARK    1  A    between atoms: C_2  and  C_3
REMARK    2  A    between atoms: C_3  and  C_4
REMARK    3  A    between atoms: C_9  and  C_10
REMARK    4  A    between atoms: C_10  and  C_11
REMARK    5  A    between atoms: C_14  and  C_15
REMARK    6  A    between atoms: C_15  and  O_16
REMARK    7  A    between atoms: O_16  and  C_17
REMARK    8  A    between atoms: N_24  and  C_25
REMARK                            x       y       z     vdW  Elec       q    Type
REMARK                         _______ _______ _______ _____ _____    ______ ____
ROOT
ATOM      4  C   UNL     1      -1.184   2.801  25.097  0.00  0.00    +0.012 C 
ATOM      5  C   UNL     1      -1.046   3.246  25.779  0.00  0.00    +0.019 C 
ATOM      6  C   UNL     1      -0.396   3.075  26.257  0.00  0.00    +0.089 C 
ATOM      7  N   UNL     1       0.116   2.462  26.054  0.00  0.00    -0.218 NA
ATOM      8  C   UNL     1      -0.022   2.018  25.373  0.00  0.00    +0.089 C 
ATOM      9  C   UNL     1      -0.673   2.188  24.894  0.00  0.00    +0.024 C 
ENDROOT
BRANCH   4   3
ATOM      3  C   UNL     1      -1.835   2.971  24.619  0.00  0.00    +0.087 C 
BRANCH   3   2
ATOM      1  O   UNL     1      -2.644   3.402  25.715  0.00  0.00    -0.273 OA
ATOM      2  C   UNL     1      -2.579   3.081  24.958  0.00  0.00    +0.246 C 
ATOM     24  N   UNL     1      -3.257   2.870  24.540  0.00  0.00    -0.179 NA
BRANCH  24  25
ATOM     25  C   UNL     1      -4.002   2.979  24.879  0.00  0.00    +0.073 A 
ATOM     26  C   UNL     1      -4.428   2.330  25.157  0.00  0.00    +0.017 A 
ATOM     27  C   UNL     1      -5.172   2.439  25.496  0.00  0.00    +0.001 A 
ATOM     28  C   UNL     1      -5.491   3.199  25.557  0.00  0.00    +0.000 A 
ATOM     29  C   UNL     1      -5.064   3.847  25.279  0.00  0.00    +0.001 A 
ATOM     30  C   UNL     1      -4.320   3.738  24.940  0.00  0.00    +0.017 A 
ENDBRANCH  24  25
ENDBRANCH   3   2
ENDBRANCH   4   3
BRANCH   9  10
ATOM     10  C   UNL     1      -0.810   1.743  24.213  0.00  0.00    +0.051 C 
BRANCH  10  11
ATOM     11  C   UNL     1      -0.789   0.919  24.246  0.00  0.00    +0.100 A 
ATOM     12  N   UNL     1      -0.110   0.451  24.238  0.00  0.00    -0.082 NA
ATOM     13  O   UNL     1      -0.344  -0.339  24.280  0.00  0.00    -0.354 OA
ATOM     14  C   UNL     1      -1.168  -0.359  24.314  0.00  0.00    +0.198 A 
ATOM     23  C   UNL     1      -1.443   0.418  24.293  0.00  0.00    +0.057 A 
BRANCH  14  15
ATOM     15  C   UNL     1      -1.635  -1.038  24.360  0.00  0.00    +0.272 C 
BRANCH  15  16
ATOM     16  O   UNL     1      -2.388  -0.997  24.694  0.00  0.00    -0.467 OA
BRANCH  16  17
ATOM     17  C   UNL     1      -2.945  -1.582  24.527  0.00  0.00    +0.139 A 
ATOM     18  C   UNL     1      -3.641  -1.387  24.129  0.00  0.00    +0.037 A 
ATOM     19  C   UNL     1      -4.198  -1.973  23.962  0.00  0.00    +0.003 A 
ATOM     20  C   UNL     1      -4.059  -2.753  24.192  0.00  0.00    +0.000 A 
ATOM     21  C   UNL     1      -3.362  -2.947  24.590  0.00  0.00    +0.003 A 
ATOM     22  C   UNL     1      -2.806  -2.362  24.758  0.00  0.00    +0.037 A 
ENDBRANCH  16  17
ENDBRANCH  15  16
ENDBRANCH  14  15
ENDBRANCH  10  11
ENDBRANCH   9  10
TORSDOF 8
ENDMDL
MODEL 3
REMARK VINA RESULT:     -11.3      1.772      5.717
REMARK  Name = 
REMARK  8 active torsions:
REMARK  status: ('A' for Active; 'I' for Inactive)
REMARK    1  A    between atoms: C_2  and  C_3
REMARK    2  A    between atoms: C_3  and  C_4
REMARK    3  A    between atoms: C_9  and  C_10
REMARK    4  A    between atoms: C_10  and  C_11
REMARK    5  A    between atoms: C_14  and  C_15
REMARK    6  A    between atoms: C_15  and  O_16
REMARK    7  A    between atoms: O_16  and  C_17
REMARK    8  A    between atoms: N_24  and  C_25
REMARK                            x       y       z     vdW  Elec       q    Type
REMARK                         _______ _______ _______ _____ _____    ______ ____
ROOT
ATOM      4  C   UNL     1      -4.715   2.907  25.031  0.00  0.00    +0.012 C 
ATOM      5  C   UNL     1      -5.015   3.350  25.659  0.00  0.00    +0.019 C 
ATOM      6  C   UNL     1      -5.580   3.021  26.162  0.00  0.00    +0.089 C 
ATOM      7  N   UNL     1      -5.844   2.251  26.038  0.00  0.00    -0.218 NA
ATOM      8  C   UNL     1      -5.545   1.807  25.411  0.00  0.00    +0.089 C 
ATOM      9  C   UNL     1      -4.979   2.136  24.907  0.00  0.00    +0.024 C 
ENDROOT
BRANCH   4   3
ATOM      3  C   UNL     1      -4.150   3.235  24.527  0.00  0.00    +0.087 C 
BRANCH   3   2
ATOM      1  O   UNL     1      -3.494   3.912  25.600  0.00  0.00    -0.273 OA
ATOM      2  C   UNL     1      -3.476   3.593  24.841  0.00  0.00    +0.246 C 
ATOM     24  N   UNL     1      -2.784   3.632  24.393  0.00  0.00    -0.179 NA
BRANCH  24  25
ATOM     25  C   UNL     1      -2.109   3.990  24.707  0.00  0.00    +0.073 A 
ATOM     26  C   UNL     1      -1.486   3.525  24.982  0.00  0.00    +0.017 A 
ATOM     27  C   UNL     1      -0.812   3.883  25.295  0.00  0.00    +0.001 A 
ATOM     28  C   UNL     1      -0.761   4.706  25.334  0.00  0.00    +0.000 A 
ATOM     29  C   UNL     1      -1.385   5.170  25.058  0.00  0.00    +0.001 A 
ATOM     30  C   UNL     1      -2.059   4.812  24.745  0.00  0.00    +0.017 A 
ENDBRANCH  24  25
ENDBRANCH   3   2
ENDBRANCH   4   3
BRANCH   9  10
ATOM     10  C   UNL     1      -4.679   1.692  24.279  0.00  0.00    +0.051 C 
BRANCH  10  11
ATOM     11  C   UNL     1      -4.495   0.896  24.388  0.00  0.00    +0.100 A 
ATOM     12  N   UNL     1      -5.025   0.299  24.598  0.00  0.00    -0.082 NA
ATOM     13  O   UNL     1      -4.605  -0.410  24.645  0.00  0.00    -0.354 OA
ATOM     14  C   UNL     1      -3.816  -0.252  24.464  0.00  0.00    +0.198 A 
ATOM     23  C   UNL     1      -3.748   0.555  24.304  0.00  0.00    +0.057 A 
BRANCH  14  15
ATOM     15  C   UNL     1      -3.203  -0.803  24.445  0.00  0.00    +0.272 C 
BRANCH  15  16
ATOM     16  O   UNL     1      -2.775  -0.967  25.131  0.00  0.00    -0.467 OA
BRANCH  16  17
ATOM     17  C   UNL     1      -2.046  -1.351  25.080  0.00  0.00    +0.139 A 
ATOM     18  C   UNL     1      -1.369  -0.991  25.385  0.00  0.00    +0.037 A 
ATOM     19  C   UNL     1      -0.641  -1.375  25.334  0.00  0.00    +0.003 A 
ATOM     20  C   UNL     1      -0.589  -2.118  24.979  0.00  0.00    +0.000 A 
ATOM     21  C   UNL     1      -1.267  -2.477  24.674  0.00  0.00    +0.003 A 
ATOM     22  C   UNL     1      -1.995  -2.093  24.725  0.00  0.00    +0.037 A 
ENDBRANCH  16  17
ENDBRANCH  15  16
ENDBRANCH  14  15
ENDBRANCH  10  11
ENDBRANCH   9  10
TORSDOF 8
ENDMDL
MODEL 4
REMARK VINA RESULT:     -11.3      1.732      5.160
REMARK  Name = 
REMARK  8 active torsions:
REMARK  status: ('A' for Active; 'I' for Inactive)
REMARK    1  A    between atoms: C_2  and  C_3
REMARK    2  A    between atoms: C_3  and  C_4
REMARK    3  A    between atoms: C_9  and  C_10
REMARK    4  A    between atoms: C_10  and  C_11
REMARK    5  A    between atoms: C_14  and  C_15
REMARK    6  A    between atoms: C_15  and  O_16
REMARK    7  A    between atoms: O_16  and  C_17
REMARK    8  A    between atoms: N_24  and  C_25
REMARK                            x       y       z     vdW  Elec       q    Type
REMARK                         _______ _______ _______ _____ _____    ______ ____
ROOT
ATOM      4  C   UNL     1      -3.585   3.594  25.188  0.00  0.00    +0.012 C 
ATOM      5  C   UNL     1      -3.465   4.101  25.829  0.00  0.00    +0.019 C 
ATOM      6  C   UNL     1      -4.077   4.240  26.363  0.00  0.00    +0.089 C 
ATOM      7  N   UNL     1      -4.808   3.875  26.257  0.00  0.00    -0.218 NA
ATOM      8  C   UNL     1      -4.929   3.370  25.617  0.00  0.00    +0.089 C 
ATOM      9  C   UNL     1      -4.316   3.229  25.082  0.00  0.00    +0.024 C 
ENDROOT
BRANCH   4   3
ATOM      3  C   UNL     1      -2.972   3.455  24.653  0.00  0.00    +0.087 C 
BRANCH   3   2
ATOM      1  O   UNL     1      -1.805   4.058  25.212  0.00  0.00    -0.273 OA
ATOM      2  C   UNL     1      -2.195   3.392  24.923  0.00  0.00    +0.246 C 
ATOM     24  N   UNL     1      -1.809   2.664  24.903  0.00  0.00    -0.179 NA
BRANCH  24  25
ATOM     25  C   UNL     1      -1.031   2.602  25.173  0.00  0.00    +0.073 A 
ATOM     26  C   UNL     1      -0.405   2.632  24.636  0.00  0.00    +0.017 A 
ATOM     27  C   UNL     1       0.372   2.570  24.906  0.00  0.00    +0.001 A 
ATOM     28  C   UNL     1       0.524   2.477  25.712  0.00  0.00    +0.000 A 
ATOM     29  C   UNL     1      -0.103   2.448  26.248  0.00  0.00    +0.001 A 
ATOM     30  C   UNL     1      -0.880   2.510  25.978  0.00  0.00    +0.017 A 
ENDBRANCH  24  25
ENDBRANCH   3   2
ENDBRANCH   4   3
BRANCH   9  10
ATOM     10  C   UNL     1      -4.436   2.724  24.441  0.00  0.00    +0.051 C 
BRANCH  10  11
ATOM     11  C   UNL     1      -4.770   1.979  24.560  0.00  0.00    +0.100 A 
ATOM     12  N   UNL     1      -5.571   1.818  24.672  0.00  0.00    -0.082 NA
ATOM     13  O   UNL     1      -5.657   1.003  24.769  0.00  0.00    -0.354 OA
ATOM     14  C   UNL     1      -4.909   0.660  24.718  0.00  0.00    +0.198 A 
ATOM     23  C   UNL     1      -4.360   1.263  24.589  0.00  0.00    +0.057 A 
BRANCH  14  15
ATOM     15  C   UNL     1      -4.739  -0.144  24.784  0.00  0.00    +0.272 C 
BRANCH  15  16
ATOM     16  O   UNL     1      -4.106  -0.468  24.364  0.00  0.00    -0.467 OA
BRANCH  16  17
ATOM     17  C   UNL     1      -3.943  -1.274  24.421  0.00  0.00    +0.139 A 
ATOM     18  C   UNL     1      -3.475  -1.558  25.038  0.00  0.00    +0.037 A 
ATOM     19  C   UNL     1      -3.313  -2.365  25.095  0.00  0.00    +0.003 A 
ATOM     20  C   UNL     1      -3.617  -2.888  24.534  0.00  0.00    +0.000 A 
ATOM     21  C   UNL     1      -4.085  -2.603  23.917  0.00  0.00    +0.003 A 
ATOM     22  C   UNL     1      -4.248  -1.797  23.860  0.00  0.00    +0.037 A 
ENDBRANCH  16  17
ENDBRANCH  15  16
ENDBRANCH  14  15
ENDBRANCH  10  11
ENDBRANCH   9  10
TORSDOF 8
ENDMDL
MODEL 5
REMARK VINA RESULT:     -11.1      1.854      4.046
REMARK  Name = 
REMARK  8 active torsions:
REMARK  status: ('A' for Active; 'I' for Inactive)
REMARK    1  A    between atoms: C_2  and  C_3
REMARK    2  A    between atoms: C_3  and  C_4
REMARK    3  A    between atoms: C_9  and  C_10
REMARK    4  A    between atoms: C_10  and  C_11
REMARK    5  A    between atoms: C_14  and  C_15
REMARK    6  A    between atoms: C_15  and  O_16
REMARK    7  A    between atoms: O_16  and  C_17
REMARK    8  A    between atoms: N_24  and  C_25
REMARK                            x       y       z     vdW  Elec       q    Type
REMARK                         _______ _______ _______ _____ _____    ______ ____
ROOT
ATOM      4  C   UNL     1      -5.217   1.748  24.982  0.00  0.00    +0.012 C 
ATOM      5  C   UNL     1      -5.711   1.468  25.582  0.00  0.00    +0.019 C 
ATOM      6  C   UNL     1      -6.024   1.993  26.136  0.00  0.00    +0.089 C 
ATOM      7  N   UNL     1      -5.843   2.796  26.091  0.00  0.00    -0.218 NA
ATOM      8  C   UNL     1      -5.350   3.076  25.493  0.00  0.00    +0.089 C 
ATOM      9  C   UNL     1      -5.036   2.551  24.938  0.00  0.00    +0.024 C 
ENDROOT
BRANCH   4   3
ATOM      3  C   UNL     1      -4.904   1.223  24.428  0.00  0.00    +0.087 C 
BRANCH   3   2
ATOM      1  O   UNL     1      -5.012   0.123  25.332  0.00  0.00    -0.273 OA
ATOM      2  C   UNL     1      -4.679   0.464  24.660  0.00  0.00    +0.246 C 
ATOM     24  N   UNL     1      -4.122   0.046  24.218  0.00  0.00    -0.179 NA
BRANCH  24  25
ATOM     25  C   UNL     1      -3.897  -0.714  24.450  0.00  0.00    +0.073 A 
ATOM     26  C   UNL     1      -3.351  -0.814  25.060  0.00  0.00    +0.017 A 
ATOM     27  C   UNL     1      -3.126  -1.573  25.291  0.00  0.00    +0.001 A 
ATOM     28  C   UNL     1      -3.448  -2.233  24.912  0.00  0.00    +0.000 A 
ATOM     29  C   UNL     1      -3.994  -2.131  24.303  0.00  0.00    +0.001 A 
ATOM     30  C   UNL     1      -4.219  -1.372  24.071  0.00  0.00    +0.017 A 
ENDBRANCH  24  25
ENDBRANCH   3   2
ENDBRANCH   4   3
BRANCH   9  10
ATOM     10  C   UNL     1      -4.542   2.831  24.340  0.00  0.00    +0.051 C 
BRANCH  10  11
ATOM     11  C   UNL     1      -3.912   3.330  24.524  0.00  0.00    +0.100 A 
ATOM     12  N   UNL     1      -3.902   4.150  24.441  0.00  0.00    -0.082 NA
ATOM     13  O   UNL     1      -3.164   4.423  24.689  0.00  0.00    -0.354 OA
ATOM     14  C   UNL     1      -2.717   3.771  24.926  0.00  0.00    +0.198 A 
ATOM     23  C   UNL     1      -3.179   3.095  24.824  0.00  0.00    +0.057 A 
BRANCH  14  15
ATOM     15  C   UNL     1      -1.945   3.791  25.214  0.00  0.00    +0.272 C 
BRANCH  15  16
ATOM     16  O   UNL     1      -1.317   3.566  24.727  0.00  0.00    -0.467 OA
BRANCH  16  17
ATOM     17  C   UNL     1      -0.713   3.092  25.027  0.00  0.00    +0.139 A 
ATOM     18  C   UNL     1      -0.319   2.563  24.531  0.00  0.00    +0.037 A 
ATOM     19  C   UNL     1       0.286   2.089  24.831  0.00  0.00    +0.003 A 
ATOM     20  C   UNL     1       0.497   2.143  25.627  0.00  0.00    +0.000 A 
ATOM     21  C   UNL     1       0.103   2.672  26.122  0.00  0.00    +0.003 A 
ATOM     22  C   UNL     1      -0.502   3.146  25.822  0.00  0.00    +0.037 A 
ENDBRANCH  16  17
ENDBRANCH  15  16
ENDBRANCH  14  15
ENDBRANCH  10  11
ENDBRANCH   9  10
TORSDOF 8
ENDMDL
MODEL 6
REMARK VINA RESULT:     -11.0      1.594      3.656
REMARK  Name = 
REMARK  8 active torsions:
REMARK  status: ('A' for Active; 'I' for Inactive)
REMARK    1  A    between atoms: C_2  and  C_3
REMARK    2  A    between atoms: C_3  and  C_4
REMARK    3  A    between atoms: C_9  and  C_10
REMARK    4  A    between atoms: C_10  and  C_11
REMARK    5  A    between atoms: C_14  and  C_15
REMARK    6  A    between atoms: C_15  and  O_16
REMARK    7  A    between atoms: O_16  and  C_17
REMARK    8  A    between atoms: N_24  and  C_25
REMARK                            x       y       z     vdW  Elec       q    Type
REMARK                         _______ _______ _______ _____ _____    ______ ____
ROOT
ATOM      4  C   UNL     1      -3.182  -0.420  24.819  0.00  0.00    +0.012 C 
ATOM      5  C   UNL     1      -3.470  -0.893  25.432  0.00  0.00    +0.019 C 
ATOM      6  C   UNL     1      -2.952  -1.363  25.868  0.00  0.00    +0.089 C 
ATOM      7  N   UNL     1      -2.147  -1.363  25.692  0.00  0.00    -0.218 NA
ATOM      8  C   UNL     1      -1.859  -0.891  25.080  0.00  0.00    +0.089 C 
ATOM      9  C   UNL     1      -2.377  -0.420  24.643  0.00  0.00    +0.024 C 
ENDROOT
BRANCH   4   3
ATOM      3  C   UNL     1      -3.701   0.050  24.383  0.00  0.00    +0.087 C 
BRANCH   3   2
ATOM      1  O   UNL     1      -4.693   0.174  25.403  0.00  0.00    -0.273 OA
ATOM      2  C   UNL     1      -4.277   0.497  24.769  0.00  0.00    +0.246 C 
ATOM     24  N   UNL     1      -4.435   1.267  24.521  0.00  0.00    -0.179 NA
BRANCH  24  25
ATOM     25  C   UNL     1      -5.012   1.715  24.908  0.00  0.00    +0.073 A 
ATOM     26  C   UNL     1      -4.788   2.320  25.422  0.00  0.00    +0.017 A 
ATOM     27  C   UNL     1      -5.364   2.767  25.808  0.00  0.00    +0.001 A 
ATOM     28  C   UNL     1      -6.164   2.609  25.680  0.00  0.00    +0.000 A 
ATOM     29  C   UNL     1      -6.387   2.003  25.166  0.00  0.00    +0.001 A 
ATOM     30  C   UNL     1      -5.811   1.556  24.780  0.00  0.00    +0.017 A 
ENDBRANCH  24  25
ENDBRANCH   3   2
ENDBRANCH   4   3
BRANCH   9  10
ATOM     10  C   UNL     1      -2.089   0.052  24.031  0.00  0.00    +0.051 C 
BRANCH  10  11
ATOM     11  C   UNL     1      -1.472   0.582  24.173  0.00  0.00    +0.100 A 
ATOM     12  N   UNL     1      -0.682   0.384  24.298  0.00  0.00    -0.082 NA
ATOM     13  O   UNL     1      -0.259   1.083  24.417  0.00  0.00    -0.354 OA
ATOM     14  C   UNL     1      -0.790   1.713  24.366  0.00  0.00    +0.198 A 
ATOM     23  C   UNL     1      -1.540   1.403  24.215  0.00  0.00    +0.057 A 
BRANCH  14  15
ATOM     15  C   UNL     1      -0.603   2.512  24.451  0.00  0.00    +0.272 C 
BRANCH  15  16
ATOM     16  O   UNL     1      -0.813   2.913  25.141  0.00  0.00    -0.467 OA
BRANCH  16  17
ATOM     17  C   UNL     1      -0.982   3.720  25.114  0.00  0.00    +0.139 A 
ATOM     18  C   UNL     1      -1.674   4.008  25.460  0.00  0.00    +0.037 A 
ATOM     19  C   UNL     1      -1.842   4.815  25.432  0.00  0.00    +0.003 A 
ATOM     20  C   UNL     1      -1.320   5.334  25.059  0.00  0.00    +0.000 A 
ATOM     21  C   UNL     1      -0.629   5.045  24.713  0.00  0.00    +0.003 A 
ATOM     22  C   UNL     1      -0.460   4.238  24.741  0.00  0.00    +0.037 A 
ENDBRANCH  16  17
ENDBRANCH  15  16
ENDBRANCH  14  15
ENDBRANCH  10  11
ENDBRANCH   9  10
TORSDOF 8
ENDMDL
MODEL 7
REMARK VINA RESULT:      -7.8     17.386     18.914
REMARK  Name = 
REMARK  8 active torsions:
REMARK  status: ('A' for Active; 'I' for Inactive)
REMARK    1  A    between atoms: C_2  and  C_3
REMARK    2  A    between atoms: C_3  and  C_4
REMARK    3  A    between atoms: C_9  and  C_10
REMARK    4  A    between atoms: C_10  and  C_11
REMARK    5  A    between atoms: C_14  and  C_15
REMARK    6  A    between atoms: C_15  and  O_16
REMARK    7  A    between atoms: O_16  and  C_17
REMARK    8  A    between atoms: N_24  and  C_25
REMARK                            x       y       z     vdW  Elec       q    Type
REMARK                         _______ _______ _______ _____ _____    ______ ____
ROOT
ATOM      4  C   UNL     1      -7.688  -8.478   9.371  0.00  0.00    +0.012 C 
ATOM      5  C   UNL     1      -8.324  -8.834   9.758  0.00  0.00    +0.019 C 
ATOM      6  C   UNL     1      -8.187  -9.345  10.391  0.00  0.00    +0.089 C 
ATOM      7  N   UNL     1      -7.415  -9.500  10.636  0.00  0.00    -0.218 NA
ATOM      8  C   UNL     1      -6.780  -9.144  10.249  0.00  0.00    +0.089 C 
ATOM      9  C   UNL     1      -6.917  -8.633   9.616  0.00  0.00    +0.024 C 
ENDROOT
BRANCH   4   3
ATOM      3  C   UNL     1      -7.825  -7.967   8.738  0.00  0.00    +0.087 C 
BRANCH   3   2
ATOM      1  O   UNL     1      -9.116  -7.599   9.228  0.00  0.00    -0.273 OA
ATOM      2  C   UNL     1      -8.453  -7.432   8.767  0.00  0.00    +0.246 C 
ATOM     24  N   UNL     1      -8.417  -6.730   8.337  0.00  0.00    -0.179 NA
BRANCH  24  25
ATOM     25  C   UNL     1      -9.045  -6.194   8.366  0.00  0.00    +0.073 A 
ATOM     26  C   UNL     1      -8.917  -5.423   8.631  0.00  0.00    +0.017 A 
ATOM     27  C   UNL     1      -9.544  -4.889   8.661  0.00  0.00    +0.001 A 
ATOM     28  C   UNL     1     -10.300  -5.125   8.426  0.00  0.00    +0.000 A 
ATOM     29  C   UNL     1     -10.426  -5.895   8.161  0.00  0.00    +0.001 A 
ATOM     30  C   UNL     1      -9.799  -6.430   8.131  0.00  0.00    +0.017 A 
ENDBRANCH  24  25
ENDBRANCH   3   2
ENDBRANCH   4   3
BRANCH   9  10
ATOM     10  C   UNL     1      -6.281  -8.277   9.229  0.00  0.00    +0.051 C 
BRANCH  10  11
ATOM     11  C   UNL     1      -5.548  -8.656   9.204  0.00  0.00    +0.100 A 
ATOM     12  N   UNL     1      -5.312  -9.218   8.649  0.00  0.00    -0.082 NA
ATOM     13  O   UNL     1      -4.541  -9.448   8.832  0.00  0.00    -0.354 OA
ATOM     14  C   UNL     1      -4.301  -9.028   9.500  0.00  0.00    +0.198 A 
ATOM     23  C   UNL     1      -4.924  -8.538   9.730  0.00  0.00    +0.057 A 
BRANCH  14  15
ATOM     15  C   UNL     1      -3.567  -9.087   9.873  0.00  0.00    +0.272 C 
BRANCH  15  16
ATOM     16  O   UNL     1      -3.387  -9.754  10.324  0.00  0.00    -0.467 OA
BRANCH  16  17
ATOM     17  C   UNL     1      -2.704  -9.766  10.786  0.00  0.00    +0.139 A 
ATOM     18  C   UNL     1      -2.612 -10.340  11.372  0.00  0.00    +0.037 A 
ATOM     19  C   UNL     1      -1.929 -10.352  11.834  0.00  0.00    +0.003 A 
ATOM     20  C   UNL     1      -1.337  -9.790  11.711  0.00  0.00    +0.000 A 
ATOM     21  C   UNL     1      -1.429  -9.217  11.124  0.00  0.00    +0.003 A 
ATOM     22  C   UNL     1      -2.112  -9.205  10.663  0.00  0.00    +0.037 A 
ENDBRANCH  16  17
ENDBRANCH  15  16
ENDBRANCH  14  15
ENDBRANCH  10  11
ENDBRANCH   9  10
TORSDOF 8
ENDMDL
MODEL 8
REMARK VINA RESULT:      -7.7     16.015     18.448
REMARK  Name = 
REMARK  8 active torsions:
REMARK  status: ('A' for Active; 'I' for Inactive)
REMARK    1  A    between atoms: C_2  and  C_3
REMARK    2  A    between atoms: C_3  and  C_4
REMARK    3  A    between atoms: C_9  and  C_10
REMARK    4  A    between atoms: C_10  and  C_11
REMARK    5  A    between atoms: C_14  and  C_15
REMARK    6  A    between atoms: C_15  and  O_16
REMARK    7  A    between atoms: O_16  and  C_17
REMARK    8  A    between atoms: N_24  and  C_25
REMARK                            x       y       z     vdW  Elec       q    Type
REMARK                         _______ _______ _______ _____ _____    ______ ____
ROOT
ATOM      4  C   UNL     1      14.467   8.121  18.041  0.00  0.00    +0.012 C 
ATOM      5  C   UNL     1      14.803   7.535  17.567  0.00  0.00    +0.019 C 
ATOM      6  C   UNL     1      14.426   7.299  16.873  0.00  0.00    +0.089 C 
ATOM      7  N   UNL     1      13.713   7.649  16.652  0.00  0.00    -0.218 NA
ATOM      8  C   UNL     1      13.377   8.235  17.124  0.00  0.00    +0.089 C 
ATOM      9  C   UNL     1      13.754   8.471  17.819  0.00  0.00    +0.024 C 
ENDROOT
BRANCH   4   3
ATOM      3  C   UNL     1      14.844   8.357  18.735  0.00  0.00    +0.087 C 
BRANCH   3   2
ATOM      1  O   UNL     1      15.358   7.035  18.906  0.00  0.00    -0.273 OA
ATOM      2  C   UNL     1      15.297   7.816  19.163  0.00  0.00    +0.246 C 
ATOM     24  N   UNL     1      15.689   8.057  19.847  0.00  0.00    -0.179 NA
BRANCH  24  25
ATOM     25  C   UNL     1      16.143   7.516  20.275  0.00  0.00    +0.073 A 
ATOM     26  C   UNL     1      16.948   7.435  20.115  0.00  0.00    +0.017 A 
ATOM     27  C   UNL     1      17.401   6.894  20.543  0.00  0.00    +0.001 A 
ATOM     28  C   UNL     1      17.049   6.434  21.131  0.00  0.00    +0.000 A 
ATOM     29  C   UNL     1      16.243   6.516  21.290  0.00  0.00    +0.001 A 
ATOM     30  C   UNL     1      15.790   7.057  20.863  0.00  0.00    +0.017 A 
ENDBRANCH  24  25
ENDBRANCH   3   2
ENDBRANCH   4   3
BRANCH   9  10
ATOM     10  C   UNL     1      13.418   9.057  18.292  0.00  0.00    +0.051 C 
BRANCH  10  11
ATOM     11  C   UNL     1      12.643   8.976  18.563  0.00  0.00    +0.100 A 
ATOM     12  N   UNL     1      11.960   9.024  18.102  0.00  0.00    -0.082 NA
ATOM     13  O   UNL     1      11.310   8.909  18.596  0.00  0.00    -0.354 OA
ATOM     14  C   UNL     1      11.590   8.789  19.363  0.00  0.00    +0.198 A 
ATOM     23  C   UNL     1      12.414   8.830  19.342  0.00  0.00    +0.057 A 
BRANCH  14  15
ATOM     15  C   UNL     1      11.128   8.653  20.032  0.00  0.00    +0.272 C 
BRANCH  15  16
ATOM     16  O   UNL     1      11.419   8.183  20.645  0.00  0.00    -0.467 OA
BRANCH  16  17
ATOM     17  C   UNL     1      10.997   8.119  21.351  0.00  0.00    +0.139 A 
ATOM     18  C   UNL     1      10.599   7.418  21.531  0.00  0.00    +0.037 A 
ATOM     19  C   UNL     1      10.178   7.354  22.237  0.00  0.00    +0.003 A 
ATOM     20  C   UNL     1      10.153   7.990  22.763  0.00  0.00    +0.000 A 
ATOM     21  C   UNL     1      10.551   8.690  22.582  0.00  0.00    +0.003 A 
ATOM     22  C   UNL     1      10.973   8.754  21.876  0.00  0.00    +0.037 A 
ENDBRANCH  16  17
ENDBRANCH  15  16
ENDBRANCH  14  15
ENDBRANCH  10  11
ENDBRANCH   9  10
TORSDOF 8
ENDMDL
MODEL 9
REMARK VINA RESULT:      -7.7     13.764     16.038
REMARK  Name = 
REMARK  8 active torsions:
REMARK  status: ('A' for Active; 'I' for Inactive)
REMARK    1  A    between atoms: C_2  and  C_3
REMARK    2  A    between atoms: C_3  and  C_4
REMARK    3  A    between atoms: C_9  and  C_10
REMARK    4  A    between atoms: C_10  and  C_11
REMARK    5  A    between atoms: C_14  and  C_15
REMARK    6  A    between atoms: C_15  and  O_16
REMARK    7  A    between atoms: O_16  and  C_17
REMARK    8  A    between atoms: N_24  and  C_25
REMARK                            x       y       z     vdW  Elec       q    Type
REMARK                         _______ _______ _______ _____ _____    ______ ____
ROOT
ATOM      4  C   UNL     1      -6.867  -9.938  15.980  0.00  0.00    +0.012 C 
ATOM      5  C   UNL     1      -6.630  -9.763  16.751  0.00  0.00    +0.019 C 
ATOM      6  C   UNL     1      -5.830  -9.665  16.925  0.00  0.00    +0.089 C 
ATOM      7  N   UNL     1      -5.266  -9.741  16.328  0.00  0.00    -0.218 NA
ATOM      8  C   UNL     1      -5.502  -9.915  15.557  0.00  0.00    +0.089 C 
ATOM      9  C   UNL     1      -6.303 -10.014  15.383  0.00  0.00    +0.024 C 
ENDROOT
BRANCH   4   3
ATOM      3  C   UNL     1      -7.667 -10.036  15.807  0.00  0.00    +0.087 C 
BRANCH   3   2
ATOM      1  O   UNL     1      -8.200  -9.825  17.115  0.00  0.00    -0.273 OA
ATOM      2  C   UNL     1      -8.240  -9.706  16.300  0.00  0.00    +0.246 C 
ATOM     24  N   UNL     1      -8.852  -9.258  15.978  0.00  0.00    -0.179 NA
BRANCH  24  25
ATOM     25  C   UNL     1      -9.426  -8.927  16.472  0.00  0.00    +0.073 A 
ATOM     26  C   UNL     1     -10.079  -9.376  16.704  0.00  0.00    +0.017 A 
ATOM     27  C   UNL     1     -10.651  -9.047  17.197  0.00  0.00    +0.001 A 
ATOM     28  C   UNL     1     -10.572  -8.268  17.460  0.00  0.00    +0.000 A 
ATOM     29  C   UNL     1      -9.919  -7.820  17.228  0.00  0.00    +0.001 A 
ATOM     30  C   UNL     1      -9.346  -8.150  16.734  0.00  0.00    +0.017 A 
ENDBRANCH  24  25
ENDBRANCH   3   2
ENDBRANCH   4   3
BRANCH   9  10
ATOM     10  C   UNL     1      -6.539 -10.188  14.612  0.00  0.00    +0.051 C 
BRANCH  10  11
ATOM     11  C   UNL     1      -5.978 -10.228  14.008  0.00  0.00    +0.100 A 
ATOM     12  N   UNL     1      -5.370 -10.781  13.947  0.00  0.00    -0.082 NA
ATOM     13  O   UNL     1      -4.943 -10.617  13.260  0.00  0.00    -0.354 OA
ATOM     14  C   UNL     1      -5.289  -9.962  12.896  0.00  0.00    +0.198 A 
ATOM     23  C   UNL     1      -5.929  -9.721  13.358  0.00  0.00    +0.057 A 
BRANCH  14  15
ATOM     15  C   UNL     1      -5.039  -9.609  12.194  0.00  0.00    +0.272 C 
BRANCH  15  16
ATOM     16  O   UNL     1      -4.650 -10.060  11.622  0.00  0.00    -0.467 OA
BRANCH  16  17
ATOM     17  C   UNL     1      -4.333  -9.694  10.954  0.00  0.00    +0.139 A 
ATOM     18  C   UNL     1      -3.514  -9.650  10.858  0.00  0.00    +0.037 A 
ATOM     19  C   UNL     1      -3.197  -9.284  10.191  0.00  0.00    +0.003 A 
ATOM     20  C   UNL     1      -3.698  -8.961   9.619  0.00  0.00    +0.000 A 
ATOM     21  C   UNL     1      -4.516  -9.006   9.716  0.00  0.00    +0.003 A 
ATOM     22  C   UNL     1      -4.833  -9.372  10.383  0.00  0.00    +0.037 A 
ENDBRANCH  16  17
ENDBRANCH  15  16
ENDBRANCH  14  15
ENDBRANCH  10  11
ENDBRANCH   9  10
TORSDOF 8
ENDMDL
