REMARK  Name = 
REMARK  5 active torsions:
REMARK  status: ('A' for Active; 'I' for Inactive)
REMARK    1  A    between atoms: O_2  and  C_3
REMARK    2  A    between atoms: C_4  and  C_10
REMARK    3  A    between atoms: C_19  and  N_25
REMARK    4  A    between atoms: N_28  and  C_29
REMARK    5  A    between atoms: C_29  and  C_30
REMARK                            x       y       z     vdW  Elec       q    Type
REMARK                         _______ _______ _______ _____ _____    ______ ____
ROOT
ATOM     10  C   UNL     1      -1.134   5.590   0.000  0.00  0.00    +0.003 A 
ATOM     11  C   UNL     1      -0.776   4.846   0.000  0.00  0.00    +0.006 A 
ATOM     12  C   UNL     1       0.047   4.785   0.000  0.00  0.00    +0.069 A 
ATOM     13  C   UNL     1       0.512   5.466   0.000  0.00  0.00    +0.078 A 
ATOM     14  N   UNL     1       1.334   5.528   0.000  0.00  0.00    -0.178 NA
ATOM     15  C   UNL     1       1.895   4.923   0.000  0.00  0.00    +0.264 C 
ATOM     16  O   UNL     1       2.684   5.166   0.000  0.00  0.00    -0.271 OA
ATOM     17  C   UNL     1       1.773   4.107   0.000  0.00  0.00    +0.156 C 
ATOM     18  C   UNL     1       2.487   3.695   0.000  0.00  0.00    +0.051 C 
ATOM     19  C   UNL     1       2.487   2.870   0.000  0.00  0.00    +0.101 C 
ATOM     20  C   UNL     1       1.773   2.457   0.000  0.00  0.00    +0.043 C 
ATOM     21  C   UNL     1       1.058   2.870   0.000  0.00  0.00    +0.096 C 
ATOM     22  N   UNL     1       1.058   3.695   0.000  0.00  0.00    -0.269 N 
ATOM     23  C   UNL     1       0.290   3.996   0.000  0.00  0.00    +0.251 C 
ATOM     24  O   UNL     1      -0.315   3.435   0.000  0.00  0.00    -0.270 OA
ATOM     32  C   UNL     1       0.154   6.210   0.000  0.00  0.00    +0.017 A 
ATOM     33  C   UNL     1      -0.669   6.271   0.000  0.00  0.00    +0.001 A 
ENDROOT
BRANCH  10   4
ATOM      3  C   UNL     1      -2.314   6.395   0.000  0.00  0.00    +0.139 A 
ATOM      4  C   UNL     1      -1.956   5.651   0.000  0.00  0.00    +0.035 A 
ATOM      5  C   UNL     1      -2.421   4.970   0.000  0.00  0.00    +0.014 A 
ATOM      6  C   UNL     1      -3.244   5.031   0.000  0.00  0.00    +0.058 A 
ATOM      7 CL   UNL     1      -3.709   4.350   0.000  0.00  0.00    -0.082 Cl
ATOM      8  C   UNL     1      -3.602   5.775   0.000  0.00  0.00    +0.015 A 
ATOM      9  C   UNL     1      -3.137   6.456   0.000  0.00  0.00    +0.038 A 
BRANCH   3   2
ATOM      1  C   UNL     1      -2.208   7.819   0.000  0.00  0.00    +0.252 C 
ATOM      2  O   UNL     1      -1.850   7.076   0.000  0.00  0.00    -0.471 OA
ENDBRANCH   3   2
ENDBRANCH  10   4
BRANCH  19  25
ATOM     25  N   UNL     1       3.201   2.457   0.000  0.00  0.00    -0.189 NA
ATOM     26  C   UNL     1       3.916   2.870   0.000  0.00  0.00    +0.340 C 
ATOM     27  O   UNL     1       3.916   3.695   0.000  0.00  0.00    -0.249 OA
ATOM     28  N   UNL     1       4.630   2.457   0.000  0.00  0.00    -0.182 NA
BRANCH  28  29
ATOM     29  C   UNL     1       5.345   2.870   0.000  0.00  0.00    +0.143 C 
BRANCH  29  30
ATOM     30  C   UNL     1       6.059   2.457   0.000  0.00  0.00    -0.003 C 
ATOM     31  C   UNL     1       6.774   2.870   0.000  0.00  0.00    -0.003 C 
ENDBRANCH  29  30
ENDBRANCH  28  29
ENDBRANCH  19  25
TORSDOF 5
