MODEL 1
REMARK VINA RESULT:      -9.3      0.000      0.000
REMARK  Name = 
REMARK  5 active torsions:
REMARK  status: ('A' for Active; 'I' for Inactive)
REMARK    1  A    between atoms: O_2  and  C_3
REMARK    2  A    between atoms: C_3  and  C_4
REMARK    3  A    between atoms: C_4  and  N_5
REMARK    4  A    between atoms: N_9  and  C_10
REMARK    5  A    between atoms: C_10  and  C_11
REMARK                            x       y       z     vdW  Elec       q    Type
REMARK                         _______ _______ _______ _____ _____    ______ ____
ROOT
ATOM      5  N   UNL     1      -3.387   3.081  25.150  0.00  0.00    -0.260 N 
ATOM      6  C   UNL     1      -2.975   2.503  24.727  0.00  0.00    +0.116 C 
ATOM      7  C   UNL     1      -3.468   1.847  24.647  0.00  0.00    +0.113 C 
ATOM      8  C   UNL     1      -3.358   1.115  24.283  0.00  0.00    +0.094 C 
ATOM      9  N   UNL     1      -3.962   0.555  24.291  0.00  0.00    -0.266 NA
ATOM     18  C   UNL     1      -4.678   0.726  24.663  0.00  0.00    +0.094 C 
ATOM     19  C   UNL     1      -4.789   1.458  25.028  0.00  0.00    +0.112 C 
ATOM     20  N   UNL     1      -4.184   2.019  25.019  0.00  0.00    -0.261 N 
ATOM     21  C   UNL     1      -4.134   2.781  25.330  0.00  0.00    +0.307 C 
ATOM     22  O   UNL     1      -4.727   3.174  25.748  0.00  0.00    -0.252 OA
ENDROOT
BRANCH   5   4
ATOM      4  C   UNL     1      -3.102   3.827  25.355  0.00  0.00    +0.127 C 
BRANCH   4   3
ATOM      3  C   UNL     1      -2.315   4.024  25.204  0.00  0.00    +0.164 C 
BRANCH   3   2
ATOM      1  C   UNL     1      -1.359   5.082  25.110  0.00  0.00    +0.174 C 
ATOM      2  O   UNL     1      -2.005   4.735  25.488  0.00  0.00    -0.349 OA
ENDBRANCH   3   2
ENDBRANCH   4   3
ENDBRANCH   5   4
BRANCH   9  10
ATOM     10  C   UNL     1      -3.852  -0.178  23.927  0.00  0.00    +0.102 C 
BRANCH  10  11
ATOM     11  C   UNL     1      -3.738  -0.853  24.385  0.00  0.00    +0.024 A 
ATOM     12  C   UNL     1      -3.385  -0.794  25.128  0.00  0.00    +0.020 A 
ATOM     13  C   UNL     1      -3.271  -1.470  25.586  0.00  0.00    +0.099 A 
ATOM     14  N   UNL     1      -3.509  -2.207  25.301  0.00  0.00    -0.240 NA
ATOM     15  C   UNL     1      -3.862  -2.267  24.558  0.00  0.00    +0.128 A 
ATOM     16  C   UNL     1      -3.976  -1.590  24.099  0.00  0.00    +0.157 A 
ATOM     17  F   UNL     1      -4.329  -1.650  23.356  0.00  0.00    -0.203 F 
ENDBRANCH  10  11
ENDBRANCH   9  10
TORSDOF 5
ENDMDL
MODEL 2
REMARK VINA RESULT:      -8.6      2.153      2.746
REMARK  Name = 
REMARK  5 active torsions:
REMARK  status: ('A' for Active; 'I' for Inactive)
REMARK    1  A    between atoms: O_2  and  C_3
REMARK    2  A    between atoms: C_3  and  C_4
REMARK    3  A    between atoms: C_4  and  N_5
REMARK    4  A    between atoms: N_9  and  C_10
REMARK    5  A    between atoms: C_10  and  C_11
REMARK                            x       y       z     vdW  Elec       q    Type
REMARK                         _______ _______ _______ _____ _____    ______ ____
ROOT
ATOM      5  N   UNL     1      -0.682   1.702  24.849  0.00  0.00    -0.260 N 
ATOM      6  C   UNL     1      -1.357   1.446  25.250  0.00  0.00    +0.116 C 
ATOM      7  C   UNL     1      -1.443   0.638  25.113  0.00  0.00    +0.113 C 
ATOM      8  C   UNL     1      -2.007   0.091  25.367  0.00  0.00    +0.094 C 
ATOM      9  N   UNL     1      -1.950  -0.698  25.136  0.00  0.00    -0.266 NA
ATOM     18  C   UNL     1      -1.329  -0.942  24.651  0.00  0.00    +0.094 C 
ATOM     19  C   UNL     1      -0.765  -0.397  24.397  0.00  0.00    +0.112 C 
ATOM     20  N   UNL     1      -0.822   0.394  24.628  0.00  0.00    -0.261 N 
ATOM     21  C   UNL     1      -0.352   1.051  24.465  0.00  0.00    +0.307 C 
ATOM     22  O   UNL     1       0.330   1.057  24.000  0.00  0.00    -0.252 OA
ENDROOT
BRANCH   5   4
ATOM      4  C   UNL     1      -0.390   2.473  24.836  0.00  0.00    +0.127 C 
BRANCH   4   3
ATOM      3  C   UNL     1      -0.889   3.107  25.006  0.00  0.00    +0.164 C 
BRANCH   3   2
ATOM      1  C   UNL     1      -1.103   4.517  25.100  0.00  0.00    +0.174 C 
ATOM      2  O   UNL     1      -0.589   3.876  25.025  0.00  0.00    -0.349 OA
ENDBRANCH   3   2
ENDBRANCH   4   3
ENDBRANCH   5   4
BRANCH   9  10
ATOM     10  C   UNL     1      -2.514  -1.245  25.390  0.00  0.00    +0.102 C 
BRANCH  10  11
ATOM     11  C   UNL     1      -3.114  -1.487  24.879  0.00  0.00    +0.024 A 
ATOM     12  C   UNL     1      -3.579  -0.925  24.493  0.00  0.00    +0.020 A 
ATOM     13  C   UNL     1      -4.179  -1.167  23.982  0.00  0.00    +0.099 A 
ATOM     14  N   UNL     1      -4.315  -1.971  23.857  0.00  0.00    -0.240 NA
ATOM     15  C   UNL     1      -3.850  -2.533  24.242  0.00  0.00    +0.128 A 
ATOM     16  C   UNL     1      -3.249  -2.291  24.754  0.00  0.00    +0.157 A 
ATOM     17  F   UNL     1      -2.785  -2.853  25.140  0.00  0.00    -0.203 F 
ENDBRANCH  10  11
ENDBRANCH   9  10
TORSDOF 5
ENDMDL
MODEL 3
REMARK VINA RESULT:      -8.5      2.384      4.040
REMARK  Name = 
REMARK  5 active torsions:
REMARK  status: ('A' for Active; 'I' for Inactive)
REMARK    1  A    between atoms: O_2  and  C_3
REMARK    2  A    between atoms: C_3  and  C_4
REMARK    3  A    between atoms: C_4  and  N_5
REMARK    4  A    between atoms: N_9  and  C_10
REMARK    5  A    between atoms: C_10  and  C_11
REMARK                            x       y       z     vdW  Elec       q    Type
REMARK                         _______ _______ _______ _____ _____    ______ ____
ROOT
ATOM      5  N   UNL     1      -1.347   0.645  24.396  0.00  0.00    -0.260 N 
ATOM      6  C   UNL     1      -2.147   0.487  24.521  0.00  0.00    +0.116 C 
ATOM      7  C   UNL     1      -2.576   1.157  24.303  0.00  0.00    +0.113 C 
ATOM      8  C   UNL     1      -3.384   1.321  24.308  0.00  0.00    +0.094 C 
ATOM      9  N   UNL     1      -3.658   2.055  24.052  0.00  0.00    -0.266 NA
ATOM     18  C   UNL     1      -3.123   2.627  23.792  0.00  0.00    +0.094 C 
ATOM     19  C   UNL     1      -2.314   2.464  23.787  0.00  0.00    +0.112 C 
ATOM     20  N   UNL     1      -2.041   1.728  24.043  0.00  0.00    -0.261 N 
ATOM     21  C   UNL     1      -1.282   1.412  24.100  0.00  0.00    +0.307 C 
ATOM     22  O   UNL     1      -0.579   1.795  23.897  0.00  0.00    -0.252 OA
ENDROOT
BRANCH   5   4
ATOM      4  C   UNL     1      -0.722   0.126  24.541  0.00  0.00    +0.127 C 
BRANCH   4   3
ATOM      3  C   UNL     1      -0.874  -0.635  24.821  0.00  0.00    +0.164 C 
BRANCH   3   2
ATOM      1  C   UNL     1      -0.393  -1.892  25.300  0.00  0.00    +0.174 C 
ATOM      2  O   UNL     1      -0.251  -1.162  24.942  0.00  0.00    -0.349 OA
ENDBRANCH   3   2
ENDBRANCH   4   3
ENDBRANCH   5   4
BRANCH   9  10
ATOM     10  C   UNL     1      -4.467   2.220  24.057  0.00  0.00    +0.102 C 
BRANCH  10  11
ATOM     11  C   UNL     1      -4.827   2.503  24.742  0.00  0.00    +0.024 A 
ATOM     12  C   UNL     1      -4.533   3.178  25.114  0.00  0.00    +0.020 A 
ATOM     13  C   UNL     1      -4.893   3.462  25.799  0.00  0.00    +0.099 A 
ATOM     14  N   UNL     1      -5.548   3.070  26.113  0.00  0.00    -0.240 NA
ATOM     15  C   UNL     1      -5.842   2.396  25.742  0.00  0.00    +0.128 A 
ATOM     16  C   UNL     1      -5.482   2.112  25.056  0.00  0.00    +0.157 A 
ATOM     17  F   UNL     1      -5.776   1.437  24.684  0.00  0.00    -0.203 F 
ENDBRANCH  10  11
ENDBRANCH   9  10
TORSDOF 5
ENDMDL
MODEL 4
REMARK VINA RESULT:      -8.3      3.282      5.472
REMARK  Name = 
REMARK  5 active torsions:
REMARK  status: ('A' for Active; 'I' for Inactive)
REMARK    1  A    between atoms: O_2  and  C_3
REMARK    2  A    between atoms: C_3  and  C_4
REMARK    3  A    between atoms: C_4  and  N_5
REMARK    4  A    between atoms: N_9  and  C_10
REMARK    5  A    between atoms: C_10  and  C_11
REMARK                            x       y       z     vdW  Elec       q    Type
REMARK                         _______ _______ _______ _____ _____    ______ ____
ROOT
ATOM      5  N   UNL     1      -0.717  -0.371  24.684  0.00  0.00    -0.260 N 
ATOM      6  C   UNL     1      -1.022   0.105  25.285  0.00  0.00    +0.116 C 
ATOM      7  C   UNL     1      -0.752   0.874  25.163  0.00  0.00    +0.113 C 
ATOM      8  C   UNL     1      -0.875   1.576  25.580  0.00  0.00    +0.094 C 
ATOM      9  N   UNL     1      -0.526   2.276  25.321  0.00  0.00    -0.266 NA
ATOM     18  C   UNL     1      -0.054   2.276  24.644  0.00  0.00    +0.094 C 
ATOM     19  C   UNL     1       0.069   1.576  24.226  0.00  0.00    +0.112 C 
ATOM     20  N   UNL     1      -0.280   0.874  24.486  0.00  0.00    -0.261 N 
ATOM     21  C   UNL     1      -0.259   0.105  24.190  0.00  0.00    +0.307 C 
ATOM     22  O   UNL     1       0.150  -0.145  23.518  0.00  0.00    -0.252 OA
ENDROOT
BRANCH   5   4
ATOM      4  C   UNL     1      -0.847  -1.180  24.593  0.00  0.00    +0.127 C 
BRANCH   4   3
ATOM      3  C   UNL     1      -1.590  -1.500  24.755  0.00  0.00    +0.164 C 
BRANCH   3   2
ATOM      1  C   UNL     1      -2.520  -2.570  24.578  0.00  0.00    +0.174 C 
ATOM      2  O   UNL     1      -1.742  -2.295  24.595  0.00  0.00    -0.349 OA
ENDBRANCH   3   2
ENDBRANCH   4   3
ENDBRANCH   5   4
BRANCH   9  10
ATOM     10  C   UNL     1      -0.648   2.978  25.738  0.00  0.00    +0.102 C 
BRANCH  10  11
ATOM     11  C   UNL     1      -1.270   3.478  25.531  0.00  0.00    +0.024 A 
ATOM     12  C   UNL     1      -2.046   3.197  25.538  0.00  0.00    +0.020 A 
ATOM     13  C   UNL     1      -2.668   3.697  25.331  0.00  0.00    +0.099 A 
ATOM     14  N   UNL     1      -2.515   4.479  25.117  0.00  0.00    -0.240 NA
ATOM     15  C   UNL     1      -1.740   4.761  25.110  0.00  0.00    +0.128 A 
ATOM     16  C   UNL     1      -1.117   4.260  25.317  0.00  0.00    +0.157 A 
ATOM     17  F   UNL     1      -0.342   4.542  25.310  0.00  0.00    -0.203 F 
ENDBRANCH  10  11
ENDBRANCH   9  10
TORSDOF 5
ENDMDL
MODEL 5
REMARK VINA RESULT:      -8.2      3.171      3.800
REMARK  Name = 
REMARK  5 active torsions:
REMARK  status: ('A' for Active; 'I' for Inactive)
REMARK    1  A    between atoms: O_2  and  C_3
REMARK    2  A    between atoms: C_3  and  C_4
REMARK    3  A    between atoms: C_4  and  N_5
REMARK    4  A    between atoms: N_9  and  C_10
REMARK    5  A    between atoms: C_10  and  C_11
REMARK                            x       y       z     vdW  Elec       q    Type
REMARK                         _______ _______ _______ _____ _____    ______ ____
ROOT
ATOM      5  N   UNL     1       0.101   0.313  23.784  0.00  0.00    -0.260 N 
ATOM      6  C   UNL     1      -0.210  -0.446  23.878  0.00  0.00    +0.116 C 
ATOM      7  C   UNL     1      -0.887  -0.388  24.344  0.00  0.00    +0.113 C 
ATOM      8  C   UNL     1      -1.421  -0.955  24.616  0.00  0.00    +0.094 C 
ATOM      9  N   UNL     1      -2.061  -0.729  25.083  0.00  0.00    -0.266 NA
ATOM     18  C   UNL     1      -2.170   0.065  25.278  0.00  0.00    +0.094 C 
ATOM     19  C   UNL     1      -1.637   0.633  25.006  0.00  0.00    +0.112 C 
ATOM     20  N   UNL     1      -0.996   0.407  24.539  0.00  0.00    -0.261 N 
ATOM     21  C   UNL     1      -0.385   0.840  24.193  0.00  0.00    +0.307 C 
ATOM     22  O   UNL     1      -0.278   1.656  24.247  0.00  0.00    -0.252 OA
ENDROOT
BRANCH   5   4
ATOM      4  C   UNL     1       0.779   0.511  23.357  0.00  0.00    +0.127 C 
BRANCH   4   3
ATOM      3  C   UNL     1       1.261  -0.084  23.050  0.00  0.00    +0.164 C 
BRANCH   3   2
ATOM      1  C   UNL     1       2.596   0.059  22.562  0.00  0.00    +0.174 C 
ATOM      2  O   UNL     1       1.782   0.084  22.432  0.00  0.00    -0.349 OA
ENDBRANCH   3   2
ENDBRANCH   4   3
ENDBRANCH   5   4
BRANCH   9  10
ATOM     10  C   UNL     1      -2.595  -1.297  25.356  0.00  0.00    +0.102 C 
BRANCH  10  11
ATOM     11  C   UNL     1      -3.188  -1.579  24.858  0.00  0.00    +0.024 A 
ATOM     12  C   UNL     1      -3.690  -1.049  24.472  0.00  0.00    +0.020 A 
ATOM     13  C   UNL     1      -4.284  -1.331  23.974  0.00  0.00    +0.099 A 
ATOM     14  N   UNL     1      -4.376  -2.143  23.861  0.00  0.00    -0.240 NA
ATOM     15  C   UNL     1      -3.875  -2.673  24.246  0.00  0.00    +0.128 A 
ATOM     16  C   UNL     1      -3.280  -2.391  24.745  0.00  0.00    +0.157 A 
ATOM     17  F   UNL     1      -2.779  -2.921  25.130  0.00  0.00    -0.203 F 
ENDBRANCH  10  11
ENDBRANCH   9  10
TORSDOF 5
ENDMDL
