MODEL 1
REMARK VINA RESULT:     -13.6      0.000      0.000
REMARK  Name = 
REMARK  3 active torsions:
REMARK  status: ('A' for Active; 'I' for Inactive)
REMARK    1  A    between atoms: C_2  and  C_5
REMARK    2  A    between atoms: C_9  and  C_11
REMARK    3  A    between atoms: C_26  and  C_28
REMARK                            x       y       z     vdW  Elec       q    Type
REMARK                         _______ _______ _______ _____ _____    ______ ____
ROOT
ATOM     11  C   UNL     1      -4.136  -0.626  24.569  0.00  0.00    +0.000 A 
ATOM     12  C   UNL     1      -3.561  -0.036  24.536  0.00  0.00    +0.006 A 
ATOM     13  C   UNL     1      -3.747   0.733  24.771  0.00  0.00    +0.069 A 
ATOM     14  C   UNL     1      -4.507   0.911  25.039  0.00  0.00    +0.078 A 
ATOM     15  N   UNL     1      -4.805   1.636  25.297  0.00  0.00    -0.178 NA
ATOM     16  C   UNL     1      -4.416   2.362  25.351  0.00  0.00    +0.265 C 
ATOM     17  O   UNL     1      -4.870   2.990  25.633  0.00  0.00    -0.271 OA
ATOM     18  C   UNL     1      -3.634   2.542  25.161  0.00  0.00    +0.174 C 
ATOM     19  C   UNL     1      -3.466   3.339  25.297  0.00  0.00    +0.123 C 
ATOM     20  N   UNL     1      -2.712   3.633  25.142  0.00  0.00    -0.276 N 
ATOM     21  C   UNL     1      -2.125   3.133  24.851  0.00  0.00    +0.115 C 
ATOM     22  C   UNL     1      -2.292   2.336  24.714  0.00  0.00    +0.116 C 
ATOM     23  N   UNL     1      -3.047   2.042  24.869  0.00  0.00    -0.266 N 
ATOM     24  C   UNL     1      -3.097   1.236  24.696  0.00  0.00    +0.251 C 
ATOM     25  O   UNL     1      -2.407   0.888  24.409  0.00  0.00    -0.270 OA
ATOM     26  C   UNL     1      -2.544   4.430  25.278  0.00  0.00    +0.225 C 
ATOM     27  O   UNL     1      -3.132   4.931  25.570  0.00  0.00    -0.275 OA
ATOM     34  C   UNL     1      -5.081   0.320  25.071  0.00  0.00    +0.017 A 
ATOM     35  C   UNL     1      -4.896  -0.449  24.836  0.00  0.00    +0.001 A 
ENDROOT
BRANCH  11   9
ATOM      5  C   UNL     1      -3.072  -2.522  24.367  0.00  0.00    +0.071 A 
ATOM      6  C   UNL     1      -3.580  -2.933  23.865  0.00  0.00    +0.004 A 
ATOM      7  C   UNL     1      -4.275  -2.576  23.597  0.00  0.00    -0.000 A 
ATOM      8  C   UNL     1      -4.460  -1.807  23.832  0.00  0.00    -0.000 A 
ATOM      9  C   UNL     1      -3.951  -1.395  24.334  0.00  0.00    -0.000 A 
ATOM     10  C   UNL     1      -3.257  -1.753  24.602  0.00  0.00    +0.004 A 
BRANCH   5   2
ATOM      1  F   UNL     1      -1.683  -3.235  24.902  0.00  0.00    -0.166 F 
ATOM      2  C   UNL     1      -2.378  -2.878  24.635  0.00  0.00    +0.419 C 
ATOM      3  F   UNL     1      -2.737  -3.034  25.361  0.00  0.00    -0.166 F 
ATOM      4  F   UNL     1      -2.018  -2.722  23.909  0.00  0.00    -0.166 F 
ENDBRANCH   5   2
ENDBRANCH  11   9
BRANCH  26  28
ATOM     28  C   UNL     1      -1.790   4.725  25.123  0.00  0.00    +0.080 C 
ATOM     29  C   UNL     1      -1.699   5.406  24.666  0.00  0.00    +0.028 C 
ATOM     30  C   UNL     1      -0.945   5.701  24.510  0.00  0.00    +0.089 C 
ATOM     31  N   UNL     1      -0.281   5.316  24.812  0.00  0.00    -0.218 NA
ATOM     32  C   UNL     1      -0.372   4.635  25.269  0.00  0.00    +0.089 C 
ATOM     33  C   UNL     1      -1.126   4.340  25.425  0.00  0.00    +0.028 C 
ENDBRANCH  26  28
TORSDOF 3
ENDMDL
MODEL 2
REMARK VINA RESULT:     -13.0      3.017      6.395
REMARK  Name = 
REMARK  3 active torsions:
REMARK  status: ('A' for Active; 'I' for Inactive)
REMARK    1  A    between atoms: C_2  and  C_5
REMARK    2  A    between atoms: C_9  and  C_11
REMARK    3  A    between atoms: C_26  and  C_28
REMARK                            x       y       z     vdW  Elec       q    Type
REMARK                         _______ _______ _______ _____ _____    ______ ____
ROOT
ATOM     11  C   UNL     1      -0.803   3.033  24.799  0.00  0.00    +0.000 A 
ATOM     12  C   UNL     1      -1.330   2.399  24.818  0.00  0.00    +0.006 A 
ATOM     13  C   UNL     1      -1.058   1.633  24.670  0.00  0.00    +0.069 A 
ATOM     14  C   UNL     1      -0.260   1.504  24.505  0.00  0.00    +0.078 A 
ATOM     15  N   UNL     1       0.122   0.790  24.344  0.00  0.00    -0.178 NA
ATOM     16  C   UNL     1      -0.199   0.031  24.308  0.00  0.00    +0.265 C 
ATOM     17  O   UNL     1       0.333  -0.575  24.133  0.00  0.00    -0.271 OA
ATOM     18  C   UNL     1      -0.981  -0.203  24.426  0.00  0.00    +0.174 C 
ATOM     19  C   UNL     1      -1.068  -1.019  24.339  0.00  0.00    +0.123 C 
ATOM     20  N   UNL     1      -1.810  -1.367  24.434  0.00  0.00    -0.276 N 
ATOM     21  C   UNL     1      -2.465  -0.899  24.616  0.00  0.00    +0.115 C 
ATOM     22  C   UNL     1      -2.378  -0.083  24.702  0.00  0.00    +0.116 C 
ATOM     23  N   UNL     1      -1.636   0.264  24.607  0.00  0.00    -0.266 N 
ATOM     24  C   UNL     1      -1.670   1.082  24.716  0.00  0.00    +0.251 C 
ATOM     25  O   UNL     1      -2.415   1.389  24.894  0.00  0.00    -0.270 OA
ATOM     26  C   UNL     1      -1.897  -2.183  24.348  0.00  0.00    +0.225 C 
ATOM     27  O   UNL     1      -1.241  -2.650  24.167  0.00  0.00    -0.275 OA
ATOM     34  C   UNL     1       0.266   2.139  24.486  0.00  0.00    +0.017 A 
ATOM     35  C   UNL     1      -0.006   2.904  24.633  0.00  0.00    +0.001 A 
ENDROOT
BRANCH  11   9
ATOM      5  C   UNL     1      -2.075   4.679  25.464  0.00  0.00    +0.071 A 
ATOM      6  C   UNL     1      -1.619   5.328  25.240  0.00  0.00    +0.004 A 
ATOM      7  C   UNL     1      -0.890   5.213  24.868  0.00  0.00    -0.000 A 
ATOM      8  C   UNL     1      -0.619   4.448  24.721  0.00  0.00    -0.000 A 
ATOM      9  C   UNL     1      -1.075   3.798  24.946  0.00  0.00    -0.000 A 
ATOM     10  C   UNL     1      -1.803   3.913  25.317  0.00  0.00    +0.004 A 
BRANCH   5   2
ATOM      1  F   UNL     1      -3.531   4.908  26.206  0.00  0.00    -0.166 F 
ATOM      2  C   UNL     1      -2.802   4.793  25.835  0.00  0.00    +0.419 C 
ATOM      3  F   UNL     1      -2.433   4.757  26.572  0.00  0.00    -0.166 F 
ATOM      4  F   UNL     1      -3.172   4.830  25.098  0.00  0.00    -0.166 F 
ENDBRANCH   5   2
ENDBRANCH  11   9
BRANCH  26  28
ATOM     28  C   UNL     1      -2.638  -2.530  24.443  0.00  0.00    +0.080 C 
ATOM     29  C   UNL     1      -2.867  -2.820  25.182  0.00  0.00    +0.028 C 
ATOM     30  C   UNL     1      -3.609  -3.168  25.277  0.00  0.00    +0.089 C 
ATOM     31  N   UNL     1      -4.122  -3.226  24.635  0.00  0.00    -0.218 NA
ATOM     32  C   UNL     1      -3.895  -2.937  23.897  0.00  0.00    +0.089 C 
ATOM     33  C   UNL     1      -3.153  -2.589  23.801  0.00  0.00    +0.028 C 
ENDBRANCH  26  28
TORSDOF 3
ENDMDL
MODEL 3
REMARK VINA RESULT:     -12.5      1.803      2.660
REMARK  Name = 
REMARK  3 active torsions:
REMARK  status: ('A' for Active; 'I' for Inactive)
REMARK    1  A    between atoms: C_2  and  C_5
REMARK    2  A    between atoms: C_9  and  C_11
REMARK    3  A    between atoms: C_26  and  C_28
REMARK                            x       y       z     vdW  Elec       q    Type
REMARK                         _______ _______ _______ _____ _____    ______ ____
ROOT
ATOM     11  C   UNL     1      -1.983  -1.346  24.692  0.00  0.00    +0.000 A 
ATOM     12  C   UNL     1      -2.168  -0.550  24.800  0.00  0.00    +0.006 A 
ATOM     13  C   UNL     1      -1.578   0.024  24.735  0.00  0.00    +0.069 A 
ATOM     14  C   UNL     1      -0.803  -0.200  24.561  0.00  0.00    +0.078 A 
ATOM     15  N   UNL     1      -0.137   0.279  24.472  0.00  0.00    -0.178 NA
ATOM     16  C   UNL     1      -0.082   1.100  24.535  0.00  0.00    +0.265 C 
ATOM     17  O   UNL     1       0.669   1.418  24.415  0.00  0.00    -0.271 OA
ATOM     18  C   UNL     1      -0.678   1.644  24.702  0.00  0.00    +0.174 C 
ATOM     19  C   UNL     1      -0.388   2.417  24.714  0.00  0.00    +0.123 C 
ATOM     20  N   UNL     1      -0.896   3.046  24.872  0.00  0.00    -0.276 N 
ATOM     21  C   UNL     1      -1.695   2.905  25.018  0.00  0.00    +0.115 C 
ATOM     22  C   UNL     1      -1.987   2.132  25.006  0.00  0.00    +0.116 C 
ATOM     23  N   UNL     1      -1.478   1.503  24.848  0.00  0.00    -0.266 N 
ATOM     24  C   UNL     1      -1.878   0.781  24.863  0.00  0.00    +0.251 C 
ATOM     25  O   UNL     1      -2.686   0.823  25.027  0.00  0.00    -0.270 OA
ATOM     26  C   UNL     1      -0.605   3.819  24.884  0.00  0.00    +0.225 C 
ATOM     27  O   UNL     1       0.195   3.960  24.738  0.00  0.00    -0.275 OA
ATOM     34  C   UNL     1      -0.618  -0.997  24.452  0.00  0.00    +0.017 A 
ATOM     35  C   UNL     1      -1.208  -1.570  24.518  0.00  0.00    +0.001 A 
ENDROOT
BRANCH  11   9
ATOM      5  C   UNL     1      -3.779  -2.514  24.274  0.00  0.00    +0.071 A 
ATOM      6  C   UNL     1      -3.752  -3.065  24.886  0.00  0.00    +0.004 A 
ATOM      7  C   UNL     1      -3.136  -3.044  25.435  0.00  0.00    -0.000 A 
ATOM      8  C   UNL     1      -2.546  -2.470  25.370  0.00  0.00    -0.000 A 
ATOM      9  C   UNL     1      -2.572  -1.919  24.757  0.00  0.00    -0.000 A 
ATOM     10  C   UNL     1      -3.189  -1.941  24.208  0.00  0.00    +0.004 A 
BRANCH   5   2
ATOM      1  F   UNL     1      -5.011  -2.558  23.177  0.00  0.00    -0.166 F 
ATOM      2  C   UNL     1      -4.395  -2.535  23.726  0.00  0.00    +0.419 C 
ATOM      3  F   UNL     1      -4.684  -1.822  24.021  0.00  0.00    -0.166 F 
ATOM      4  F   UNL     1      -4.106  -3.250  23.429  0.00  0.00    -0.166 F 
ENDBRANCH   5   2
ENDBRANCH  11   9
BRANCH  26  28
ATOM     28  C   UNL     1      -1.114   4.448  25.042  0.00  0.00    +0.080 C 
ATOM     29  C   UNL     1      -1.082   5.131  24.578  0.00  0.00    +0.028 C 
ATOM     30  C   UNL     1      -1.590   5.761  24.735  0.00  0.00    +0.089 C 
ATOM     31  N   UNL     1      -2.131   5.709  25.356  0.00  0.00    -0.218 NA
ATOM     32  C   UNL     1      -2.163   5.027  25.819  0.00  0.00    +0.089 C 
ATOM     33  C   UNL     1      -1.655   4.397  25.662  0.00  0.00    +0.028 C 
ENDBRANCH  26  28
TORSDOF 3
ENDMDL
MODEL 4
REMARK VINA RESULT:     -11.9      3.532      4.891
REMARK  Name = 
REMARK  3 active torsions:
REMARK  status: ('A' for Active; 'I' for Inactive)
REMARK    1  A    between atoms: C_2  and  C_5
REMARK    2  A    between atoms: C_9  and  C_11
REMARK    3  A    between atoms: C_26  and  C_28
REMARK                            x       y       z     vdW  Elec       q    Type
REMARK                         _______ _______ _______ _____ _____    ______ ____
ROOT
ATOM     11  C   UNL     1      -4.127   0.810  25.090  0.00  0.00    +0.000 A 
ATOM     12  C   UNL     1      -3.407   0.954  24.715  0.00  0.00    +0.006 A 
ATOM     13  C   UNL     1      -2.810   0.383  24.736  0.00  0.00    +0.069 A 
ATOM     14  C   UNL     1      -2.936  -0.330  25.132  0.00  0.00    +0.078 A 
ATOM     15  N   UNL     1      -2.418  -0.967  25.218  0.00  0.00    -0.178 NA
ATOM     16  C   UNL     1      -1.649  -1.048  24.931  0.00  0.00    +0.265 C 
ATOM     17  O   UNL     1      -1.273  -1.759  25.112  0.00  0.00    -0.271 OA
ATOM     18  C   UNL     1      -1.207  -0.513  24.486  0.00  0.00    +0.174 C 
ATOM     19  C   UNL     1      -0.458  -0.811  24.311  0.00  0.00    +0.123 C 
ATOM     20  N   UNL     1       0.073  -0.361  23.870  0.00  0.00    -0.276 N 
ATOM     21  C   UNL     1      -0.144   0.388  23.602  0.00  0.00    +0.115 C 
ATOM     22  C   UNL     1      -0.893   0.688  23.777  0.00  0.00    +0.116 C 
ATOM     23  N   UNL     1      -1.424   0.237  24.218  0.00  0.00    -0.266 N 
ATOM     24  C   UNL     1      -2.138   0.636  24.330  0.00  0.00    +0.251 C 
ATOM     25  O   UNL     1      -2.186   1.386  23.990  0.00  0.00    -0.270 OA
ATOM     26  C   UNL     1       0.822  -0.660  23.695  0.00  0.00    +0.225 C 
ATOM     27  O   UNL     1       1.039  -1.410  23.963  0.00  0.00    -0.275 OA
ATOM     34  C   UNL     1      -3.656  -0.473  25.506  0.00  0.00    +0.017 A 
ATOM     35  C   UNL     1      -4.252   0.097  25.486  0.00  0.00    +0.001 A 
ENDROOT
BRANCH  11   9
ATOM      5  C   UNL     1      -5.160   2.723  25.292  0.00  0.00    +0.071 A 
ATOM      6  C   UNL     1      -5.915   2.521  25.030  0.00  0.00    +0.004 A 
ATOM      7  C   UNL     1      -6.075   1.748  24.787  0.00  0.00    -0.000 A 
ATOM      8  C   UNL     1      -5.479   1.178  24.808  0.00  0.00    -0.000 A 
ATOM      9  C   UNL     1      -4.723   1.380  25.070  0.00  0.00    -0.000 A 
ATOM     10  C   UNL     1      -4.564   2.153  25.312  0.00  0.00    +0.004 A 
BRANCH   5   2
ATOM      1  F   UNL     1      -4.840   4.268  25.775  0.00  0.00    -0.166 F 
ATOM      2  C   UNL     1      -5.000   3.495  25.534  0.00  0.00    +0.419 C 
ATOM      3  F   UNL     1      -5.174   3.288  26.313  0.00  0.00    -0.166 F 
ATOM      4  F   UNL     1      -4.826   3.703  24.754  0.00  0.00    -0.166 F 
ENDBRANCH   5   2
ENDBRANCH  11   9
BRANCH  26  28
ATOM     28  C   UNL     1       1.353  -0.209  23.254  0.00  0.00    +0.080 C 
ATOM     29  C   UNL     1       1.479  -0.383  22.456  0.00  0.00    +0.028 C 
ATOM     30  C   UNL     1       2.010   0.067  22.014  0.00  0.00    +0.089 C 
ATOM     31  N   UNL     1       2.415   0.692  22.369  0.00  0.00    -0.218 NA
ATOM     32  C   UNL     1       2.290   0.866  23.165  0.00  0.00    +0.089 C 
ATOM     33  C   UNL     1       1.759   0.415  23.607  0.00  0.00    +0.028 C 
ENDBRANCH  26  28
TORSDOF 3
ENDMDL
MODEL 5
REMARK VINA RESULT:     -11.9      2.619      5.843
REMARK  Name = 
REMARK  3 active torsions:
REMARK  status: ('A' for Active; 'I' for Inactive)
REMARK    1  A    between atoms: C_2  and  C_5
REMARK    2  A    between atoms: C_9  and  C_11
REMARK    3  A    between atoms: C_26  and  C_28
REMARK                            x       y       z     vdW  Elec       q    Type
REMARK                         _______ _______ _______ _____ _____    ______ ____
ROOT
ATOM     11  C   UNL     1      -2.979   3.766  24.931  0.00  0.00    +0.000 A 
ATOM     12  C   UNL     1      -2.781   2.966  24.899  0.00  0.00    +0.006 A 
ATOM     13  C   UNL     1      -3.375   2.397  24.824  0.00  0.00    +0.069 A 
ATOM     14  C   UNL     1      -4.165   2.630  24.780  0.00  0.00    +0.078 A 
ATOM     15  N   UNL     1      -4.836   2.156  24.705  0.00  0.00    -0.178 NA
ATOM     16  C   UNL     1      -4.883   1.334  24.654  0.00  0.00    +0.265 C 
ATOM     17  O   UNL     1      -5.644   1.022  24.581  0.00  0.00    -0.271 OA
ATOM     18  C   UNL     1      -4.270   0.782  24.666  0.00  0.00    +0.174 C 
ATOM     19  C   UNL     1      -4.557   0.011  24.601  0.00  0.00    +0.123 C 
ATOM     20  N   UNL     1      -4.033  -0.625  24.602  0.00  0.00    -0.276 N 
ATOM     21  C   UNL     1      -3.222  -0.492  24.668  0.00  0.00    +0.115 C 
ATOM     22  C   UNL     1      -2.934   0.279  24.733  0.00  0.00    +0.116 C 
ATOM     23  N   UNL     1      -3.459   0.916  24.732  0.00  0.00    -0.266 N 
ATOM     24  C   UNL     1      -3.060   1.635  24.802  0.00  0.00    +0.251 C 
ATOM     25  O   UNL     1      -2.239   1.585  24.858  0.00  0.00    -0.270 OA
ATOM     26  C   UNL     1      -4.320  -1.397  24.537  0.00  0.00    +0.225 C 
ATOM     27  O   UNL     1      -5.132  -1.530  24.471  0.00  0.00    -0.275 OA
ATOM     34  C   UNL     1      -4.362   3.430  24.812  0.00  0.00    +0.017 A 
ATOM     35  C   UNL     1      -3.769   3.998  24.888  0.00  0.00    +0.001 A 
ENDROOT
BRANCH  11   9
ATOM      5  C   UNL     1      -1.025   4.734  24.831  0.00  0.00    +0.071 A 
ATOM      6  C   UNL     1      -1.199   5.471  25.157  0.00  0.00    +0.004 A 
ATOM      7  C   UNL     1      -1.967   5.640  25.408  0.00  0.00    -0.000 A 
ATOM      8  C   UNL     1      -2.560   5.072  25.333  0.00  0.00    -0.000 A 
ATOM      9  C   UNL     1      -2.386   4.335  25.007  0.00  0.00    -0.000 A 
ATOM     10  C   UNL     1      -1.618   4.165  24.755  0.00  0.00    +0.004 A 
BRANCH   5   2
ATOM      1  F   UNL     1       0.510   4.396  24.327  0.00  0.00    -0.166 F 
ATOM      2  C   UNL     1      -0.257   4.565  24.580  0.00  0.00    +0.419 C 
ATOM      3  F   UNL     1      -0.138   4.104  25.253  0.00  0.00    -0.166 F 
ATOM      4  F   UNL     1      -0.376   5.026  23.905  0.00  0.00    -0.166 F 
ENDBRANCH   5   2
ENDBRANCH  11   9
BRANCH  26  28
ATOM     28  C   UNL     1      -3.795  -2.033  24.538  0.00  0.00    +0.080 C 
ATOM     29  C   UNL     1      -3.516  -2.337  25.253  0.00  0.00    +0.028 C 
ATOM     30  C   UNL     1      -2.991  -2.973  25.254  0.00  0.00    +0.089 C 
ATOM     31  N   UNL     1      -2.746  -3.306  24.541  0.00  0.00    -0.218 NA
ATOM     32  C   UNL     1      -3.024  -3.003  23.826  0.00  0.00    +0.089 C 
ATOM     33  C   UNL     1      -3.549  -2.366  23.825  0.00  0.00    +0.028 C 
ENDBRANCH  26  28
TORSDOF 3
ENDMDL
MODEL 6
REMARK VINA RESULT:     -11.0      3.771      4.862
REMARK  Name = 
REMARK  3 active torsions:
REMARK  status: ('A' for Active; 'I' for Inactive)
REMARK    1  A    between atoms: C_2  and  C_5
REMARK    2  A    between atoms: C_9  and  C_11
REMARK    3  A    between atoms: C_26  and  C_28
REMARK                            x       y       z     vdW  Elec       q    Type
REMARK                         _______ _______ _______ _____ _____    ______ ____
ROOT
ATOM     11  C   UNL     1       0.909  -0.176  23.237  0.00  0.00    +0.000 A 
ATOM     12  C   UNL     1       0.356   0.431  23.311  0.00  0.00    +0.006 A 
ATOM     13  C   UNL     1      -0.325   0.315  23.763  0.00  0.00    +0.069 A 
ATOM     14  C   UNL     1      -0.451  -0.408  24.140  0.00  0.00    +0.078 A 
ATOM     15  N   UNL     1      -1.088  -0.637  24.612  0.00  0.00    -0.178 NA
ATOM     16  C   UNL     1      -1.754  -0.200  24.825  0.00  0.00    +0.265 C 
ATOM     17  O   UNL     1      -2.298  -0.588  25.309  0.00  0.00    -0.271 OA
ATOM     18  C   UNL     1      -1.949   0.574  24.617  0.00  0.00    +0.174 C 
ATOM     19  C   UNL     1      -2.670   0.803  24.949  0.00  0.00    +0.123 C 
ATOM     20  N   UNL     1      -2.966   1.560  24.809  0.00  0.00    -0.276 N 
ATOM     21  C   UNL     1      -2.543   2.088  24.338  0.00  0.00    +0.115 C 
ATOM     22  C   UNL     1      -1.822   1.860  24.006  0.00  0.00    +0.116 C 
ATOM     23  N   UNL     1      -1.526   1.103  24.146  0.00  0.00    -0.266 N 
ATOM     24  C   UNL     1      -0.803   0.987  23.766  0.00  0.00    +0.251 C 
ATOM     25  O   UNL     1      -0.521   1.629  23.331  0.00  0.00    -0.270 OA
ATOM     26  C   UNL     1      -3.687   1.789  25.140  0.00  0.00    +0.225 C 
ATOM     27  O   UNL     1      -4.110   1.259  25.612  0.00  0.00    -0.275 OA
ATOM     34  C   UNL     1       0.102  -1.015  24.065  0.00  0.00    +0.017 A 
ATOM     35  C   UNL     1       0.783  -0.899  23.613  0.00  0.00    +0.001 A 
ENDROOT
BRANCH  11   9
ATOM      5  C   UNL     1       2.940   0.397  22.676  0.00  0.00    +0.071 A 
ATOM      6  C   UNL     1       2.952   0.172  21.883  0.00  0.00    +0.004 A 
ATOM      7  C   UNL     1       2.283  -0.169  21.540  0.00  0.00    -0.000 A 
ATOM      8  C   UNL     1       1.602  -0.285  21.992  0.00  0.00    -0.000 A 
ATOM      9  C   UNL     1       1.590  -0.060  22.785  0.00  0.00    -0.000 A 
ATOM     10  C   UNL     1       2.260   0.281  23.128  0.00  0.00    +0.004 A 
BRANCH   5   2
ATOM      1  F   UNL     1       4.278   1.077  23.362  0.00  0.00    -0.166 F 
ATOM      2  C   UNL     1       3.609   0.737  23.019  0.00  0.00    +0.419 C 
ATOM      3  F   UNL     1       3.263   1.483  22.954  0.00  0.00    -0.166 F 
ATOM      4  F   UNL     1       3.955  -0.009  23.085  0.00  0.00    -0.166 F 
ENDBRANCH   5   2
ENDBRANCH  11   9
BRANCH  26  28
ATOM     28  C   UNL     1      -3.983   2.545  25.000  0.00  0.00    +0.080 C 
ATOM     29  C   UNL     1      -3.824   3.156  25.532  0.00  0.00    +0.028 C 
ATOM     30  C   UNL     1      -4.120   3.913  25.393  0.00  0.00    +0.089 C 
ATOM     31  N   UNL     1      -4.575   4.060  24.721  0.00  0.00    -0.218 NA
ATOM     32  C   UNL     1      -4.734   3.450  24.189  0.00  0.00    +0.089 C 
ATOM     33  C   UNL     1      -4.438   2.693  24.328  0.00  0.00    +0.028 C 
ENDBRANCH  26  28
TORSDOF 3
ENDMDL
MODEL 7
REMARK VINA RESULT:     -11.0      3.219      5.004
REMARK  Name = 
REMARK  3 active torsions:
REMARK  status: ('A' for Active; 'I' for Inactive)
REMARK    1  A    between atoms: C_2  and  C_5
REMARK    2  A    between atoms: C_9  and  C_11
REMARK    3  A    between atoms: C_26  and  C_28
REMARK                            x       y       z     vdW  Elec       q    Type
REMARK                         _______ _______ _______ _____ _____    ______ ____
ROOT
ATOM     11  C   UNL     1      -3.670   3.454  25.580  0.00  0.00    +0.000 A 
ATOM     12  C   UNL     1      -3.256   2.879  25.157  0.00  0.00    +0.006 A 
ATOM     13  C   UNL     1      -2.431   2.877  25.163  0.00  0.00    +0.069 A 
ATOM     14  C   UNL     1      -2.020   3.449  25.593  0.00  0.00    +0.078 A 
ATOM     15  N   UNL     1      -1.204   3.545  25.672  0.00  0.00    -0.178 NA
ATOM     16  C   UNL     1      -0.598   3.093  25.341  0.00  0.00    +0.265 C 
ATOM     17  O   UNL     1       0.169   3.332  25.527  0.00  0.00    -0.271 OA
ATOM     18  C   UNL     1      -0.659   2.433  24.850  0.00  0.00    +0.174 C 
ATOM     19  C   UNL     1       0.086   2.144  24.642  0.00  0.00    +0.123 C 
ATOM     20  N   UNL     1       0.149   1.484  24.151  0.00  0.00    -0.276 N 
ATOM     21  C   UNL     1      -0.531   1.113  23.869  0.00  0.00    +0.115 C 
ATOM     22  C   UNL     1      -1.276   1.402  24.077  0.00  0.00    +0.116 C 
ATOM     23  N   UNL     1      -1.339   2.062  24.567  0.00  0.00    -0.266 N 
ATOM     24  C   UNL     1      -2.128   2.260  24.707  0.00  0.00    +0.251 C 
ATOM     25  O   UNL     1      -2.688   1.777  24.342  0.00  0.00    -0.270 OA
ATOM     26  C   UNL     1       0.893   1.194  23.943  0.00  0.00    +0.225 C 
ATOM     27  O   UNL     1       1.574   1.566  24.226  0.00  0.00    -0.275 OA
ATOM     34  C   UNL     1      -2.434   4.023  26.016  0.00  0.00    +0.017 A 
ATOM     35  C   UNL     1      -3.259   4.026  26.010  0.00  0.00    +0.001 A 
ENDROOT
BRANCH  11   9
ATOM      5  C   UNL     1      -5.736   2.776  25.772  0.00  0.00    +0.071 A 
ATOM      6  C   UNL     1      -6.145   3.460  25.563  0.00  0.00    +0.004 A 
ATOM      7  C   UNL     1      -5.729   4.144  25.358  0.00  0.00    -0.000 A 
ATOM      8  C   UNL     1      -4.904   4.141  25.364  0.00  0.00    -0.000 A 
ATOM      9  C   UNL     1      -4.495   3.456  25.574  0.00  0.00    -0.000 A 
ATOM     10  C   UNL     1      -4.911   2.773  25.778  0.00  0.00    +0.004 A 
BRANCH   5   2
ATOM      1  F   UNL     1      -6.567   1.410  26.182  0.00  0.00    -0.166 F 
ATOM      2  C   UNL     1      -6.151   2.093  25.977  0.00  0.00    +0.419 C 
ATOM      3  F   UNL     1      -6.227   1.899  25.179  0.00  0.00    -0.166 F 
ATOM      4  F   UNL     1      -6.076   2.286  26.776  0.00  0.00    -0.166 F 
ENDBRANCH   5   2
ENDBRANCH  11   9
BRANCH  26  28
ATOM     28  C   UNL     1       0.956   0.534  23.453  0.00  0.00    +0.080 C 
ATOM     29  C   UNL     1       1.351   0.593  22.730  0.00  0.00    +0.028 C 
ATOM     30  C   UNL     1       1.414  -0.067  22.239  0.00  0.00    +0.089 C 
ATOM     31  N   UNL     1       1.083  -0.785  22.470  0.00  0.00    -0.218 NA
ATOM     32  C   UNL     1       0.688  -0.845  23.192  0.00  0.00    +0.089 C 
ATOM     33  C   UNL     1       0.625  -0.185  23.683  0.00  0.00    +0.028 C 
ENDBRANCH  26  28
TORSDOF 3
ENDMDL
MODEL 8
REMARK VINA RESULT:     -10.9      4.080      5.483
REMARK  Name = 
REMARK  3 active torsions:
REMARK  status: ('A' for Active; 'I' for Inactive)
REMARK    1  A    between atoms: C_2  and  C_5
REMARK    2  A    between atoms: C_9  and  C_11
REMARK    3  A    between atoms: C_26  and  C_28
REMARK                            x       y       z     vdW  Elec       q    Type
REMARK                         _______ _______ _______ _____ _____    ______ ____
ROOT
ATOM     11  C   UNL     1      -2.732   1.732  24.678  0.00  0.00    +0.000 A 
ATOM     12  C   UNL     1      -1.972   1.806  24.365  0.00  0.00    +0.006 A 
ATOM     13  C   UNL     1      -1.500   1.136  24.268  0.00  0.00    +0.069 A 
ATOM     14  C   UNL     1      -1.788   0.394  24.482  0.00  0.00    +0.078 A 
ATOM     15  N   UNL     1      -1.410  -0.339  24.431  0.00  0.00    -0.178 NA
ATOM     16  C   UNL     1      -0.653  -0.509  24.152  0.00  0.00    +0.265 C 
ATOM     17  O   UNL     1      -0.434  -1.304  24.172  0.00  0.00    -0.271 OA
ATOM     18  C   UNL     1      -0.085   0.011  23.856  0.00  0.00    +0.174 C 
ATOM     19  C   UNL     1       0.603  -0.387  23.636  0.00  0.00    +0.123 C 
ATOM     20  N   UNL     1       1.241   0.033  23.325  0.00  0.00    -0.276 N 
ATOM     21  C   UNL     1       1.192   0.851  23.235  0.00  0.00    +0.115 C 
ATOM     22  C   UNL     1       0.504   1.251  23.455  0.00  0.00    +0.116 C 
ATOM     23  N   UNL     1      -0.134   0.830  23.765  0.00  0.00    -0.266 N 
ATOM     24  C   UNL     1      -0.764   1.330  23.949  0.00  0.00    +0.251 C 
ATOM     25  O   UNL     1      -0.642   2.131  23.792  0.00  0.00    -0.270 OA
ATOM     26  C   UNL     1       1.930  -0.366  23.105  0.00  0.00    +0.225 C 
ATOM     27  O   UNL     1       1.979  -1.185  23.196  0.00  0.00    -0.275 OA
ATOM     34  C   UNL     1      -2.548   0.320  24.794  0.00  0.00    +0.017 A 
ATOM     35  C   UNL     1      -3.020   0.989  24.892  0.00  0.00    +0.001 A 
ENDROOT
BRANCH  11   9
ATOM      5  C   UNL     1      -3.505   3.613  25.472  0.00  0.00    +0.071 A 
ATOM      6  C   UNL     1      -4.149   3.740  24.973  0.00  0.00    +0.004 A 
ATOM      7  C   UNL     1      -4.321   3.197  24.374  0.00  0.00    -0.000 A 
ATOM      8  C   UNL     1      -3.848   2.528  24.276  0.00  0.00    -0.000 A 
ATOM      9  C   UNL     1      -3.205   2.401  24.776  0.00  0.00    -0.000 A 
ATOM     10  C   UNL     1      -3.033   2.943  25.374  0.00  0.00    +0.004 A 
BRANCH   5   2
ATOM      1  F   UNL     1      -3.162   4.696  26.668  0.00  0.00    -0.166 F 
ATOM      2  C   UNL     1      -3.333   4.154  26.070  0.00  0.00    +0.419 C 
ATOM      3  F   UNL     1      -2.790   4.529  25.575  0.00  0.00    -0.166 F 
ATOM      4  F   UNL     1      -3.876   3.779  26.566  0.00  0.00    -0.166 F 
ENDBRANCH   5   2
ENDBRANCH  11   9
BRANCH  26  28
ATOM     28  C   UNL     1       2.568   0.055  22.794  0.00  0.00    +0.080 C 
ATOM     29  C   UNL     1       2.688   0.078  21.978  0.00  0.00    +0.028 C 
ATOM     30  C   UNL     1       3.327   0.498  21.667  0.00  0.00    +0.089 C 
ATOM     31  N   UNL     1       3.844   0.895  22.172  0.00  0.00    -0.218 NA
ATOM     32  C   UNL     1       3.724   0.872  22.987  0.00  0.00    +0.089 C 
ATOM     33  C   UNL     1       3.085   0.452  23.299  0.00  0.00    +0.028 C 
ENDBRANCH  26  28
TORSDOF 3
ENDMDL
MODEL 9
REMARK VINA RESULT:     -10.6      3.763      4.471
REMARK  Name = 
REMARK  3 active torsions:
REMARK  status: ('A' for Active; 'I' for Inactive)
REMARK    1  A    between atoms: C_2  and  C_5
REMARK    2  A    between atoms: C_9  and  C_11
REMARK    3  A    between atoms: C_26  and  C_28
REMARK                            x       y       z     vdW  Elec       q    Type
REMARK                         _______ _______ _______ _____ _____    ______ ____
ROOT
ATOM     11  C   UNL     1      -2.288  -0.463  24.827  0.00  0.00    +0.000 A 
ATOM     12  C   UNL     1      -1.533  -0.590  24.521  0.00  0.00    +0.006 A 
ATOM     13  C   UNL     1      -1.026   0.049  24.396  0.00  0.00    +0.069 A 
ATOM     14  C   UNL     1      -1.275   0.814  24.577  0.00  0.00    +0.078 A 
ATOM     15  N   UNL     1      -0.860   1.523  24.495  0.00  0.00    -0.178 NA
ATOM     16  C   UNL     1      -0.094   1.641  24.212  0.00  0.00    +0.265 C 
ATOM     17  O   UNL     1       0.166   2.423  24.199  0.00  0.00    -0.271 OA
ATOM     18  C   UNL     1       0.446   1.080  23.941  0.00  0.00    +0.174 C 
ATOM     19  C   UNL     1       1.155   1.432  23.706  0.00  0.00    +0.123 C 
ATOM     20  N   UNL     1       1.770   0.966  23.416  0.00  0.00    -0.276 N 
ATOM     21  C   UNL     1       1.678   0.148  23.360  0.00  0.00    +0.115 C 
ATOM     22  C   UNL     1       0.969  -0.205  23.595  0.00  0.00    +0.116 C 
ATOM     23  N   UNL     1       0.354   0.262  23.885  0.00  0.00    -0.266 N 
ATOM     24  C   UNL     1      -0.302  -0.197  24.088  0.00  0.00    +0.251 C 
ATOM     25  O   UNL     1      -0.222  -1.009  23.966  0.00  0.00    -0.270 OA
ATOM     26  C   UNL     1       2.479   1.318  23.181  0.00  0.00    +0.225 C 
ATOM     27  O   UNL     1       2.570   2.136  23.236  0.00  0.00    -0.275 OA
ATOM     34  C   UNL     1      -2.030   0.941  24.884  0.00  0.00    +0.017 A 
ATOM     35  C   UNL     1      -2.537   0.302  25.009  0.00  0.00    +0.001 A 
ENDROOT
BRANCH  11   9
ATOM      5  C   UNL     1      -3.770  -2.023  24.458  0.00  0.00    +0.071 A 
ATOM      6  C   UNL     1      -3.810  -2.379  25.201  0.00  0.00    +0.004 A 
ATOM      7  C   UNL     1      -3.343  -2.096  25.820  0.00  0.00    -0.000 A 
ATOM      8  C   UNL     1      -2.835  -1.457  25.695  0.00  0.00    -0.000 A 
ATOM      9  C   UNL     1      -2.795  -1.102  24.952  0.00  0.00    -0.000 A 
ATOM     10  C   UNL     1      -3.263  -1.385  24.333  0.00  0.00    +0.004 A 
BRANCH   5   2
ATOM      1  F   UNL     1      -4.703  -2.589  23.220  0.00  0.00    -0.166 F 
ATOM      2  C   UNL     1      -4.237  -2.306  23.840  0.00  0.00    +0.419 C 
ATOM      3  F   UNL     1      -4.707  -1.630  23.884  0.00  0.00    -0.166 F 
ATOM      4  F   UNL     1      -3.767  -2.983  23.794  0.00  0.00    -0.166 F 
ENDBRANCH   5   2
ENDBRANCH  11   9
BRANCH  26  28
ATOM     28  C   UNL     1       3.094   0.852  22.891  0.00  0.00    +0.080 C 
ATOM     29  C   UNL     1       3.730   0.657  23.380  0.00  0.00    +0.028 C 
ATOM     30  C   UNL     1       4.346   0.191  23.090  0.00  0.00    +0.089 C 
ATOM     31  N   UNL     1       4.326  -0.080  22.311  0.00  0.00    -0.218 NA
ATOM     32  C   UNL     1       3.691   0.114  21.823  0.00  0.00    +0.089 C 
ATOM     33  C   UNL     1       3.075   0.581  22.112  0.00  0.00    +0.028 C 
ENDBRANCH  26  28
TORSDOF 3
ENDMDL
MODEL 10
REMARK VINA RESULT:     -10.2      2.936      4.527
REMARK  Name = 
REMARK  3 active torsions:
REMARK  status: ('A' for Active; 'I' for Inactive)
REMARK    1  A    between atoms: C_2  and  C_5
REMARK    2  A    between atoms: C_9  and  C_11
REMARK    3  A    between atoms: C_26  and  C_28
REMARK                            x       y       z     vdW  Elec       q    Type
REMARK                         _______ _______ _______ _____ _____    ______ ____
ROOT
ATOM     11  C   UNL     1       0.170   1.172  23.878  0.00  0.00    +0.000 A 
ATOM     12  C   UNL     1      -0.640   1.082  24.007  0.00  0.00    +0.006 A 
ATOM     13  C   UNL     1      -1.081   1.710  24.312  0.00  0.00    +0.069 A 
ATOM     14  C   UNL     1      -0.711   2.427  24.487  0.00  0.00    +0.078 A 
ATOM     15  N   UNL     1      -1.047   3.117  24.792  0.00  0.00    -0.178 NA
ATOM     16  C   UNL     1      -1.833   3.260  24.997  0.00  0.00    +0.265 C 
ATOM     17  O   UNL     1      -1.995   4.013  25.290  0.00  0.00    -0.271 OA
ATOM     18  C   UNL     1      -2.478   2.748  24.948  0.00  0.00    +0.174 C 
ATOM     19  C   UNL     1      -3.171   3.112  25.211  0.00  0.00    +0.123 C 
ATOM     20  N   UNL     1      -3.882   2.694  25.207  0.00  0.00    -0.276 N 
ATOM     21  C   UNL     1      -3.902   1.914  24.941  0.00  0.00    +0.115 C 
ATOM     22  C   UNL     1      -3.209   1.550  24.678  0.00  0.00    +0.116 C 
ATOM     23  N   UNL     1      -2.497   1.968  24.682  0.00  0.00    -0.266 N 
ATOM     24  C   UNL     1      -1.875   1.506  24.398  0.00  0.00    +0.251 C 
ATOM     25  O   UNL     1      -2.074   0.738  24.172  0.00  0.00    -0.270 OA
ATOM     26  C   UNL     1      -4.575   3.057  25.470  0.00  0.00    +0.225 C 
ATOM     27  O   UNL     1      -4.556   3.838  25.736  0.00  0.00    -0.275 OA
ATOM     34  C   UNL     1       0.098   2.516  24.357  0.00  0.00    +0.017 A 
ATOM     35  C   UNL     1       0.539   1.889  24.053  0.00  0.00    +0.001 A 
ENDROOT
BRANCH  11   9
ATOM      5  C   UNL     1       1.706   0.069  22.788  0.00  0.00    +0.071 A 
ATOM      6  C   UNL     1       1.495  -0.708  22.964  0.00  0.00    +0.004 A 
ATOM      7  C   UNL     1       0.841  -0.859  23.446  0.00  0.00    -0.000 A 
ATOM      8  C   UNL     1       0.400  -0.232  23.751  0.00  0.00    -0.000 A 
ATOM      9  C   UNL     1       0.611   0.545  23.574  0.00  0.00    -0.000 A 
ATOM     10  C   UNL     1       1.265   0.696  23.092  0.00  0.00    +0.004 A 
BRANCH   5   2
ATOM      1  F   UNL     1       3.011   0.371  21.824  0.00  0.00    -0.166 F 
ATOM      2  C   UNL     1       2.359   0.220  22.306  0.00  0.00    +0.419 C 
ATOM      3  F   UNL     1       2.798   0.437  22.969  0.00  0.00    -0.166 F 
ATOM      4  F   UNL     1       1.919   0.003  21.642  0.00  0.00    -0.166 F 
ENDBRANCH   5   2
ENDBRANCH  11   9
BRANCH  26  28
ATOM     28  C   UNL     1      -5.286   2.640  25.466  0.00  0.00    +0.080 C 
ATOM     29  C   UNL     1      -5.680   2.501  24.754  0.00  0.00    +0.028 C 
ATOM     30  C   UNL     1      -6.391   2.084  24.750  0.00  0.00    +0.089 C 
ATOM     31  N   UNL     1      -6.709   1.804  25.458  0.00  0.00    -0.218 NA
ATOM     32  C   UNL     1      -6.316   1.942  26.169  0.00  0.00    +0.089 C 
ATOM     33  C   UNL     1      -5.605   2.360  26.174  0.00  0.00    +0.028 C 
ENDBRANCH  26  28
TORSDOF 3
ENDMDL
