MODEL 1
REMARK VINA RESULT:     -14.6      0.000      0.000
REMARK  Name = 
REMARK  3 active torsions:
REMARK  status: ('A' for Active; 'I' for Inactive)
REMARK    1  A    between atoms: C_5  and  N_8
REMARK    2  A    between atoms: C_17  and  C_22
REMARK    3  A    between atoms: C_24  and  C_28
REMARK                            x       y       z     vdW  Elec       q    Type
REMARK                         _______ _______ _______ _____ _____    ______ ____
ROOT
ATOM      8  N   UNL     1      -3.232   2.567  24.501  0.00  0.00    -0.273 NA
ATOM      9  C   UNL     1      -3.367   3.389  24.438  0.00  0.00    +0.074 C 
ATOM     10  C   UNL     1      -4.308   3.425  24.740  0.00  0.00    +0.039 C 
ATOM     11  C   UNL     1      -5.066   3.622  24.961  0.00  0.00    +0.011 C 
ATOM     12  C   UNL     1      -4.675   3.042  24.909  0.00  0.00    +0.054 C 
ATOM     13  C   UNL     1      -3.767   3.023  24.616  0.00  0.00    +0.078 C 
ATOM     14  C   UNL     1      -4.714   2.133  25.039  0.00  0.00    +0.041 A 
ATOM     15  C   UNL     1      -5.234   1.542  25.285  0.00  0.00    +0.013 A 
ATOM     16  C   UNL     1      -4.986   0.756  25.305  0.00  0.00    +0.006 A 
ATOM     17  C   UNL     1      -4.216   0.560  25.080  0.00  0.00    +0.056 A 
ATOM     18  C   UNL     1      -3.696   1.150  24.835  0.00  0.00    +0.261 A 
ATOM     19  O   UNL     1      -3.166   0.525  24.743  0.00  0.00    -0.267 OA
ATOM     20  N   UNL     1      -3.944   1.937  24.814  0.00  0.00    -0.299 N 
ATOM     21  C   UNL     1      -4.338   2.475  24.873  0.00  0.00    +0.110 C 
ENDROOT
BRANCH   8   5
ATOM      1  C   UNL     1      -1.616  -0.306  24.346  0.00  0.00    +0.090 C 
ATOM      2  N   UNL     1      -2.020   0.412  24.384  0.00  0.00    -0.271 NA
ATOM      3  C   UNL     1      -2.439   0.685  23.729  0.00  0.00    +0.074 C 
ATOM      4  C   UNL     1      -2.843   1.403  23.767  0.00  0.00    +0.033 C 
ATOM      5  C   UNL     1      -2.828   1.848  24.462  0.00  0.00    +0.060 C 
ATOM      6  C   UNL     1      -2.408   1.576  25.117  0.00  0.00    +0.033 C 
ATOM      7  C   UNL     1      -2.004   0.857  25.079  0.00  0.00    +0.074 C 
ENDBRANCH   8   5
BRANCH  17  22
ATOM     22  C   UNL     1      -3.969  -0.226  25.101  0.00  0.00    +0.005 A 
ATOM     23  C   UNL     1      -4.185  -0.744  24.497  0.00  0.00    +0.010 A 
ATOM     24  C   UNL     1      -3.937  -1.531  24.518  0.00  0.00    +0.068 A 
ATOM     25  C   UNL     1      -3.472  -1.799  25.145  0.00  0.00    +0.010 A 
ATOM     26  C   UNL     1      -3.256  -1.282  25.750  0.00  0.00    +0.001 A 
ATOM     27  C   UNL     1      -3.504  -0.495  25.728  0.00  0.00    +0.000 A 
BRANCH  24  28
ATOM     28  C   UNL     1      -4.154  -2.048  23.914  0.00  0.00    +0.100 C 
ATOM     29  N   UNL     1      -4.370  -2.566  23.309  0.00  0.00    -0.191 NA
ENDBRANCH  24  28
ENDBRANCH  17  22
TORSDOF 3
ENDMDL
MODEL 2
REMARK VINA RESULT:     -14.5      1.113      3.777
REMARK  Name = 
REMARK  3 active torsions:
REMARK  status: ('A' for Active; 'I' for Inactive)
REMARK    1  A    between atoms: C_5  and  N_8
REMARK    2  A    between atoms: C_17  and  C_22
REMARK    3  A    between atoms: C_24  and  C_28
REMARK                            x       y       z     vdW  Elec       q    Type
REMARK                         _______ _______ _______ _____ _____    ______ ____
ROOT
ATOM      8  N   UNL     1      -2.052  -1.356  24.825  0.00  0.00    -0.273 NA
ATOM      9  C   UNL     1      -1.951  -2.176  24.945  0.00  0.00    +0.074 C 
ATOM     10  C   UNL     1      -2.855  -2.492  24.704  0.00  0.00    +0.039 C 
ATOM     11  C   UNL     1      -3.537  -2.907  24.540  0.00  0.00    +0.011 C 
ATOM     12  C   UNL     1      -3.322  -2.239  24.534  0.00  0.00    +0.054 C 
ATOM     13  C   UNL     1      -2.443  -1.949  24.770  0.00  0.00    +0.078 C 
ATOM     14  C   UNL     1      -3.617  -1.388  24.351  0.00  0.00    +0.041 A 
ATOM     15  C   UNL     1      -4.291  -0.984  24.102  0.00  0.00    +0.013 A 
ATOM     16  C   UNL     1      -4.273  -0.163  24.019  0.00  0.00    +0.006 A 
ATOM     17  C   UNL     1      -3.580   0.253  24.185  0.00  0.00    +0.056 A 
ATOM     18  C   UNL     1      -2.906  -0.151  24.434  0.00  0.00    +0.261 A 
ATOM     19  O   UNL     1      -2.569   0.601  24.456  0.00  0.00    -0.267 OA
ATOM     20  N   UNL     1      -2.924  -0.971  24.518  0.00  0.00    -0.299 N 
ATOM     21  C   UNL     1      -3.155  -1.600  24.515  0.00  0.00    +0.110 C 
ENDROOT
BRANCH   8   5
ATOM      1  C   UNL     1      -1.297   1.855  24.708  0.00  0.00    +0.090 C 
ATOM      2  N   UNL     1      -1.486   1.053  24.738  0.00  0.00    -0.271 NA
ATOM      3  C   UNL     1      -1.781   0.723  25.434  0.00  0.00    +0.074 C 
ATOM      4  C   UNL     1      -1.970  -0.079  25.464  0.00  0.00    +0.033 C 
ATOM      5  C   UNL     1      -1.863  -0.553  24.796  0.00  0.00    +0.060 C 
ATOM      6  C   UNL     1      -1.569  -0.224  24.100  0.00  0.00    +0.033 C 
ATOM      7  C   UNL     1      -1.380   0.579  24.070  0.00  0.00    +0.074 C 
ENDBRANCH   8   5
BRANCH  17  22
ATOM     22  C   UNL     1      -3.563   1.073  24.101  0.00  0.00    +0.005 A 
ATOM     23  C   UNL     1      -3.887   1.555  24.687  0.00  0.00    +0.010 A 
ATOM     24  C   UNL     1      -3.869   2.376  24.603  0.00  0.00    +0.068 A 
ATOM     25  C   UNL     1      -3.527   2.714  23.932  0.00  0.00    +0.010 A 
ATOM     26  C   UNL     1      -3.202   2.232  23.347  0.00  0.00    +0.001 A 
ATOM     27  C   UNL     1      -3.220   1.412  23.431  0.00  0.00    +0.000 A 
BRANCH  24  28
ATOM     28  C   UNL     1      -4.194   2.858  25.188  0.00  0.00    +0.100 C 
ATOM     29  N   UNL     1      -4.518   3.340  25.774  0.00  0.00    -0.191 NA
ENDBRANCH  24  28
ENDBRANCH  17  22
TORSDOF 3
ENDMDL
MODEL 3
REMARK VINA RESULT:     -14.0      1.879      3.469
REMARK  Name = 
REMARK  3 active torsions:
REMARK  status: ('A' for Active; 'I' for Inactive)
REMARK    1  A    between atoms: C_5  and  N_8
REMARK    2  A    between atoms: C_17  and  C_22
REMARK    3  A    between atoms: C_24  and  C_28
REMARK                            x       y       z     vdW  Elec       q    Type
REMARK                         _______ _______ _______ _____ _____    ______ ____
ROOT
ATOM      8  N   UNL     1      -4.444   2.059  24.567  0.00  0.00    -0.273 NA
ATOM      9  C   UNL     1      -5.269   1.931  24.607  0.00  0.00    +0.074 C 
ATOM     10  C   UNL     1      -5.515   2.640  25.250  0.00  0.00    +0.039 C 
ATOM     11  C   UNL     1      -5.876   3.165  25.758  0.00  0.00    +0.011 C 
ATOM     12  C   UNL     1      -5.227   3.029  25.527  0.00  0.00    +0.054 C 
ATOM     13  C   UNL     1      -5.005   2.339  24.905  0.00  0.00    +0.078 C 
ATOM     14  C   UNL     1      -4.358   3.314  25.611  0.00  0.00    +0.041 A 
ATOM     15  C   UNL     1      -3.905   3.879  26.006  0.00  0.00    +0.013 A 
ATOM     16  C   UNL     1      -3.089   3.911  25.886  0.00  0.00    +0.006 A 
ATOM     17  C   UNL     1      -2.727   3.377  25.371  0.00  0.00    +0.056 A 
ATOM     18  C   UNL     1      -3.180   2.813  24.976  0.00  0.00    +0.261 A 
ATOM     19  O   UNL     1      -2.457   2.584  24.653  0.00  0.00    -0.267 OA
ATOM     20  N   UNL     1      -3.996   2.781  25.096  0.00  0.00    -0.299 N 
ATOM     21  C   UNL     1      -4.604   2.931  25.332  0.00  0.00    +0.110 C 
ENDROOT
BRANCH   8   5
ATOM      1  C   UNL     1      -1.305   1.633  23.643  0.00  0.00    +0.090 C 
ATOM      2  N   UNL     1      -2.089   1.739  23.874  0.00  0.00    -0.271 NA
ATOM      3  C   UNL     1      -2.387   1.329  24.525  0.00  0.00    +0.074 C 
ATOM      4  C   UNL     1      -3.172   1.435  24.756  0.00  0.00    +0.033 C 
ATOM      5  C   UNL     1      -3.659   1.952  24.336  0.00  0.00    +0.060 C 
ATOM      6  C   UNL     1      -3.362   2.362  23.685  0.00  0.00    +0.033 C 
ATOM      7  C   UNL     1      -2.576   2.256  23.454  0.00  0.00    +0.074 C 
ENDBRANCH   8   5
BRANCH  17  22
ATOM     22  C   UNL     1      -1.912   3.410  25.251  0.00  0.00    +0.005 A 
ATOM     23  C   UNL     1      -1.401   3.050  25.790  0.00  0.00    +0.010 A 
ATOM     24  C   UNL     1      -0.585   3.083  25.670  0.00  0.00    +0.068 A 
ATOM     25  C   UNL     1      -0.281   3.475  25.011  0.00  0.00    +0.010 A 
ATOM     26  C   UNL     1      -0.792   3.835  24.472  0.00  0.00    +0.001 A 
ATOM     27  C   UNL     1      -1.607   3.802  24.592  0.00  0.00    +0.000 A 
BRANCH  24  28
ATOM     28  C   UNL     1      -0.074   2.723  26.208  0.00  0.00    +0.100 C 
ATOM     29  N   UNL     1       0.437   2.364  26.747  0.00  0.00    -0.191 NA
ENDBRANCH  24  28
ENDBRANCH  17  22
TORSDOF 3
ENDMDL
MODEL 4
REMARK VINA RESULT:     -13.7      1.465      2.840
REMARK  Name = 
REMARK  3 active torsions:
REMARK  status: ('A' for Active; 'I' for Inactive)
REMARK    1  A    between atoms: C_5  and  N_8
REMARK    2  A    between atoms: C_17  and  C_22
REMARK    3  A    between atoms: C_24  and  C_28
REMARK                            x       y       z     vdW  Elec       q    Type
REMARK                         _______ _______ _______ _____ _____    ______ ____
ROOT
ATOM      8  N   UNL     1      -2.735   4.079  25.111  0.00  0.00    -0.273 NA
ATOM      9  C   UNL     1      -2.365   4.810  25.274  0.00  0.00    +0.074 C 
ATOM     10  C   UNL     1      -1.420   4.545  25.160  0.00  0.00    +0.039 C 
ATOM     11  C   UNL     1      -0.609   4.490  25.105  0.00  0.00    +0.011 C 
ATOM     12  C   UNL     1      -1.164   4.067  25.028  0.00  0.00    +0.054 C 
ATOM     13  C   UNL     1      -2.073   4.338  25.142  0.00  0.00    +0.078 C 
ATOM     14  C   UNL     1      -1.387   3.200  24.823  0.00  0.00    +0.041 A 
ATOM     15  C   UNL     1      -1.038   2.479  24.626  0.00  0.00    +0.013 A 
ATOM     16  C   UNL     1      -1.511   1.817  24.485  0.00  0.00    +0.006 A 
ATOM     17  C   UNL     1      -2.332   1.877  24.542  0.00  0.00    +0.056 A 
ATOM     18  C   UNL     1      -2.680   2.598  24.739  0.00  0.00    +0.261 A 
ATOM     19  O   UNL     1      -3.386   2.178  24.670  0.00  0.00    -0.267 OA
ATOM     20  N   UNL     1      -2.208   3.259  24.880  0.00  0.00    -0.299 N 
ATOM     21  C   UNL     1      -1.662   3.641  24.947  0.00  0.00    +0.110 C 
ENDROOT
BRANCH   8   5
ATOM      1  C   UNL     1      -5.166   1.887  24.689  0.00  0.00    +0.090 C 
ATOM      2  N   UNL     1      -4.559   2.434  24.795  0.00  0.00    -0.271 NA
ATOM      3  C   UNL     1      -4.231   2.549  25.543  0.00  0.00    +0.074 C 
ATOM      4  C   UNL     1      -3.624   3.096  25.649  0.00  0.00    +0.033 C 
ATOM      5  C   UNL     1      -3.343   3.531  25.005  0.00  0.00    +0.060 C 
ATOM      6  C   UNL     1      -3.670   3.417  24.257  0.00  0.00    +0.033 C 
ATOM      7  C   UNL     1      -4.278   2.869  24.151  0.00  0.00    +0.074 C 
ENDBRANCH   8   5
BRANCH  17  22
ATOM     22  C   UNL     1      -2.804   1.216  24.401  0.00  0.00    +0.005 A 
ATOM     23  C   UNL     1      -2.896   0.642  24.986  0.00  0.00    +0.010 A 
ATOM     24  C   UNL     1      -3.368  -0.021  24.845  0.00  0.00    +0.068 A 
ATOM     25  C   UNL     1      -3.748  -0.107  24.117  0.00  0.00    +0.010 A 
ATOM     26  C   UNL     1      -3.656   0.467  23.532  0.00  0.00    +0.001 A 
ATOM     27  C   UNL     1      -3.184   1.128  23.674  0.00  0.00    +0.000 A 
BRANCH  24  28
ATOM     28  C   UNL     1      -3.460  -0.594  25.430  0.00  0.00    +0.100 C 
ATOM     29  N   UNL     1      -3.552  -1.168  26.015  0.00  0.00    -0.191 NA
ENDBRANCH  24  28
ENDBRANCH  17  22
TORSDOF 3
ENDMDL
MODEL 5
REMARK VINA RESULT:     -13.5      1.353      3.991
REMARK  Name = 
REMARK  3 active torsions:
REMARK  status: ('A' for Active; 'I' for Inactive)
REMARK    1  A    between atoms: C_5  and  N_8
REMARK    2  A    between atoms: C_17  and  C_22
REMARK    3  A    between atoms: C_24  and  C_28
REMARK                            x       y       z     vdW  Elec       q    Type
REMARK                         _______ _______ _______ _____ _____    ______ ____
ROOT
ATOM      8  N   UNL     1      -3.850  -0.558  24.264  0.00  0.00    -0.273 NA
ATOM      9  C   UNL     1      -4.408  -1.180  24.251  0.00  0.00    +0.074 C 
ATOM     10  C   UNL     1      -3.821  -1.935  24.498  0.00  0.00    +0.039 C 
ATOM     11  C   UNL     1      -3.479  -2.650  24.687  0.00  0.00    +0.011 C 
ATOM     12  C   UNL     1      -3.278  -1.981  24.618  0.00  0.00    +0.054 C 
ATOM     13  C   UNL     1      -3.859  -1.261  24.378  0.00  0.00    +0.078 C 
ATOM     14  C   UNL     1      -2.538  -1.441  24.681  0.00  0.00    +0.041 A 
ATOM     15  C   UNL     1      -1.732  -1.476  24.854  0.00  0.00    +0.013 A 
ATOM     16  C   UNL     1      -1.276  -0.789  24.834  0.00  0.00    +0.006 A 
ATOM     17  C   UNL     1      -1.625  -0.066  24.642  0.00  0.00    +0.056 A 
ATOM     18  C   UNL     1      -2.431  -0.031  24.470  0.00  0.00    +0.261 A 
ATOM     19  O   UNL     1      -2.285   0.774  24.366  0.00  0.00    -0.267 OA
ATOM     20  N   UNL     1      -2.887  -0.718  24.489  0.00  0.00    -0.299 N 
ATOM     21  C   UNL     1      -3.053  -1.363  24.562  0.00  0.00    +0.110 C 
ENDROOT
BRANCH   8   5
ATOM      1  C   UNL     1      -2.646   2.504  24.005  0.00  0.00    +0.090 C 
ATOM      2  N   UNL     1      -2.947   1.739  24.070  0.00  0.00    -0.271 NA
ATOM      3  C   UNL     1      -3.248   1.473  24.790  0.00  0.00    +0.074 C 
ATOM      4  C   UNL     1      -3.549   0.708  24.856  0.00  0.00    +0.033 C 
ATOM      5  C   UNL     1      -3.549   0.207  24.199  0.00  0.00    +0.060 C 
ATOM      6  C   UNL     1      -3.248   0.473  23.478  0.00  0.00    +0.033 C 
ATOM      7  C   UNL     1      -2.947   1.238  23.414  0.00  0.00    +0.074 C 
ENDBRANCH   8   5
BRANCH  17  22
ATOM     22  C   UNL     1      -1.168   0.620  24.623  0.00  0.00    +0.005 A 
ATOM     23  C   UNL     1      -0.984   1.013  25.324  0.00  0.00    +0.010 A 
ATOM     24  C   UNL     1      -0.527   1.700  25.304  0.00  0.00    +0.068 A 
ATOM     25  C   UNL     1      -0.254   1.993  24.582  0.00  0.00    +0.010 A 
ATOM     26  C   UNL     1      -0.439   1.599  23.881  0.00  0.00    +0.001 A 
ATOM     27  C   UNL     1      -0.896   0.913  23.901  0.00  0.00    +0.000 A 
BRANCH  24  28
ATOM     28  C   UNL     1      -0.343   2.094  26.005  0.00  0.00    +0.100 C 
ATOM     29  N   UNL     1      -0.159   2.487  26.706  0.00  0.00    -0.191 NA
ENDBRANCH  24  28
ENDBRANCH  17  22
TORSDOF 3
ENDMDL
MODEL 6
REMARK VINA RESULT:     -13.4      1.466      2.184
REMARK  Name = 
REMARK  3 active torsions:
REMARK  status: ('A' for Active; 'I' for Inactive)
REMARK    1  A    between atoms: C_5  and  N_8
REMARK    2  A    between atoms: C_17  and  C_22
REMARK    3  A    between atoms: C_24  and  C_28
REMARK                            x       y       z     vdW  Elec       q    Type
REMARK                         _______ _______ _______ _____ _____    ______ ____
ROOT
ATOM      8  N   UNL     1      -1.141   3.213  25.016  0.00  0.00    -0.273 NA
ATOM      9  C   UNL     1      -0.861   3.974  25.216  0.00  0.00    +0.074 C 
ATOM     10  C   UNL     1      -1.720   4.423  25.403  0.00  0.00    +0.039 C 
ATOM     11  C   UNL     1      -2.331   4.929  25.590  0.00  0.00    +0.011 C 
ATOM     12  C   UNL     1      -2.253   4.260  25.393  0.00  0.00    +0.054 C 
ATOM     13  C   UNL     1      -1.414   3.840  25.215  0.00  0.00    +0.078 C 
ATOM     14  C   UNL     1      -2.739   3.502  25.208  0.00  0.00    +0.041 A 
ATOM     15  C   UNL     1      -3.517   3.230  25.183  0.00  0.00    +0.013 A 
ATOM     16  C   UNL     1      -3.674   2.449  24.969  0.00  0.00    +0.006 A 
ATOM     17  C   UNL     1      -3.053   1.939  24.780  0.00  0.00    +0.056 A 
ATOM     18  C   UNL     1      -2.275   2.211  24.805  0.00  0.00    +0.261 A 
ATOM     19  O   UNL     1      -2.090   1.443  24.572  0.00  0.00    -0.267 OA
ATOM     20  N   UNL     1      -2.118   2.992  25.019  0.00  0.00    -0.299 N 
ATOM     21  C   UNL     1      -2.219   3.627  25.208  0.00  0.00    +0.110 C 
ENDROOT
BRANCH   8   5
ATOM      1  C   UNL     1      -1.054   0.044  24.100  0.00  0.00    +0.090 C 
ATOM      2  N   UNL     1      -1.076   0.835  24.329  0.00  0.00    -0.271 NA
ATOM      3  C   UNL     1      -1.026   1.036  25.127  0.00  0.00    +0.074 C 
ATOM      4  C   UNL     1      -1.048   1.828  25.357  0.00  0.00    +0.033 C 
ATOM      5  C   UNL     1      -1.119   2.420  24.787  0.00  0.00    +0.060 C 
ATOM      6  C   UNL     1      -1.168   2.221  23.988  0.00  0.00    +0.033 C 
ATOM      7  C   UNL     1      -1.147   1.428  23.759  0.00  0.00    +0.074 C 
ENDBRANCH   8   5
BRANCH  17  22
ATOM     22  C   UNL     1      -3.211   1.159  24.567  0.00  0.00    +0.005 A 
ATOM     23  C   UNL     1      -3.324   0.586  25.149  0.00  0.00    +0.010 A 
ATOM     24  C   UNL     1      -3.483  -0.195  24.935  0.00  0.00    +0.068 A 
ATOM     25  C   UNL     1      -3.526  -0.403  24.137  0.00  0.00    +0.010 A 
ATOM     26  C   UNL     1      -3.413   0.170  23.555  0.00  0.00    +0.001 A 
ATOM     27  C   UNL     1      -3.255   0.951  23.769  0.00  0.00    +0.000 A 
BRANCH  24  28
ATOM     28  C   UNL     1      -3.596  -0.768  25.517  0.00  0.00    +0.100 C 
ATOM     29  N   UNL     1      -3.710  -1.341  26.100  0.00  0.00    -0.191 NA
ENDBRANCH  24  28
ENDBRANCH  17  22
TORSDOF 3
ENDMDL
