MODEL 1
REMARK VINA RESULT:     -12.0      0.000      0.000
REMARK  Name = 
REMARK  7 active torsions:
REMARK  status: ('A' for Active; 'I' for Inactive)
REMARK    1  A    between atoms: O_2  and  C_3
REMARK    2  A    between atoms: C_6  and  C_9
REMARK    3  A    between atoms: C_11  and  C_12
REMARK    4  A    between atoms: C_12  and  C_13
REMARK    5  A    between atoms: C_13  and  N_17
REMARK    6  A    between atoms: N_17  and  C_18
REMARK    7  A    between atoms: C_18  and  C_19
REMARK                            x       y       z     vdW  Elec       q    Type
REMARK                         _______ _______ _______ _____ _____    ______ ____
ROOT
ATOM     12  C   UNL     1      -4.164   2.547  24.632  0.00  0.00    +0.070 C 
ENDROOT
BRANCH  12  11
ATOM      9  C   UNL     1      -4.362   0.436  24.878  0.00  0.00    +0.177 A 
ATOM     10  C   UNL     1      -3.936   1.095  24.624  0.00  0.00    +0.058 A 
ATOM     11  C   UNL     1      -4.381   1.768  24.793  0.00  0.00    +0.102 A 
ATOM     26  N   UNL     1      -5.083   1.526  25.153  0.00  0.00    -0.081 NA
ATOM     27  O   UNL     1      -5.071   0.702  25.206  0.00  0.00    -0.354 OA
BRANCH   9   6
ATOM      3  C   UNL     1      -3.641  -1.925  24.695  0.00  0.00    +0.139 A 
ATOM      4  C   UNL     1      -3.484  -1.497  25.384  0.00  0.00    +0.037 A 
ATOM      5  C   UNL     1      -3.724  -0.710  25.445  0.00  0.00    +0.006 A 
ATOM      6  C   UNL     1      -4.122  -0.351  24.817  0.00  0.00    +0.037 A 
ATOM      7  C   UNL     1      -4.278  -0.778  24.129  0.00  0.00    +0.006 A 
ATOM      8  C   UNL     1      -4.038  -1.565  24.069  0.00  0.00    +0.037 A 
BRANCH   3   2
ATOM      1  C   UNL     1      -2.613  -2.890  24.468  0.00  0.00    +0.252 C 
ATOM      2  O   UNL     1      -3.400  -2.712  24.635  0.00  0.00    -0.471 OA
ENDBRANCH   3   2
ENDBRANCH   9   6
ENDBRANCH  12  11
BRANCH  12  13
ATOM     13  C   UNL     1      -4.200   3.117  25.226  0.00  0.00    +0.120 C 
ATOM     14  C   UNL     1      -4.237   3.688  25.822  0.00  0.00    +0.161 C 
ATOM     15  O   UNL     1      -5.054   3.739  25.722  0.00  0.00    -0.351 OA
ATOM     16  C   UNL     1      -5.018   3.169  25.128  0.00  0.00    +0.161 C 
BRANCH  13  17
ATOM     17  N   UNL     1      -3.383   3.066  25.326  0.00  0.00    -0.211 NA
BRANCH  17  18
ATOM     18  C   UNL     1      -2.927   3.754  25.341  0.00  0.00    +0.116 C 
BRANCH  18  19
ATOM     19  C   UNL     1      -2.105   3.702  25.395  0.00  0.00    +0.006 A 
ATOM     20  C   UNL     1      -1.755   3.021  25.703  0.00  0.00    -0.002 A 
ATOM     21  C   UNL     1      -0.933   2.967  25.757  0.00  0.00    -0.000 A 
ATOM     22  C   UNL     1      -0.462   3.595  25.503  0.00  0.00    +0.001 A 
ATOM     23  C   UNL     1      -0.812   4.276  25.195  0.00  0.00    +0.011 A 
ATOM     24  C   UNL     1      -1.634   4.328  25.141  0.00  0.00    +0.055 A 
ATOM     25 CL   UNL     1      -1.984   5.009  24.833  0.00  0.00    -0.083 Cl
ENDBRANCH  18  19
ENDBRANCH  17  18
ENDBRANCH  13  17
ENDBRANCH  12  13
TORSDOF 7
ENDMDL
MODEL 2
REMARK VINA RESULT:     -10.5      2.107      4.751
REMARK  Name = 
REMARK  7 active torsions:
REMARK  status: ('A' for Active; 'I' for Inactive)
REMARK    1  A    between atoms: O_2  and  C_3
REMARK    2  A    between atoms: C_6  and  C_9
REMARK    3  A    between atoms: C_11  and  C_12
REMARK    4  A    between atoms: C_12  and  C_13
REMARK    5  A    between atoms: C_13  and  N_17
REMARK    6  A    between atoms: N_17  and  C_18
REMARK    7  A    between atoms: C_18  and  C_19
REMARK                            x       y       z     vdW  Elec       q    Type
REMARK                         _______ _______ _______ _____ _____    ______ ____
ROOT
ATOM     12  C   UNL     1      -3.857   1.206  24.105  0.00  0.00    +0.070 C 
ENDROOT
BRANCH  12  11
ATOM      9  C   UNL     1      -2.181   2.315  24.824  0.00  0.00    +0.177 A 
ATOM     10  C   UNL     1      -2.595   1.606  24.743  0.00  0.00    +0.058 A 
ATOM     11  C   UNL     1      -3.282   1.759  24.313  0.00  0.00    +0.102 A 
ATOM     26  N   UNL     1      -3.294   2.562  24.129  0.00  0.00    -0.081 NA
ATOM     27  O   UNL     1      -2.614   2.907  24.444  0.00  0.00    -0.354 OA
BRANCH   9   6
ATOM      3  C   UNL     1      -0.023   2.617  25.998  0.00  0.00    +0.139 A 
ATOM      4  C   UNL     1      -0.144   1.955  25.519  0.00  0.00    +0.037 A 
ATOM      5  C   UNL     1      -0.864   1.855  25.128  0.00  0.00    +0.006 A 
ATOM      6  C   UNL     1      -1.462   2.416  25.215  0.00  0.00    +0.037 A 
ATOM      7  C   UNL     1      -1.341   3.077  25.693  0.00  0.00    +0.006 A 
ATOM      8  C   UNL     1      -0.622   3.177  26.084  0.00  0.00    +0.037 A 
BRANCH   3   2
ATOM      1  C   UNL     1       0.746   2.581  27.201  0.00  0.00    +0.252 C 
ATOM      2  O   UNL     1       0.696   2.717  26.389  0.00  0.00    -0.471 OA
ENDBRANCH   3   2
ENDBRANCH   9   6
ENDBRANCH  12  11
BRANCH  12  13
ATOM     13  C   UNL     1      -4.438   0.989  24.648  0.00  0.00    +0.120 C 
ATOM     14  C   UNL     1      -5.020   0.772  25.193  0.00  0.00    +0.161 C 
ATOM     15  O   UNL     1      -5.413   1.484  25.055  0.00  0.00    -0.351 OA
ATOM     16  C   UNL     1      -4.832   1.701  24.512  0.00  0.00    +0.161 C 
BRANCH  13  17
ATOM     17  N   UNL     1      -4.044   0.277  24.786  0.00  0.00    -0.211 NA
BRANCH  17  18
ATOM     18  C   UNL     1      -4.380  -0.434  24.535  0.00  0.00    +0.116 C 
BRANCH  18  19
ATOM     19  C   UNL     1      -4.010  -1.150  24.715  0.00  0.00    +0.006 A 
ATOM     20  C   UNL     1      -3.598  -1.233  25.425  0.00  0.00    -0.002 A 
ATOM     21  C   UNL     1      -3.228  -1.948  25.606  0.00  0.00    -0.000 A 
ATOM     22  C   UNL     1      -3.271  -2.580  25.077  0.00  0.00    +0.001 A 
ATOM     23  C   UNL     1      -3.684  -2.497  24.367  0.00  0.00    +0.011 A 
ATOM     24  C   UNL     1      -4.053  -1.781  24.187  0.00  0.00    +0.055 A 
ATOM     25 CL   UNL     1      -4.466  -1.698  23.477  0.00  0.00    -0.083 Cl
ENDBRANCH  18  19
ENDBRANCH  17  18
ENDBRANCH  13  17
ENDBRANCH  12  13
TORSDOF 7
ENDMDL
MODEL 3
REMARK VINA RESULT:     -10.4      1.880      2.942
REMARK  Name = 
REMARK  7 active torsions:
REMARK  status: ('A' for Active; 'I' for Inactive)
REMARK    1  A    between atoms: O_2  and  C_3
REMARK    2  A    between atoms: C_6  and  C_9
REMARK    3  A    between atoms: C_11  and  C_12
REMARK    4  A    between atoms: C_12  and  C_13
REMARK    5  A    between atoms: C_13  and  N_17
REMARK    6  A    between atoms: N_17  and  C_18
REMARK    7  A    between atoms: C_18  and  C_19
REMARK                            x       y       z     vdW  Elec       q    Type
REMARK                         _______ _______ _______ _____ _____    ______ ____
ROOT
ATOM     12  C   UNL     1      -1.066   1.749  25.488  0.00  0.00    +0.070 C 
ENDROOT
BRANCH  12  11
ATOM      9  C   UNL     1      -1.534  -0.294  25.082  0.00  0.00    +0.177 A 
ATOM     10  C   UNL     1      -1.760   0.464  25.317  0.00  0.00    +0.058 A 
ATOM     11  C   UNL     1      -1.092   0.947  25.295  0.00  0.00    +0.102 A 
ATOM     26  N   UNL     1      -0.453   0.488  25.047  0.00  0.00    -0.081 NA
ATOM     27  O   UNL     1      -0.726  -0.279  24.916  0.00  0.00    -0.354 OA
BRANCH   9   6
ATOM      3  C   UNL     1      -3.018  -2.268  24.908  0.00  0.00    +0.139 A 
ATOM      4  C   UNL     1      -2.254  -2.296  24.595  0.00  0.00    +0.037 A 
ATOM      5  C   UNL     1      -1.760  -1.638  24.653  0.00  0.00    +0.006 A 
ATOM      6  C   UNL     1      -2.029  -0.952  25.024  0.00  0.00    +0.037 A 
ATOM      7  C   UNL     1      -2.791  -0.924  25.337  0.00  0.00    +0.006 A 
ATOM      8  C   UNL     1      -3.285  -1.582  25.279  0.00  0.00    +0.037 A 
BRANCH   3   2
ATOM      1  C   UNL     1      -3.970  -3.038  24.174  0.00  0.00    +0.252 C 
ATOM      2  O   UNL     1      -3.512  -2.926  24.850  0.00  0.00    -0.471 OA
ENDBRANCH   3   2
ENDBRANCH   9   6
ENDBRANCH  12  11
BRANCH  12  13
ATOM     13  C   UNL     1      -0.976   2.313  24.893  0.00  0.00    +0.120 C 
ATOM     14  C   UNL     1      -0.885   2.878  24.298  0.00  0.00    +0.161 C 
ATOM     15  O   UNL     1      -0.071   2.742  24.294  0.00  0.00    -0.351 OA
ATOM     16  C   UNL     1      -0.162   2.178  24.888  0.00  0.00    +0.161 C 
BRANCH  13  17
ATOM     17  N   UNL     1      -1.790   2.449  24.898  0.00  0.00    -0.211 NA
BRANCH  17  18
ATOM     18  C   UNL     1      -2.081   3.196  25.094  0.00  0.00    +0.116 C 
BRANCH  18  19
ATOM     19  C   UNL     1      -2.894   3.336  25.085  0.00  0.00    +0.006 A 
ATOM     20  C   UNL     1      -3.363   3.002  24.493  0.00  0.00    -0.002 A 
ATOM     21  C   UNL     1      -4.176   3.142  24.482  0.00  0.00    -0.000 A 
ATOM     22  C   UNL     1      -4.520   3.615  25.064  0.00  0.00    +0.001 A 
ATOM     23  C   UNL     1      -4.052   3.949  25.656  0.00  0.00    +0.011 A 
ATOM     24  C   UNL     1      -3.238   3.809  25.665  0.00  0.00    +0.055 A 
ATOM     25 CL   UNL     1      -2.770   4.142  26.257  0.00  0.00    -0.083 Cl
ENDBRANCH  18  19
ENDBRANCH  17  18
ENDBRANCH  13  17
ENDBRANCH  12  13
TORSDOF 7
ENDMDL
MODEL 4
REMARK VINA RESULT:     -10.3      2.669      5.835
REMARK  Name = 
REMARK  7 active torsions:
REMARK  status: ('A' for Active; 'I' for Inactive)
REMARK    1  A    between atoms: O_2  and  C_3
REMARK    2  A    between atoms: C_6  and  C_9
REMARK    3  A    between atoms: C_11  and  C_12
REMARK    4  A    between atoms: C_12  and  C_13
REMARK    5  A    between atoms: C_13  and  N_17
REMARK    6  A    between atoms: N_17  and  C_18
REMARK    7  A    between atoms: C_18  and  C_19
REMARK                            x       y       z     vdW  Elec       q    Type
REMARK                         _______ _______ _______ _____ _____    ______ ____
ROOT
ATOM     12  C   UNL     1      -1.445  -0.369  25.642  0.00  0.00    +0.070 C 
ENDROOT
BRANCH  12  11
ATOM      9  C   UNL     1      -1.092   1.692  25.209  0.00  0.00    +0.177 A 
ATOM     10  C   UNL     1      -1.525   1.098  25.584  0.00  0.00    +0.058 A 
ATOM     11  C   UNL     1      -1.187   0.372  25.387  0.00  0.00    +0.102 A 
ATOM     26  N   UNL     1      -0.545   0.517  24.890  0.00  0.00    -0.081 NA
ATOM     27  O   UNL     1      -0.486   1.332  24.780  0.00  0.00    -0.354 OA
BRANCH   9   6
ATOM      3  C   UNL     1      -1.534   4.123  25.346  0.00  0.00    +0.139 A 
ATOM      4  C   UNL     1      -2.163   3.592  25.288  0.00  0.00    +0.037 A 
ATOM      5  C   UNL     1      -2.016   2.781  25.242  0.00  0.00    +0.006 A 
ATOM      6  C   UNL     1      -1.239   2.502  25.255  0.00  0.00    +0.037 A 
ATOM      7  C   UNL     1      -0.611   3.033  25.313  0.00  0.00    +0.006 A 
ATOM      8  C   UNL     1      -0.759   3.843  25.359  0.00  0.00    +0.037 A 
BRANCH   3   2
ATOM      1  C   UNL     1      -1.242   5.459  24.933  0.00  0.00    +0.252 C 
ATOM      2  O   UNL     1      -1.682   4.934  25.392  0.00  0.00    -0.471 OA
ENDBRANCH   3   2
ENDBRANCH   9   6
ENDBRANCH  12  11
BRANCH  12  13
ATOM     13  C   UNL     1      -1.200  -1.050  25.246  0.00  0.00    +0.120 C 
ATOM     14  C   UNL     1      -0.954  -1.731  24.850  0.00  0.00    +0.161 C 
ATOM     15  O   UNL     1      -0.231  -1.700  25.246  0.00  0.00    -0.351 OA
ATOM     16  C   UNL     1      -0.476  -1.020  25.642  0.00  0.00    +0.161 C 
BRANCH  13  17
ATOM     17  N   UNL     1      -1.923  -1.081  24.850  0.00  0.00    -0.211 NA
BRANCH  17  18
ATOM     18  C   UNL     1      -2.413  -1.739  24.939  0.00  0.00    +0.116 C 
BRANCH  18  19
ATOM     19  C   UNL     1      -3.130  -1.776  24.531  0.00  0.00    +0.006 A 
ATOM     20  C   UNL     1      -3.411  -1.111  24.132  0.00  0.00    -0.002 A 
ATOM     21  C   UNL     1      -4.128  -1.147  23.724  0.00  0.00    -0.000 A 
ATOM     22  C   UNL     1      -4.562  -1.848  23.717  0.00  0.00    +0.001 A 
ATOM     23  C   UNL     1      -4.281  -2.513  24.117  0.00  0.00    +0.011 A 
ATOM     24  C   UNL     1      -3.564  -2.476  24.524  0.00  0.00    +0.055 A 
ATOM     25 CL   UNL     1      -3.283  -3.141  24.923  0.00  0.00    -0.083 Cl
ENDBRANCH  18  19
ENDBRANCH  17  18
ENDBRANCH  13  17
ENDBRANCH  12  13
TORSDOF 7
ENDMDL
MODEL 5
REMARK VINA RESULT:     -10.2      2.505      5.147
REMARK  Name = 
REMARK  7 active torsions:
REMARK  status: ('A' for Active; 'I' for Inactive)
REMARK    1  A    between atoms: O_2  and  C_3
REMARK    2  A    between atoms: C_6  and  C_9
REMARK    3  A    between atoms: C_11  and  C_12
REMARK    4  A    between atoms: C_12  and  C_13
REMARK    5  A    between atoms: C_13  and  N_17
REMARK    6  A    between atoms: N_17  and  C_18
REMARK    7  A    between atoms: C_18  and  C_19
REMARK                            x       y       z     vdW  Elec       q    Type
REMARK                         _______ _______ _______ _____ _____    ______ ____
ROOT
ATOM     12  C   UNL     1      -1.521   0.584  23.818  0.00  0.00    +0.070 C 
ENDROOT
BRANCH  12  11
ATOM      9  C   UNL     1      -2.666   2.337  24.235  0.00  0.00    +0.177 A 
ATOM     10  C   UNL     1      -2.554   1.521  24.283  0.00  0.00    +0.058 A 
ATOM     11  C   UNL     1      -1.846   1.338  23.901  0.00  0.00    +0.102 A 
ATOM     26  N   UNL     1      -1.520   2.040  23.617  0.00  0.00    -0.081 NA
ATOM     27  O   UNL     1      -2.026   2.658  23.823  0.00  0.00    -0.354 OA
BRANCH   9   6
ATOM      3  C   UNL     1      -4.580   3.603  25.162  0.00  0.00    +0.139 A 
ATOM      4  C   UNL     1      -3.821   3.720  25.466  0.00  0.00    +0.037 A 
ATOM      5  C   UNL     1      -3.183   3.298  25.156  0.00  0.00    +0.006 A 
ATOM      6  C   UNL     1      -3.303   2.759  24.544  0.00  0.00    +0.037 A 
ATOM      7  C   UNL     1      -4.061   2.641  24.240  0.00  0.00    +0.006 A 
ATOM      8  C   UNL     1      -4.699   3.064  24.550  0.00  0.00    +0.037 A 
BRANCH   3   2
ATOM      1  C   UNL     1      -5.894   3.625  25.721  0.00  0.00    +0.252 C 
ATOM      2  O   UNL     1      -5.217   4.025  25.471  0.00  0.00    -0.471 OA
ENDBRANCH   3   2
ENDBRANCH   9   6
ENDBRANCH  12  11
BRANCH  12  13
ATOM     13  C   UNL     1      -1.082   0.254  24.432  0.00  0.00    +0.120 C 
ATOM     14  C   UNL     1      -0.642  -0.077  25.048  0.00  0.00    +0.161 C 
ATOM     15  O   UNL     1      -0.006   0.413  24.857  0.00  0.00    -0.351 OA
ATOM     16  C   UNL     1      -0.446   0.743  24.242  0.00  0.00    +0.161 C 
BRANCH  13  17
ATOM     17  N   UNL     1      -1.718  -0.236  24.624  0.00  0.00    -0.211 NA
BRANCH  17  18
ATOM     18  C   UNL     1      -1.613  -1.055  24.652  0.00  0.00    +0.116 C 
BRANCH  18  19
ATOM     19  C   UNL     1      -2.257  -1.547  24.803  0.00  0.00    +0.006 A 
ATOM     20  C   UNL     1      -2.884  -1.274  25.265  0.00  0.00    -0.002 A 
ATOM     21  C   UNL     1      -3.529  -1.766  25.417  0.00  0.00    -0.000 A 
ATOM     22  C   UNL     1      -3.546  -2.531  25.107  0.00  0.00    +0.001 A 
ATOM     23  C   UNL     1      -2.919  -2.803  24.645  0.00  0.00    +0.011 A 
ATOM     24  C   UNL     1      -2.275  -2.311  24.494  0.00  0.00    +0.055 A 
ATOM     25 CL   UNL     1      -1.648  -2.583  24.032  0.00  0.00    -0.083 Cl
ENDBRANCH  18  19
ENDBRANCH  17  18
ENDBRANCH  13  17
ENDBRANCH  12  13
TORSDOF 7
ENDMDL
