MODEL 1
REMARK VINA RESULT:     -10.2      0.000      0.000
REMARK  Name = 
REMARK  8 active torsions:
REMARK  status: ('A' for Active; 'I' for Inactive)
REMARK    1  A    between atoms: C_2  and  C_3
REMARK    2  A    between atoms: C_8  and  C_9
REMARK    3  A    between atoms: C_9  and  C_10
REMARK    4  A    between atoms: N_12  and  C_13
REMARK    5  A    between atoms: C_13  and  C_14
REMARK    6  A    between atoms: C_14  and  N_15
REMARK    7  A    between atoms: N_23  and  C_24
REMARK    8  A    between atoms: C_28  and  O_29
REMARK                            x       y       z     vdW  Elec       q    Type
REMARK                         _______ _______ _______ _____ _____    ______ ____
ROOT
ATOM      3  C   UNL     1      -5.142   1.843  25.316  0.00  0.00    +0.020 C 
ATOM      4  C   UNL     1      -5.022   1.027  25.298  0.00  0.00    +0.095 C 
ATOM      5  N   UNL     1      -4.480   0.701  24.769  0.00  0.00    -0.263 N 
ATOM      6  C   UNL     1      -4.058   1.190  24.257  0.00  0.00    +0.095 C 
ATOM      7  C   UNL     1      -4.176   2.005  24.275  0.00  0.00    +0.022 C 
ATOM      8  C   UNL     1      -4.718   2.332  24.804  0.00  0.00    +0.012 C 
ATOM     21  C   UNL     1      -4.362  -0.116  24.752  0.00  0.00    +0.327 C 
ATOM     22  O   UNL     1      -4.785  -0.605  25.263  0.00  0.00    -0.250 OA
ATOM     23  N   UNL     1      -3.820  -0.443  24.223  0.00  0.00    -0.162 NA
ENDROOT
BRANCH  23  24
ATOM     24  C   UNL     1      -3.701  -1.259  24.205  0.00  0.00    +0.078 A 
ATOM     25  C   UNL     1      -4.261  -1.749  23.848  0.00  0.00    +0.017 A 
ATOM     26  C   UNL     1      -4.142  -2.565  23.831  0.00  0.00    +0.004 A 
ATOM     27  C   UNL     1      -3.465  -2.891  24.168  0.00  0.00    +0.037 A 
ATOM     28  C   UNL     1      -2.905  -2.401  24.525  0.00  0.00    +0.140 A 
ATOM     31  C   UNL     1      -3.023  -1.584  24.543  0.00  0.00    +0.054 A 
BRANCH  28  29
ATOM     29  O   UNL     1      -2.226  -2.727  24.863  0.00  0.00    -0.471 OA
ATOM     30  C   UNL     1      -1.484  -2.545  24.554  0.00  0.00    +0.252 C 
ENDBRANCH  28  29
ENDBRANCH  23  24
BRANCH   3   2
ATOM      1  C   UNL     1      -6.277   1.700  26.171  0.00  0.00    +0.000 C 
ATOM      2  C   UNL     1      -5.684   2.170  25.845  0.00  0.00    +0.002 C 
ENDBRANCH   3   2
BRANCH   8   9
ATOM      9  C   UNL     1      -4.837   3.149  24.821  0.00  0.00    +0.087 C 
BRANCH   9  10
ATOM     10  C   UNL     1      -4.216   3.660  24.637  0.00  0.00    +0.241 C 
ATOM     11  O   UNL     1      -4.135   3.952  23.869  0.00  0.00    -0.273 OA
ATOM     12  N   UNL     1      -3.675   3.879  25.220  0.00  0.00    -0.204 NA
BRANCH  12  13
ATOM     13  C   UNL     1      -3.055   4.390  25.035  0.00  0.00    +0.132 C 
BRANCH  13  14
ATOM     14  C   UNL     1      -2.438   4.502  25.573  0.00  0.00    +0.096 C 
BRANCH  14  15
ATOM     15  N   UNL     1      -1.661   4.556  25.303  0.00  0.00    -0.267 NA
ATOM     16  C   UNL     1      -1.366   5.278  25.034  0.00  0.00    +0.105 C 
ATOM     17  C   UNL     1      -0.588   5.331  24.764  0.00  0.00    +0.159 C 
ATOM     18  O   UNL     1      -0.105   4.663  24.763  0.00  0.00    -0.351 OA
ATOM     19  C   UNL     1      -0.400   3.941  25.032  0.00  0.00    +0.159 C 
ATOM     20  C   UNL     1      -1.177   3.886  25.302  0.00  0.00    +0.105 C 
ENDBRANCH  14  15
ENDBRANCH  13  14
ENDBRANCH  12  13
ENDBRANCH   9  10
ENDBRANCH   8   9
TORSDOF 8
ENDMDL
MODEL 2
REMARK VINA RESULT:      -9.1      2.764      5.053
REMARK  Name = 
REMARK  8 active torsions:
REMARK  status: ('A' for Active; 'I' for Inactive)
REMARK    1  A    between atoms: C_2  and  C_3
REMARK    2  A    between atoms: C_8  and  C_9
REMARK    3  A    between atoms: C_9  and  C_10
REMARK    4  A    between atoms: N_12  and  C_13
REMARK    5  A    between atoms: C_13  and  C_14
REMARK    6  A    between atoms: C_14  and  N_15
REMARK    7  A    between atoms: N_23  and  C_24
REMARK    8  A    between atoms: C_28  and  O_29
REMARK                            x       y       z     vdW  Elec       q    Type
REMARK                         _______ _______ _______ _____ _____    ______ ____
ROOT
ATOM      3  C   UNL     1      -2.574  -1.238  24.862  0.00  0.00    +0.020 C 
ATOM      4  C   UNL     1      -3.274  -0.829  25.011  0.00  0.00    +0.095 C 
ATOM      5  N   UNL     1      -3.312  -0.015  24.882  0.00  0.00    -0.263 N 
ATOM      6  C   UNL     1      -2.649   0.389  24.604  0.00  0.00    +0.095 C 
ATOM      7  C   UNL     1      -1.949  -0.019  24.456  0.00  0.00    +0.022 C 
ATOM      8  C   UNL     1      -1.911  -0.833  24.585  0.00  0.00    +0.012 C 
ATOM     21  C   UNL     1      -4.013   0.394  25.031  0.00  0.00    +0.327 C 
ATOM     22  O   UNL     1      -4.676  -0.011  25.309  0.00  0.00    -0.250 OA
ATOM     23  N   UNL     1      -4.051   1.208  24.902  0.00  0.00    -0.162 NA
ENDROOT
BRANCH  23  24
ATOM     24  C   UNL     1      -4.751   1.617  25.051  0.00  0.00    +0.078 A 
ATOM     25  C   UNL     1      -5.468   1.325  24.764  0.00  0.00    +0.017 A 
ATOM     26  C   UNL     1      -6.169   1.735  24.913  0.00  0.00    +0.004 A 
ATOM     27  C   UNL     1      -6.153   2.435  25.347  0.00  0.00    +0.037 A 
ATOM     28  C   UNL     1      -5.437   2.727  25.634  0.00  0.00    +0.140 A 
ATOM     31  C   UNL     1      -4.736   2.317  25.485  0.00  0.00    +0.054 A 
BRANCH  28  29
ATOM     29  O   UNL     1      -5.421   3.428  26.069  0.00  0.00    -0.471 OA
ATOM     30  C   UNL     1      -5.478   4.154  25.682  0.00  0.00    +0.252 C 
ENDBRANCH  28  29
ENDBRANCH  23  24
BRANCH   3   2
ATOM      1  C   UNL     1      -3.226  -2.504  24.987  0.00  0.00    +0.000 C 
ATOM      2  C   UNL     1      -2.536  -2.052  24.991  0.00  0.00    +0.002 C 
ENDBRANCH   3   2
BRANCH   8   9
ATOM      9  C   UNL     1      -1.210  -1.243  24.436  0.00  0.00    +0.087 C 
BRANCH   9  10
ATOM     10  C   UNL     1      -0.496  -0.832  24.378  0.00  0.00    +0.241 C 
ATOM     11  O   UNL     1      -0.158  -0.497  25.052  0.00  0.00    -0.273 OA
ATOM     12  N   UNL     1      -0.122  -0.756  23.647  0.00  0.00    -0.204 NA
BRANCH  12  13
ATOM     13  C   UNL     1       0.591  -0.345  23.591  0.00  0.00    +0.132 C 
BRANCH  13  14
ATOM     14  C   UNL     1       0.932  -0.212  22.851  0.00  0.00    +0.096 C 
BRANCH  14  15
ATOM     15  N   UNL     1       1.690   0.109  22.798  0.00  0.00    -0.267 NA
ATOM     16  C   UNL     1       2.264  -0.261  22.335  0.00  0.00    +0.105 C 
ATOM     17  C   UNL     1       3.022   0.061  22.284  0.00  0.00    +0.159 C 
ATOM     18  O   UNL     1       3.207   0.751  22.695  0.00  0.00    -0.351 OA
ATOM     19  C   UNL     1       2.633   1.121  23.159  0.00  0.00    +0.159 C 
ATOM     20  C   UNL     1       1.875   0.800  23.211  0.00  0.00    +0.105 C 
ENDBRANCH  14  15
ENDBRANCH  13  14
ENDBRANCH  12  13
ENDBRANCH   9  10
ENDBRANCH   8   9
TORSDOF 8
ENDMDL
MODEL 3
REMARK VINA RESULT:      -8.7      3.472      5.341
REMARK  Name = 
REMARK  8 active torsions:
REMARK  status: ('A' for Active; 'I' for Inactive)
REMARK    1  A    between atoms: C_2  and  C_3
REMARK    2  A    between atoms: C_8  and  C_9
REMARK    3  A    between atoms: C_9  and  C_10
REMARK    4  A    between atoms: N_12  and  C_13
REMARK    5  A    between atoms: C_13  and  C_14
REMARK    6  A    between atoms: C_14  and  N_15
REMARK    7  A    between atoms: N_23  and  C_24
REMARK    8  A    between atoms: C_28  and  O_29
REMARK                            x       y       z     vdW  Elec       q    Type
REMARK                         _______ _______ _______ _____ _____    ______ ____
ROOT
ATOM      3  C   UNL     1      -1.061  -0.739  24.568  0.00  0.00    +0.020 C 
ATOM      4  C   UNL     1      -0.317  -0.805  24.220  0.00  0.00    +0.095 C 
ATOM      5  N   UNL     1       0.026  -0.151  23.851  0.00  0.00    -0.263 N 
ATOM      6  C   UNL     1      -0.376   0.568  23.831  0.00  0.00    +0.095 C 
ATOM      7  C   UNL     1      -1.120   0.635  24.179  0.00  0.00    +0.022 C 
ATOM      8  C   UNL     1      -1.463  -0.019  24.548  0.00  0.00    +0.012 C 
ATOM     21  C   UNL     1       0.771  -0.218  23.503  0.00  0.00    +0.327 C 
ATOM     22  O   UNL     1       1.173  -0.937  23.523  0.00  0.00    -0.250 OA
ATOM     23  N   UNL     1       1.114   0.436  23.134  0.00  0.00    -0.162 NA
ENDROOT
BRANCH  23  24
ATOM     24  C   UNL     1       1.859   0.370  22.786  0.00  0.00    +0.078 A 
ATOM     25  C   UNL     1       1.948  -0.050  22.080  0.00  0.00    +0.017 A 
ATOM     26  C   UNL     1       2.693  -0.116  21.732  0.00  0.00    +0.004 A 
ATOM     27  C   UNL     1       3.347   0.237  22.087  0.00  0.00    +0.037 A 
ATOM     28  C   UNL     1       3.258   0.657  22.792  0.00  0.00    +0.140 A 
ATOM     31  C   UNL     1       2.513   0.723  23.141  0.00  0.00    +0.054 A 
BRANCH  28  29
ATOM     29  O   UNL     1       3.913   1.010  23.148  0.00  0.00    -0.471 OA
ATOM     30  C   UNL     1       4.630   0.605  23.185  0.00  0.00    +0.252 C 
ENDBRANCH  28  29
ENDBRANCH  23  24
BRANCH   3   2
ATOM      1  C   UNL     1      -1.341  -2.140  24.594  0.00  0.00    +0.000 C 
ATOM      2  C   UNL     1      -1.404  -1.393  24.937  0.00  0.00    +0.002 C 
ENDBRANCH   3   2
BRANCH   8   9
ATOM      9  C   UNL     1      -2.209   0.047  24.896  0.00  0.00    +0.087 C 
BRANCH   9  10
ATOM     10  C   UNL     1      -2.536   0.793  25.032  0.00  0.00    +0.241 C 
ATOM     11  O   UNL     1      -2.098   1.371  25.425  0.00  0.00    -0.273 OA
ATOM     12  N   UNL     1      -3.301   0.960  24.773  0.00  0.00    -0.204 NA
BRANCH  12  13
ATOM     13  C   UNL     1      -3.628   1.705  24.908  0.00  0.00    +0.132 C 
BRANCH  13  14
ATOM     14  C   UNL     1      -4.394   1.872  24.651  0.00  0.00    +0.096 C 
BRANCH  14  15
ATOM     15  N   UNL     1      -4.839   2.453  25.032  0.00  0.00    -0.267 NA
ATOM     16  C   UNL     1      -5.503   2.241  25.474  0.00  0.00    +0.105 C 
ATOM     17  C   UNL     1      -5.948   2.822  25.855  0.00  0.00    +0.159 C 
ATOM     18  O   UNL     1      -5.729   3.615  25.795  0.00  0.00    -0.351 OA
ATOM     19  C   UNL     1      -5.065   3.827  25.353  0.00  0.00    +0.159 C 
ATOM     20  C   UNL     1      -4.620   3.246  24.972  0.00  0.00    +0.105 C 
ENDBRANCH  14  15
ENDBRANCH  13  14
ENDBRANCH  12  13
ENDBRANCH   9  10
ENDBRANCH   8   9
TORSDOF 8
ENDMDL
MODEL 4
REMARK VINA RESULT:      -7.9      1.915      3.610
REMARK  Name = 
REMARK  8 active torsions:
REMARK  status: ('A' for Active; 'I' for Inactive)
REMARK    1  A    between atoms: C_2  and  C_3
REMARK    2  A    between atoms: C_8  and  C_9
REMARK    3  A    between atoms: C_9  and  C_10
REMARK    4  A    between atoms: N_12  and  C_13
REMARK    5  A    between atoms: C_13  and  C_14
REMARK    6  A    between atoms: C_14  and  N_15
REMARK    7  A    between atoms: N_23  and  C_24
REMARK    8  A    between atoms: C_28  and  O_29
REMARK                            x       y       z     vdW  Elec       q    Type
REMARK                         _______ _______ _______ _____ _____    ______ ____
ROOT
ATOM      3  C   UNL     1      -0.038   1.020  24.385  0.00  0.00    +0.020 C 
ATOM      4  C   UNL     1      -0.398   0.299  24.209  0.00  0.00    +0.095 C 
ATOM      5  N   UNL     1      -0.999   0.007  24.694  0.00  0.00    -0.263 N 
ATOM      6  C   UNL     1      -1.239   0.437  25.355  0.00  0.00    +0.095 C 
ATOM      7  C   UNL     1      -0.880   1.157  25.532  0.00  0.00    +0.022 C 
ATOM      8  C   UNL     1      -0.280   1.449  25.047  0.00  0.00    +0.012 C 
ATOM     21  C   UNL     1      -1.358  -0.714  24.516  0.00  0.00    +0.327 C 
ATOM     22  O   UNL     1      -1.117  -1.143  23.855  0.00  0.00    -0.250 OA
ATOM     23  N   UNL     1      -1.958  -1.006  25.001  0.00  0.00    -0.162 NA
ENDROOT
BRANCH  23  24
ATOM     24  C   UNL     1      -2.318  -1.727  24.824  0.00  0.00    +0.078 A 
ATOM     25  C   UNL     1      -1.873  -2.422  24.830  0.00  0.00    +0.017 A 
ATOM     26  C   UNL     1      -2.233  -3.143  24.654  0.00  0.00    +0.004 A 
ATOM     27  C   UNL     1      -3.036  -3.169  24.472  0.00  0.00    +0.037 A 
ATOM     28  C   UNL     1      -3.481  -2.475  24.466  0.00  0.00    +0.140 A 
ATOM     31  C   UNL     1      -3.121  -1.753  24.642  0.00  0.00    +0.054 A 
BRANCH  28  29
ATOM     29  O   UNL     1      -4.285  -2.502  24.283  0.00  0.00    -0.471 OA
ATOM     30  C   UNL     1      -4.535  -2.395  23.505  0.00  0.00    +0.252 C 
ENDBRANCH  28  29
ENDBRANCH  23  24
BRANCH   3   2
ATOM      1  C   UNL     1       0.980   0.799  23.407  0.00  0.00    +0.000 C 
ATOM      2  C   UNL     1       0.562   1.311  23.900  0.00  0.00    +0.002 C 
ENDBRANCH   3   2
BRANCH   8   9
ATOM      9  C   UNL     1       0.080   2.171  25.224  0.00  0.00    +0.087 C 
BRANCH   9  10
ATOM     10  C   UNL     1      -0.339   2.751  25.636  0.00  0.00    +0.241 C 
ATOM     11  O   UNL     1      -0.231   2.839  26.449  0.00  0.00    -0.273 OA
ATOM     12  N   UNL     1      -0.866   3.241  25.234  0.00  0.00    -0.204 NA
BRANCH  12  13
ATOM     13  C   UNL     1      -1.285   3.820  25.645  0.00  0.00    +0.132 C 
BRANCH  13  14
ATOM     14  C   UNL     1      -1.838   4.288  25.250  0.00  0.00    +0.096 C 
BRANCH  14  15
ATOM     15  N   UNL     1      -2.645   4.161  25.368  0.00  0.00    -0.267 NA
ATOM     16  C   UNL     1      -2.969   4.237  26.123  0.00  0.00    +0.105 C 
ATOM     17  C   UNL     1      -3.776   4.110  26.240  0.00  0.00    +0.159 C 
ATOM     18  O   UNL     1      -4.258   3.906  25.603  0.00  0.00    -0.351 OA
ATOM     19  C   UNL     1      -3.934   3.830  24.848  0.00  0.00    +0.159 C 
ATOM     20  C   UNL     1      -3.128   3.957  24.730  0.00  0.00    +0.105 C 
ENDBRANCH  14  15
ENDBRANCH  13  14
ENDBRANCH  12  13
ENDBRANCH   9  10
ENDBRANCH   8   9
TORSDOF 8
ENDMDL
MODEL 5
REMARK VINA RESULT:      -7.9      4.212      5.513
REMARK  Name = 
REMARK  8 active torsions:
REMARK  status: ('A' for Active; 'I' for Inactive)
REMARK    1  A    between atoms: C_2  and  C_3
REMARK    2  A    between atoms: C_8  and  C_9
REMARK    3  A    between atoms: C_9  and  C_10
REMARK    4  A    between atoms: N_12  and  C_13
REMARK    5  A    between atoms: C_13  and  C_14
REMARK    6  A    between atoms: C_14  and  N_15
REMARK    7  A    between atoms: N_23  and  C_24
REMARK    8  A    between atoms: C_28  and  O_29
REMARK                            x       y       z     vdW  Elec       q    Type
REMARK                         _______ _______ _______ _____ _____    ______ ____
ROOT
ATOM      3  C   UNL     1      -0.000   1.530  24.156  0.00  0.00    +0.020 C 
ATOM      4  C   UNL     1      -0.706   1.225  24.456  0.00  0.00    +0.095 C 
ATOM      5  N   UNL     1      -0.882   0.424  24.365  0.00  0.00    -0.263 N 
ATOM      6  C   UNL     1      -0.352  -0.072  23.974  0.00  0.00    +0.095 C 
ATOM      7  C   UNL     1       0.353   0.232  23.674  0.00  0.00    +0.022 C 
ATOM      8  C   UNL     1       0.529   1.033  23.765  0.00  0.00    +0.012 C 
ATOM     21  C   UNL     1      -1.588   0.121  24.665  0.00  0.00    +0.327 C 
ATOM     22  O   UNL     1      -2.117   0.617  25.056  0.00  0.00    -0.250 OA
ATOM     23  N   UNL     1      -1.764  -0.680  24.574  0.00  0.00    -0.162 NA
ENDROOT
BRANCH  23  24
ATOM     24  C   UNL     1      -2.469  -0.985  24.874  0.00  0.00    +0.078 A 
ATOM     25  C   UNL     1      -2.559  -1.091  25.688  0.00  0.00    +0.017 A 
ATOM     26  C   UNL     1      -3.265  -1.396  25.988  0.00  0.00    +0.004 A 
ATOM     27  C   UNL     1      -3.879  -1.594  25.476  0.00  0.00    +0.037 A 
ATOM     28  C   UNL     1      -3.789  -1.488  24.663  0.00  0.00    +0.140 A 
ATOM     31  C   UNL     1      -3.083  -1.183  24.362  0.00  0.00    +0.054 A 
BRANCH  28  29
ATOM     29  O   UNL     1      -4.405  -1.686  24.150  0.00  0.00    -0.471 OA
ATOM     30  C   UNL     1      -4.394  -2.409  23.754  0.00  0.00    +0.252 C 
ENDBRANCH  28  29
ENDBRANCH  23  24
BRANCH   3   2
ATOM      1  C   UNL     1      -0.291   2.803  24.738  0.00  0.00    +0.000 C 
ATOM      2  C   UNL     1       0.175   2.331  24.247  0.00  0.00    +0.002 C 
ENDBRANCH   3   2
BRANCH   8   9
ATOM      9  C   UNL     1       1.235   1.337  23.465  0.00  0.00    +0.087 C 
BRANCH   9  10
ATOM     10  C   UNL     1       1.796   0.829  23.134  0.00  0.00    +0.241 C 
ATOM     11  O   UNL     1       1.554   0.215  22.639  0.00  0.00    -0.273 OA
ATOM     12  N   UNL     1       2.597   0.937  23.298  0.00  0.00    -0.204 NA
BRANCH  12  13
ATOM     13  C   UNL     1       3.156   0.429  22.967  0.00  0.00    +0.132 C 
BRANCH  13  14
ATOM     14  C   UNL     1       3.947   0.664  22.916  0.00  0.00    +0.096 C 
BRANCH  14  15
ATOM     15  N   UNL     1       4.531   0.227  23.300  0.00  0.00    -0.267 NA
ATOM     16  C   UNL     1       5.219   0.599  23.563  0.00  0.00    +0.105 C 
ATOM     17  C   UNL     1       5.803   0.160  23.947  0.00  0.00    +0.159 C 
ATOM     18  O   UNL     1       5.700  -0.648  24.068  0.00  0.00    -0.351 OA
ATOM     19  C   UNL     1       5.013  -1.020  23.804  0.00  0.00    +0.159 C 
ATOM     20  C   UNL     1       4.428  -0.584  23.420  0.00  0.00    +0.105 C 
ENDBRANCH  14  15
ENDBRANCH  13  14
ENDBRANCH  12  13
ENDBRANCH   9  10
ENDBRANCH   8   9
TORSDOF 8
ENDMDL
MODEL 6
REMARK VINA RESULT:      -7.8      1.970      5.737
REMARK  Name = 
REMARK  8 active torsions:
REMARK  status: ('A' for Active; 'I' for Inactive)
REMARK    1  A    between atoms: C_2  and  C_3
REMARK    2  A    between atoms: C_8  and  C_9
REMARK    3  A    between atoms: C_9  and  C_10
REMARK    4  A    between atoms: N_12  and  C_13
REMARK    5  A    between atoms: C_13  and  C_14
REMARK    6  A    between atoms: C_14  and  N_15
REMARK    7  A    between atoms: N_23  and  C_24
REMARK    8  A    between atoms: C_28  and  O_29
REMARK                            x       y       z     vdW  Elec       q    Type
REMARK                         _______ _______ _______ _____ _____    ______ ____
ROOT
ATOM      3  C   UNL     1      -0.717   2.104  25.235  0.00  0.00    +0.020 C 
ATOM      4  C   UNL     1      -1.382   2.550  25.436  0.00  0.00    +0.095 C 
ATOM      5  N   UNL     1      -2.102   2.410  25.058  0.00  0.00    -0.263 N 
ATOM      6  C   UNL     1      -2.158   1.825  24.480  0.00  0.00    +0.095 C 
ATOM      7  C   UNL     1      -1.494   1.379  24.280  0.00  0.00    +0.022 C 
ATOM      8  C   UNL     1      -0.774   1.518  24.657  0.00  0.00    +0.012 C 
ATOM     21  C   UNL     1      -2.766   2.857  25.259  0.00  0.00    +0.327 C 
ATOM     22  O   UNL     1      -2.710   3.442  25.837  0.00  0.00    -0.250 OA
ATOM     23  N   UNL     1      -3.486   2.718  24.882  0.00  0.00    -0.162 NA
ENDROOT
BRANCH  23  24
ATOM     24  C   UNL     1      -4.151   3.164  25.082  0.00  0.00    +0.078 A 
ATOM     25  C   UNL     1      -4.219   3.942  24.816  0.00  0.00    +0.017 A 
ATOM     26  C   UNL     1      -4.884   4.388  25.017  0.00  0.00    +0.004 A 
ATOM     27  C   UNL     1      -5.479   4.057  25.481  0.00  0.00    +0.037 A 
ATOM     28  C   UNL     1      -5.410   3.279  25.746  0.00  0.00    +0.140 A 
ATOM     31  C   UNL     1      -4.745   2.832  25.546  0.00  0.00    +0.054 A 
BRANCH  28  29
ATOM     29  O   UNL     1      -6.006   2.947  26.211  0.00  0.00    -0.471 OA
ATOM     30  C   UNL     1      -6.249   2.171  26.076  0.00  0.00    +0.252 C 
ENDBRANCH  28  29
ENDBRANCH  23  24
BRANCH   3   2
ATOM      1  C   UNL     1       0.025   2.686  26.309  0.00  0.00    +0.000 C 
ATOM      2  C   UNL     1       0.003   2.243  25.613  0.00  0.00    +0.002 C 
ENDBRANCH   3   2
BRANCH   8   9
ATOM      9  C   UNL     1      -0.109   1.072  24.457  0.00  0.00    +0.087 C 
BRANCH   9  10
ATOM     10  C   UNL     1      -0.199   0.298  24.184  0.00  0.00    +0.241 C 
ATOM     11  O   UNL     1      -0.042   0.117  23.394  0.00  0.00    -0.273 OA
ATOM     12  N   UNL     1      -0.446  -0.295  24.701  0.00  0.00    -0.204 NA
BRANCH  12  13
ATOM     13  C   UNL     1      -0.536  -1.068  24.428  0.00  0.00    +0.132 C 
BRANCH  13  14
ATOM     14  C   UNL     1      -0.804  -1.658  24.940  0.00  0.00    +0.096 C 
BRANCH  14  15
ATOM     15  N   UNL     1      -1.512  -2.050  24.782  0.00  0.00    -0.267 NA
ATOM     16  C   UNL     1      -1.545  -2.620  24.187  0.00  0.00    +0.105 C 
ATOM     17  C   UNL     1      -2.254  -3.012  24.030  0.00  0.00    +0.159 C 
ATOM     18  O   UNL     1      -2.930  -2.833  24.467  0.00  0.00    -0.351 OA
ATOM     19  C   UNL     1      -2.897  -2.263  25.062  0.00  0.00    +0.159 C 
ATOM     20  C   UNL     1      -2.189  -1.871  25.221  0.00  0.00    +0.105 C 
ENDBRANCH  14  15
ENDBRANCH  13  14
ENDBRANCH  12  13
ENDBRANCH   9  10
ENDBRANCH   8   9
TORSDOF 8
ENDMDL
