REMARK  Name = 
REMARK  5 active torsions:
REMARK  status: ('A' for Active; 'I' for Inactive)
REMARK    1  A    between atoms: O_2  and  C_3
REMARK    2  A    between atoms: C_6  and  C_9
REMARK    3  A    between atoms: C_12  and  C_14
REMARK    4  A    between atoms: N_18  and  C_19
REMARK    5  A    between atoms: C_19  and  C_20
REMARK                            x       y       z     vdW  Elec       q    Type
REMARK                         _______ _______ _______ _____ _____    ______ ____
ROOT
ATOM      9  C   UNL     1       0.381  -2.790   0.000  0.00  0.00    +0.205 A 
ATOM     10  N   UNL     1       1.048  -3.275   0.000  0.00  0.00    -0.056 NA
ATOM     11  O   UNL     1       0.793  -4.060   0.000  0.00  0.00    -0.336 OA
ATOM     12  C   UNL     1      -0.032  -4.060   0.000  0.00  0.00    +0.251 A 
ATOM     13  N   UNL     1      -0.287  -3.275   0.000  0.00  0.00    -0.190 NA
ENDROOT
BRANCH   9   6
ATOM      3  C   UNL     1       0.381  -0.315   0.000  0.00  0.00    +0.225 A 
ATOM      4  N   UNL     1       1.095  -0.728   0.000  0.00  0.00    -0.210 NA
ATOM      5  C   UNL     1       1.095  -1.553   0.000  0.00  0.00    +0.105 A 
ATOM      6  C   UNL     1       0.381  -1.965   0.000  0.00  0.00    +0.058 A 
ATOM      7  C   UNL     1      -0.334  -1.553   0.000  0.00  0.00    +0.010 A 
ATOM      8  C   UNL     1      -0.334  -0.728   0.000  0.00  0.00    +0.058 A 
BRANCH   3   2
ATOM      1  C   UNL     1      -0.334   0.922   0.000  0.00  0.00    +0.254 C 
ATOM      2  O   UNL     1       0.381   0.510   0.000  0.00  0.00    -0.456 OA
ENDBRANCH   3   2
ENDBRANCH   9   6
BRANCH  12  14
ATOM     14  C   UNL     1      -0.517  -4.727   0.000  0.00  0.00    +0.138 C 
ATOM     15  C   UNL     1      -1.342  -4.727   0.000  0.00  0.00    +0.027 C 
ATOM     16  C   UNL     1      -1.597  -5.512   0.000  0.00  0.00    +0.019 C 
ATOM     17  C   UNL     1      -0.929  -5.997   0.000  0.00  0.00    +0.073 C 
ATOM     18  N   UNL     1      -0.262  -5.512   0.000  0.00  0.00    -0.263 NA
BRANCH  18  19
ATOM     19  C   UNL     1       0.523  -5.767   0.000  0.00  0.00    +0.102 C 
BRANCH  19  20
ATOM     20  C   UNL     1       0.694  -6.574   0.000  0.00  0.00    +0.021 A 
ATOM     21  C   UNL     1       1.479  -6.829   0.000  0.00  0.00    -0.001 A 
ATOM     22  C   UNL     1       1.650  -7.636   0.000  0.00  0.00    -0.000 A 
ATOM     23  C   UNL     1       1.037  -8.188   0.000  0.00  0.00    +0.002 A 
ATOM     24  C   UNL     1       0.253  -7.933   0.000  0.00  0.00    +0.029 A 
ATOM     25  C   UNL     1       0.081  -7.126   0.000  0.00  0.00    +0.137 A 
ATOM     26  F   UNL     1      -0.704  -6.871   0.000  0.00  0.00    -0.204 F 
ENDBRANCH  19  20
ENDBRANCH  18  19
ENDBRANCH  12  14
TORSDOF 5
