REMARK  Name = 
REMARK  7 active torsions:
REMARK  status: ('A' for Active; 'I' for Inactive)
REMARK    1  A    between atoms: C_2  and  C_3
REMARK    2  A    between atoms: C_3  and  C_4
REMARK    3  A    between atoms: C_9  and  C_10
REMARK    4  A    between atoms: C_10  and  C_11
REMARK    5  A    between atoms: C_14  and  C_15
REMARK    6  A    between atoms: C_15  and  S_16
REMARK    7  A    between atoms: S_16  and  C_17
REMARK                            x       y       z     vdW  Elec       q    Type
REMARK                         _______ _______ _______ _____ _____    ______ ____
ROOT
ATOM      4  C   UNL     1       4.895  -2.949   0.000  0.00  0.00    +0.012 C 
ATOM      5  C   UNL     1       5.609  -2.537   0.000  0.00  0.00    +0.019 C 
ATOM      6  C   UNL     1       6.324  -2.949   0.000  0.00  0.00    +0.089 C 
ATOM      7  N   UNL     1       6.324  -3.774   0.000  0.00  0.00    -0.218 NA
ATOM      8  C   UNL     1       5.609  -4.187   0.000  0.00  0.00    +0.089 C 
ATOM      9  C   UNL     1       4.895  -3.774   0.000  0.00  0.00    +0.024 C 
ENDROOT
BRANCH   4   3
ATOM      3  C   UNL     1       4.180  -2.537   0.000  0.00  0.00    +0.085 C 
BRANCH   3   2
ATOM      1  O   UNL     1       3.466  -1.299   0.000  0.00  0.00    -0.275 OA
ATOM      2  C   UNL     1       4.180  -1.712   0.000  0.00  0.00    +0.226 C 
ATOM     24  N   UNL     1       4.895  -1.299   0.000  0.00  0.00    -0.276 N 
ATOM     25  C   UNL     1       4.895  -0.474   0.000  0.00  0.00    +0.115 C 
ATOM     26  C   UNL     1       5.609  -0.062   0.000  0.00  0.00    +0.114 C 
ATOM     27  N   UNL     1       6.324  -0.474   0.000  0.00  0.00    -0.290 N 
ATOM     28  C   UNL     1       6.324  -1.299   0.000  0.00  0.00    +0.114 C 
ATOM     29  C   UNL     1       5.609  -1.712   0.000  0.00  0.00    +0.115 C 
ATOM     30  C   UNL     1       7.038  -0.062   0.000  0.00  0.00    +0.132 A 
ATOM     31  N   UNL     1       7.038   0.763   0.000  0.00  0.00    -0.229 NA
ATOM     32  C   UNL     1       7.753   1.176   0.000  0.00  0.00    +0.100 A 
ATOM     33  C   UNL     1       8.467   0.763   0.000  0.00  0.00    +0.021 A 
ATOM     34  C   UNL     1       8.467  -0.062   0.000  0.00  0.00    +0.004 A 
ATOM     35  C   UNL     1       7.753  -0.474   0.000  0.00  0.00    +0.034 A 
ENDBRANCH   3   2
ENDBRANCH   4   3
BRANCH   9  10
ATOM     10  C   UNL     1       4.180  -4.187   0.000  0.00  0.00    +0.051 C 
BRANCH  10  11
ATOM     11  C   UNL     1       4.180  -5.012   0.000  0.00  0.00    +0.100 A 
ATOM     12  N   UNL     1       4.848  -5.497   0.000  0.00  0.00    -0.082 NA
ATOM     13  O   UNL     1       4.593  -6.281   0.000  0.00  0.00    -0.357 OA
ATOM     14  C   UNL     1       3.768  -6.281   0.000  0.00  0.00    +0.165 A 
ATOM     23  C   UNL     1       3.513  -5.497   0.000  0.00  0.00    +0.054 A 
BRANCH  14  15
ATOM     15  C   UNL     1       3.283  -6.949   0.000  0.00  0.00    +0.129 C 
BRANCH  15  16
ATOM     16  S   UNL     1       3.618  -7.702   0.000  0.00  0.00    -0.105 S 
BRANCH  16  17
ATOM     17  C   UNL     1       3.133  -8.370   0.000  0.00  0.00    +0.026 A 
ATOM     18  C   UNL     1       3.469  -9.123   0.000  0.00  0.00    +0.006 A 
ATOM     19  C   UNL     1       2.984  -9.791   0.000  0.00  0.00    +0.001 A 
ATOM     20  C   UNL     1       2.163  -9.705   0.000  0.00  0.00    +0.000 A 
ATOM     21  C   UNL     1       1.828  -8.951   0.000  0.00  0.00    +0.001 A 
ATOM     22  C   UNL     1       2.313  -8.284   0.000  0.00  0.00    +0.006 A 
ENDBRANCH  16  17
ENDBRANCH  15  16
ENDBRANCH  14  15
ENDBRANCH  10  11
ENDBRANCH   9  10
TORSDOF 7
