MODEL 1
REMARK VINA RESULT:     -12.0      0.000      0.000
REMARK  Name = 
REMARK  8 active torsions:
REMARK  status: ('A' for Active; 'I' for Inactive)
REMARK    1  A    between atoms: O_2  and  C_3
REMARK    2  A    between atoms: C_3  and  C_4
REMARK    3  A    between atoms: C_4  and  O_5
REMARK    4  A    between atoms: O_5  and  C_6
REMARK    5  A    between atoms: C_7  and  C_12
REMARK    6  A    between atoms: C_15  and  C_17
REMARK    7  A    between atoms: N_21  and  C_22
REMARK    8  A    between atoms: C_22  and  C_23
REMARK                            x       y       z     vdW  Elec       q    Type
REMARK                         _______ _______ _______ _____ _____    ______ ____
ROOT
ATOM     12  C   UNL     1      -2.812   3.013  24.534  0.00  0.00    +0.208 A 
ATOM     13  N   UNL     1      -3.135   2.925  23.780  0.00  0.00    -0.056 NA
ATOM     14  O   UNL     1      -3.833   2.489  23.851  0.00  0.00    -0.336 OA
ATOM     15  C   UNL     1      -3.940   2.309  24.649  0.00  0.00    +0.251 A 
ATOM     16  N   UNL     1      -3.309   2.633  25.071  0.00  0.00    -0.189 NA
ENDROOT
BRANCH  12   7
ATOM      6  C   UNL     1      -1.388   3.025  24.654  0.00  0.00    +0.228 A 
ATOM      7  C   UNL     1      -2.114   3.412  24.717  0.00  0.00    +0.092 A 
ATOM      8  C   UNL     1      -2.141   4.199  24.964  0.00  0.00    +0.009 A 
ATOM      9  C   UNL     1      -1.443   4.598  25.148  0.00  0.00    +0.021 A 
ATOM     10  C   UNL     1      -0.717   4.211  25.084  0.00  0.00    +0.102 A 
ATOM     11  N   UNL     1      -0.690   3.425  24.837  0.00  0.00    -0.210 NA
BRANCH   6   5
ATOM      5  O   UNL     1      -1.360   2.238  24.407  0.00  0.00    -0.457 OA
BRANCH   5   4
ATOM      4  C   UNL     1      -0.661   1.807  24.482  0.00  0.00    +0.239 C 
BRANCH   4   3
ATOM      3  C   UNL     1      -0.582   1.081  24.099  0.00  0.00    +0.189 C 
BRANCH   3   2
ATOM      1  C   UNL     1      -0.260  -0.310  24.155  0.00  0.00    +0.174 C 
ATOM      2  O   UNL     1      -0.456   0.394  24.538  0.00  0.00    -0.347 OA
ENDBRANCH   3   2
ENDBRANCH   4   3
ENDBRANCH   5   4
ENDBRANCH   6   5
ENDBRANCH  12   7
BRANCH  15  17
ATOM     17  C   UNL     1      -4.568   1.880  24.970  0.00  0.00    +0.138 C 
ATOM     18  C   UNL     1      -5.213   2.196  25.377  0.00  0.00    +0.027 C 
ATOM     19  C   UNL     1      -5.705   1.572  25.598  0.00  0.00    +0.019 C 
ATOM     20  C   UNL     1      -5.363   0.870  25.329  0.00  0.00    +0.073 C 
ATOM     21  N   UNL     1      -4.661   1.061  24.941  0.00  0.00    -0.263 NA
BRANCH  21  22
ATOM     22  C   UNL     1      -4.143   0.527  24.585  0.00  0.00    +0.101 C 
BRANCH  22  23
ATOM     23  C   UNL     1      -3.961  -0.184  24.962  0.00  0.00    +0.014 A 
ATOM     24  C   UNL     1      -3.785  -0.277  25.763  0.00  0.00    +0.096 A 
ATOM     25  N   UNL     1      -3.638  -1.077  25.901  0.00  0.00    -0.244 NA
ATOM     26  C   UNL     1      -3.724  -1.478  25.185  0.00  0.00    +0.081 A 
ATOM     27  C   UNL     1      -3.923  -0.926  24.605  0.00  0.00    +0.016 A 
ATOM     28  C   UNL     1      -4.045  -1.172  23.827  0.00  0.00    +0.001 A 
ATOM     29  C   UNL     1      -3.967  -1.968  23.629  0.00  0.00    +0.000 A 
ATOM     30  C   UNL     1      -3.767  -2.520  24.209  0.00  0.00    +0.002 A 
ATOM     31  C   UNL     1      -3.646  -2.276  24.987  0.00  0.00    +0.019 A 
ENDBRANCH  22  23
ENDBRANCH  21  22
ENDBRANCH  15  17
TORSDOF 8
ENDMDL
MODEL 2
REMARK VINA RESULT:     -11.7      1.143      4.269
REMARK  Name = 
REMARK  8 active torsions:
REMARK  status: ('A' for Active; 'I' for Inactive)
REMARK    1  A    between atoms: O_2  and  C_3
REMARK    2  A    between atoms: C_3  and  C_4
REMARK    3  A    between atoms: C_4  and  O_5
REMARK    4  A    between atoms: O_5  and  C_6
REMARK    5  A    between atoms: C_7  and  C_12
REMARK    6  A    between atoms: C_15  and  C_17
REMARK    7  A    between atoms: N_21  and  C_22
REMARK    8  A    between atoms: C_22  and  C_23
REMARK                            x       y       z     vdW  Elec       q    Type
REMARK                         _______ _______ _______ _____ _____    ______ ____
ROOT
ATOM     12  C   UNL     1      -3.629  -0.241  24.394  0.00  0.00    +0.208 A 
ATOM     13  N   UNL     1      -3.609   0.157  23.672  0.00  0.00    -0.056 NA
ATOM     14  O   UNL     1      -3.945   0.903  23.783  0.00  0.00    -0.336 OA
ATOM     15  C   UNL     1      -4.172   0.965  24.573  0.00  0.00    +0.251 A 
ATOM     16  N   UNL     1      -3.977   0.258  24.951  0.00  0.00    -0.189 NA
ENDROOT
BRANCH  12   7
ATOM      6  C   UNL     1      -2.538  -1.145  24.579  0.00  0.00    +0.228 A 
ATOM      7  C   UNL     1      -3.349  -1.004  24.534  0.00  0.00    +0.092 A 
ATOM      8  C   UNL     1      -3.882  -1.627  24.629  0.00  0.00    +0.009 A 
ATOM      9  C   UNL     1      -3.603  -2.391  24.769  0.00  0.00    +0.021 A 
ATOM     10  C   UNL     1      -2.792  -2.532  24.814  0.00  0.00    +0.102 A 
ATOM     11  N   UNL     1      -2.259  -1.909  24.719  0.00  0.00    -0.210 NA
BRANCH   6   5
ATOM      5  O   UNL     1      -2.005  -0.522  24.484  0.00  0.00    -0.457 OA
BRANCH   5   4
ATOM      4  C   UNL     1      -1.193  -0.670  24.488  0.00  0.00    +0.239 C 
BRANCH   4   3
ATOM      3  C   UNL     1      -0.665  -0.072  24.281  0.00  0.00    +0.189 C 
BRANCH   3   2
ATOM      1  C   UNL     1       0.496   0.254  23.513  0.00  0.00    +0.174 C 
ATOM      2  O   UNL     1       0.091  -0.264  24.012  0.00  0.00    -0.347 OA
ENDBRANCH   3   2
ENDBRANCH   4   3
ENDBRANCH   5   4
ENDBRANCH   6   5
ENDBRANCH  12   7
BRANCH  15  17
ATOM     17  C   UNL     1      -4.532   1.619  24.925  0.00  0.00    +0.138 C 
ATOM     18  C   UNL     1      -5.331   1.686  25.120  0.00  0.00    +0.027 C 
ATOM     19  C   UNL     1      -5.449   2.429  25.459  0.00  0.00    +0.019 C 
ATOM     20  C   UNL     1      -4.723   2.821  25.473  0.00  0.00    +0.073 C 
ATOM     21  N   UNL     1      -4.156   2.320  25.144  0.00  0.00    -0.263 NA
BRANCH  21  22
ATOM     22  C   UNL     1      -3.355   2.491  25.049  0.00  0.00    +0.101 C 
BRANCH  22  23
ATOM     23  C   UNL     1      -3.053   3.211  25.313  0.00  0.00    +0.014 A 
ATOM     24  C   UNL     1      -3.442   3.751  25.800  0.00  0.00    +0.096 A 
ATOM     25  N   UNL     1      -2.938   4.392  25.925  0.00  0.00    -0.244 NA
ATOM     26  C   UNL     1      -2.238   4.248  25.515  0.00  0.00    +0.081 A 
ATOM     27  C   UNL     1      -2.308   3.519  25.137  0.00  0.00    +0.016 A 
ATOM     28  C   UNL     1      -1.685   3.229  24.680  0.00  0.00    +0.001 A 
ATOM     29  C   UNL     1      -0.992   3.668  24.602  0.00  0.00    +0.000 A 
ATOM     30  C   UNL     1      -0.921   4.398  24.980  0.00  0.00    +0.002 A 
ATOM     31  C   UNL     1      -1.544   4.689  25.437  0.00  0.00    +0.019 A 
ENDBRANCH  22  23
ENDBRANCH  21  22
ENDBRANCH  15  17
TORSDOF 8
ENDMDL
MODEL 3
REMARK VINA RESULT:     -11.6      1.306      3.171
REMARK  Name = 
REMARK  8 active torsions:
REMARK  status: ('A' for Active; 'I' for Inactive)
REMARK    1  A    between atoms: O_2  and  C_3
REMARK    2  A    between atoms: C_3  and  C_4
REMARK    3  A    between atoms: C_4  and  O_5
REMARK    4  A    between atoms: O_5  and  C_6
REMARK    5  A    between atoms: C_7  and  C_12
REMARK    6  A    between atoms: C_15  and  C_17
REMARK    7  A    between atoms: N_21  and  C_22
REMARK    8  A    between atoms: C_22  and  C_23
REMARK                            x       y       z     vdW  Elec       q    Type
REMARK                         _______ _______ _______ _____ _____    ______ ____
ROOT
ATOM     12  C   UNL     1      -1.115   2.494  25.230  0.00  0.00    +0.208 A 
ATOM     13  N   UNL     1      -1.030   2.051  25.921  0.00  0.00    -0.056 NA
ATOM     14  O   UNL     1      -0.781   1.293  25.709  0.00  0.00    -0.336 OA
ATOM     15  C   UNL     1      -0.714   1.268  24.888  0.00  0.00    +0.251 A 
ATOM     16  N   UNL     1      -0.920   2.010  24.591  0.00  0.00    -0.189 NA
ENDROOT
BRANCH  12   7
ATOM      6  C   UNL     1      -2.157   3.469  25.162  0.00  0.00    +0.228 A 
ATOM      7  C   UNL     1      -1.354   3.282  25.187  0.00  0.00    +0.092 A 
ATOM      8  C   UNL     1      -0.789   3.883  25.168  0.00  0.00    +0.009 A 
ATOM      9  C   UNL     1      -1.028   4.672  25.125  0.00  0.00    +0.021 A 
ATOM     10  C   UNL     1      -1.831   4.859  25.100  0.00  0.00    +0.102 A 
ATOM     11  N   UNL     1      -2.395   4.258  25.119  0.00  0.00    -0.210 NA
BRANCH   6   5
ATOM      5  O   UNL     1      -2.722   2.868  25.181  0.00  0.00    -0.457 OA
BRANCH   5   4
ATOM      4  C   UNL     1      -3.519   3.046  25.064  0.00  0.00    +0.239 C 
BRANCH   4   3
ATOM      3  C   UNL     1      -4.096   2.479  25.222  0.00  0.00    +0.189 C 
BRANCH   3   2
ATOM      1  C   UNL     1      -5.492   2.205  25.084  0.00  0.00    +0.174 C 
ATOM      2  O   UNL     1      -4.772   2.438  24.752  0.00  0.00    -0.347 OA
ENDBRANCH   3   2
ENDBRANCH   4   3
ENDBRANCH   5   4
ENDBRANCH   6   5
ENDBRANCH  12   7
BRANCH  15  17
ATOM     17  C   UNL     1      -0.480   0.615  24.440  0.00  0.00    +0.138 C 
ATOM     18  C   UNL     1       0.211   0.557  23.991  0.00  0.00    +0.027 C 
ATOM     19  C   UNL     1       0.221  -0.188  23.636  0.00  0.00    +0.019 C 
ATOM     20  C   UNL     1      -0.463  -0.589  23.865  0.00  0.00    +0.073 C 
ATOM     21  N   UNL     1      -0.896  -0.093  24.361  0.00  0.00    -0.263 NA
BRANCH  21  22
ATOM     22  C   UNL     1      -1.618  -0.273  24.716  0.00  0.00    +0.101 C 
BRANCH  22  23
ATOM     23  C   UNL     1      -1.917  -1.041  24.677  0.00  0.00    +0.014 A 
ATOM     24  C   UNL     1      -1.488  -1.735  24.802  0.00  0.00    +0.096 A 
ATOM     25  N   UNL     1      -2.002  -2.373  24.709  0.00  0.00    -0.244 NA
ATOM     26  C   UNL     1      -2.748  -2.073  24.526  0.00  0.00    +0.081 A 
ATOM     27  C   UNL     1      -2.695  -1.250  24.506  0.00  0.00    +0.016 A 
ATOM     28  C   UNL     1      -3.364  -0.798  24.335  0.00  0.00    +0.001 A 
ATOM     29  C   UNL     1      -4.085  -1.168  24.184  0.00  0.00    +0.000 A 
ATOM     30  C   UNL     1      -4.138  -1.991  24.203  0.00  0.00    +0.002 A 
ATOM     31  C   UNL     1      -3.470  -2.444  24.374  0.00  0.00    +0.019 A 
ENDBRANCH  22  23
ENDBRANCH  21  22
ENDBRANCH  15  17
TORSDOF 8
ENDMDL
MODEL 4
REMARK VINA RESULT:     -11.1      1.381      3.054
REMARK  Name = 
REMARK  8 active torsions:
REMARK  status: ('A' for Active; 'I' for Inactive)
REMARK    1  A    between atoms: O_2  and  C_3
REMARK    2  A    between atoms: C_3  and  C_4
REMARK    3  A    between atoms: C_4  and  O_5
REMARK    4  A    between atoms: O_5  and  C_6
REMARK    5  A    between atoms: C_7  and  C_12
REMARK    6  A    between atoms: C_15  and  C_17
REMARK    7  A    between atoms: N_21  and  C_22
REMARK    8  A    between atoms: C_22  and  C_23
REMARK                            x       y       z     vdW  Elec       q    Type
REMARK                         _______ _______ _______ _____ _____    ______ ____
ROOT
ATOM     12  C   UNL     1      -3.317   2.162  24.371  0.00  0.00    +0.208 A 
ATOM     13  N   UNL     1      -3.219   2.123  23.552  0.00  0.00    -0.056 NA
ATOM     14  O   UNL     1      -2.585   1.618  23.396  0.00  0.00    -0.336 OA
ATOM     15  C   UNL     1      -2.292   1.346  24.117  0.00  0.00    +0.251 A 
ATOM     16  N   UNL     1      -2.744   1.682  24.720  0.00  0.00    -0.189 NA
ENDROOT
BRANCH  12   7
ATOM      6  C   UNL     1      -3.688   3.330  25.106  0.00  0.00    +0.228 A 
ATOM      7  C   UNL     1      -3.888   2.604  24.769  0.00  0.00    +0.092 A 
ATOM      8  C   UNL     1      -4.661   2.320  24.830  0.00  0.00    +0.009 A 
ATOM      9  C   UNL     1      -5.232   2.762  25.229  0.00  0.00    +0.021 A 
ATOM     10  C   UNL     1      -5.031   3.488  25.566  0.00  0.00    +0.102 A 
ATOM     11  N   UNL     1      -4.260   3.772  25.504  0.00  0.00    -0.210 NA
BRANCH   6   5
ATOM      5  O   UNL     1      -2.915   3.614  25.045  0.00  0.00    -0.457 OA
BRANCH   5   4
ATOM      4  C   UNL     1      -2.724   4.358  25.346  0.00  0.00    +0.239 C 
BRANCH   4   3
ATOM      3  C   UNL     1      -1.935   4.563  25.469  0.00  0.00    +0.189 C 
BRANCH   3   2
ATOM      1  C   UNL     1      -0.804   5.273  24.962  0.00  0.00    +0.174 C 
ATOM      2  O   UNL     1      -1.617   5.224  25.092  0.00  0.00    -0.347 OA
ENDBRANCH   3   2
ENDBRANCH   4   3
ENDBRANCH   5   4
ENDBRANCH   6   5
ENDBRANCH  12   7
BRANCH  15  17
ATOM     17  C   UNL     1      -1.657   0.828  24.219  0.00  0.00    +0.138 C 
ATOM     18  C   UNL     1      -0.860   1.011  24.107  0.00  0.00    +0.027 C 
ATOM     19  C   UNL     1      -0.418   0.333  24.270  0.00  0.00    +0.019 C 
ATOM     20  C   UNL     1      -0.943  -0.268  24.482  0.00  0.00    +0.073 C 
ATOM     21  N   UNL     1      -1.708   0.038  24.451  0.00  0.00    -0.263 NA
BRANCH  21  22
ATOM     22  C   UNL     1      -2.402  -0.374  24.621  0.00  0.00    +0.101 C 
BRANCH  22  23
ATOM     23  C   UNL     1      -2.400  -1.198  24.634  0.00  0.00    +0.014 A 
ATOM     24  C   UNL     1      -1.767  -1.678  24.860  0.00  0.00    +0.096 A 
ATOM     25  N   UNL     1      -2.006  -2.464  24.790  0.00  0.00    -0.244 NA
ATOM     26  C   UNL     1      -2.785  -2.471  24.521  0.00  0.00    +0.081 A 
ATOM     27  C   UNL     1      -3.029  -1.688  24.425  0.00  0.00    +0.016 A 
ATOM     28  C   UNL     1      -3.792  -1.524  24.158  0.00  0.00    +0.001 A 
ATOM     29  C   UNL     1      -4.312  -2.141  23.988  0.00  0.00    +0.000 A 
ATOM     30  C   UNL     1      -4.068  -2.923  24.084  0.00  0.00    +0.002 A 
ATOM     31  C   UNL     1      -3.305  -3.089  24.350  0.00  0.00    +0.019 A 
ENDBRANCH  22  23
ENDBRANCH  21  22
ENDBRANCH  15  17
TORSDOF 8
ENDMDL
MODEL 5
REMARK VINA RESULT:     -11.0      1.297      5.282
REMARK  Name = 
REMARK  8 active torsions:
REMARK  status: ('A' for Active; 'I' for Inactive)
REMARK    1  A    between atoms: O_2  and  C_3
REMARK    2  A    between atoms: C_3  and  C_4
REMARK    3  A    between atoms: C_4  and  O_5
REMARK    4  A    between atoms: O_5  and  C_6
REMARK    5  A    between atoms: C_7  and  C_12
REMARK    6  A    between atoms: C_15  and  C_17
REMARK    7  A    between atoms: N_21  and  C_22
REMARK    8  A    between atoms: C_22  and  C_23
REMARK                            x       y       z     vdW  Elec       q    Type
REMARK                         _______ _______ _______ _____ _____    ______ ____
ROOT
ATOM     12  C   UNL     1      -2.330  -0.587  24.858  0.00  0.00    +0.208 A 
ATOM     13  N   UNL     1      -2.092  -0.449  25.636  0.00  0.00    -0.056 NA
ATOM     14  O   UNL     1      -1.418   0.028  25.616  0.00  0.00    -0.336 OA
ATOM     15  C   UNL     1      -1.242   0.185  24.825  0.00  0.00    +0.251 A 
ATOM     16  N   UNL     1      -1.805  -0.195  24.357  0.00  0.00    -0.189 NA
ENDROOT
BRANCH  12   7
ATOM      6  C   UNL     1      -3.727  -0.690  24.574  0.00  0.00    +0.228 A 
ATOM      7  C   UNL     1      -2.980  -1.037  24.624  0.00  0.00    +0.092 A 
ATOM      8  C   UNL     1      -2.883  -1.836  24.439  0.00  0.00    +0.009 A 
ATOM      9  C   UNL     1      -3.533  -2.286  24.205  0.00  0.00    +0.021 A 
ATOM     10  C   UNL     1      -4.280  -1.939  24.155  0.00  0.00    +0.102 A 
ATOM     11  N   UNL     1      -4.376  -1.142  24.340  0.00  0.00    -0.210 NA
BRANCH   6   5
ATOM      5  O   UNL     1      -3.824   0.108  24.759  0.00  0.00    -0.457 OA
BRANCH   5   4
ATOM      4  C   UNL     1      -4.557   0.471  24.649  0.00  0.00    +0.239 C 
BRANCH   4   3
ATOM      3  C   UNL     1      -4.729   1.177  25.038  0.00  0.00    +0.189 C 
BRANCH   3   2
ATOM      1  C   UNL     1      -5.723   2.200  25.123  0.00  0.00    +0.174 C 
ATOM      2  O   UNL     1      -5.205   1.743  24.672  0.00  0.00    -0.347 OA
ENDBRANCH   3   2
ENDBRANCH   4   3
ENDBRANCH   5   4
ENDBRANCH   6   5
ENDBRANCH  12   7
BRANCH  15  17
ATOM     17  C   UNL     1      -0.611   0.641  24.550  0.00  0.00    +0.138 C 
ATOM     18  C   UNL     1       0.054   0.359  24.150  0.00  0.00    +0.027 C 
ATOM     19  C   UNL     1       0.540   1.003  23.980  0.00  0.00    +0.019 C 
ATOM     20  C   UNL     1       0.176   1.683  24.274  0.00  0.00    +0.073 C 
ATOM     21  N   UNL     1      -0.535   1.459  24.626  0.00  0.00    -0.263 NA
BRANCH  21  22
ATOM     22  C   UNL     1      -1.076   1.965  24.991  0.00  0.00    +0.101 C 
BRANCH  22  23
ATOM     23  C   UNL     1      -1.015   2.780  24.884  0.00  0.00    +0.014 A 
ATOM     24  C   UNL     1      -0.456   3.167  24.416  0.00  0.00    +0.096 A 
ATOM     25  N   UNL     1      -0.597   3.978  24.469  0.00  0.00    -0.244 NA
ATOM     26  C   UNL     1      -1.242   4.092  24.969  0.00  0.00    +0.081 A 
ATOM     27  C   UNL     1      -1.500   3.351  25.226  0.00  0.00    +0.016 A 
ATOM     28  C   UNL     1      -2.145   3.294  25.738  0.00  0.00    +0.001 A 
ATOM     29  C   UNL     1      -2.531   3.976  25.993  0.00  0.00    +0.000 A 
ATOM     30  C   UNL     1      -2.273   4.717  25.737  0.00  0.00    +0.002 A 
ATOM     31  C   UNL     1      -1.629   4.775  25.225  0.00  0.00    +0.019 A 
ENDBRANCH  22  23
ENDBRANCH  21  22
ENDBRANCH  15  17
TORSDOF 8
ENDMDL
MODEL 6
REMARK VINA RESULT:     -11.0      1.565      3.873
REMARK  Name = 
REMARK  8 active torsions:
REMARK  status: ('A' for Active; 'I' for Inactive)
REMARK    1  A    between atoms: O_2  and  C_3
REMARK    2  A    between atoms: C_3  and  C_4
REMARK    3  A    between atoms: C_4  and  O_5
REMARK    4  A    between atoms: O_5  and  C_6
REMARK    5  A    between atoms: C_7  and  C_12
REMARK    6  A    between atoms: C_15  and  C_17
REMARK    7  A    between atoms: N_21  and  C_22
REMARK    8  A    between atoms: C_22  and  C_23
REMARK                            x       y       z     vdW  Elec       q    Type
REMARK                         _______ _______ _______ _____ _____    ______ ____
ROOT
ATOM     12  C   UNL     1      -0.466   1.590  24.829  0.00  0.00    +0.208 A 
ATOM     13  N   UNL     1      -0.413   1.639  25.651  0.00  0.00    -0.056 NA
ATOM     14  O   UNL     1      -0.764   2.347  25.888  0.00  0.00    -0.336 OA
ATOM     15  C   UNL     1      -1.035   2.735  25.212  0.00  0.00    +0.251 A 
ATOM     16  N   UNL     1      -0.851   2.268  24.558  0.00  0.00    -0.189 NA
ENDROOT
BRANCH  12   7
ATOM      6  C   UNL     1      -0.561   0.238  24.375  0.00  0.00    +0.228 A 
ATOM      7  C   UNL     1      -0.185   0.972  24.361  0.00  0.00    +0.092 A 
ATOM      8  C   UNL     1       0.474   1.089  23.877  0.00  0.00    +0.009 A 
ATOM      9  C   UNL     1       0.756   0.471  23.409  0.00  0.00    +0.021 A 
ATOM     10  C   UNL     1       0.380  -0.263  23.424  0.00  0.00    +0.102 A 
ATOM     11  N   UNL     1      -0.278  -0.379  23.907  0.00  0.00    -0.210 NA
BRANCH   6   5
ATOM      5  O   UNL     1      -1.220   0.122  24.859  0.00  0.00    -0.457 OA
BRANCH   5   4
ATOM      4  C   UNL     1      -1.644  -0.584  24.815  0.00  0.00    +0.239 C 
BRANCH   4   3
ATOM      3  C   UNL     1      -2.215  -0.757  25.384  0.00  0.00    +0.189 C 
BRANCH   3   2
ATOM      1  C   UNL     1      -3.409  -1.444  25.763  0.00  0.00    +0.174 C 
ATOM      2  O   UNL     1      -2.879  -1.202  25.179  0.00  0.00    -0.347 OA
ENDBRANCH   3   2
ENDBRANCH   4   3
ENDBRANCH   5   4
ENDBRANCH   6   5
ENDBRANCH  12   7
BRANCH  15  17
ATOM     17  C   UNL     1      -1.422   3.464  25.194  0.00  0.00    +0.138 C 
ATOM     18  C   UNL     1      -1.059   4.206  25.193  0.00  0.00    +0.027 C 
ATOM     19  C   UNL     1      -1.652   4.779  25.172  0.00  0.00    +0.019 C 
ATOM     20  C   UNL     1      -2.381   4.391  25.160  0.00  0.00    +0.073 C 
ATOM     21  N   UNL     1      -2.239   3.580  25.173  0.00  0.00    -0.263 NA
BRANCH  21  22
ATOM     22  C   UNL     1      -2.812   2.986  25.168  0.00  0.00    +0.101 C 
BRANCH  22  23
ATOM     23  C   UNL     1      -3.586   3.160  25.391  0.00  0.00    +0.014 A 
ATOM     24  C   UNL     1      -3.828   3.810  25.839  0.00  0.00    +0.096 A 
ATOM     25  N   UNL     1      -4.647   3.765  25.930  0.00  0.00    -0.244 NA
ATOM     26  C   UNL     1      -4.911   3.089  25.540  0.00  0.00    +0.081 A 
ATOM     27  C   UNL     1      -4.255   2.715  25.207  0.00  0.00    +0.016 A 
ATOM     28  C   UNL     1      -4.354   2.016  24.778  0.00  0.00    +0.001 A 
ATOM     29  C   UNL     1      -5.106   1.692  24.683  0.00  0.00    +0.000 A 
ATOM     30  C   UNL     1      -5.761   2.067  25.016  0.00  0.00    +0.002 A 
ATOM     31  C   UNL     1      -5.664   2.765  25.445  0.00  0.00    +0.019 A 
ENDBRANCH  22  23
ENDBRANCH  21  22
ENDBRANCH  15  17
TORSDOF 8
ENDMDL
MODEL 7
REMARK VINA RESULT:     -10.6      1.764      3.892
REMARK  Name = 
REMARK  8 active torsions:
REMARK  status: ('A' for Active; 'I' for Inactive)
REMARK    1  A    between atoms: O_2  and  C_3
REMARK    2  A    between atoms: C_3  and  C_4
REMARK    3  A    between atoms: C_4  and  O_5
REMARK    4  A    between atoms: O_5  and  C_6
REMARK    5  A    between atoms: C_7  and  C_12
REMARK    6  A    between atoms: C_15  and  C_17
REMARK    7  A    between atoms: N_21  and  C_22
REMARK    8  A    between atoms: C_22  and  C_23
REMARK                            x       y       z     vdW  Elec       q    Type
REMARK                         _______ _______ _______ _____ _____    ______ ____
ROOT
ATOM     12  C   UNL     1      -1.292   0.832  24.286  0.00  0.00    +0.208 A 
ATOM     13  N   UNL     1      -1.432   1.121  23.526  0.00  0.00    -0.056 NA
ATOM     14  O   UNL     1      -1.599   1.927  23.586  0.00  0.00    -0.336 OA
ATOM     15  C   UNL     1      -1.562   2.135  24.383  0.00  0.00    +0.251 A 
ATOM     16  N   UNL     1      -1.372   1.459  24.816  0.00  0.00    -0.189 NA
ENDROOT
BRANCH  12   7
ATOM      6  C   UNL     1      -0.408  -0.287  24.198  0.00  0.00    +0.228 A 
ATOM      7  C   UNL     1      -1.104   0.053  24.480  0.00  0.00    +0.092 A 
ATOM      8  C   UNL     1      -1.614  -0.386  24.959  0.00  0.00    +0.009 A 
ATOM      9  C   UNL     1      -1.426  -1.166  25.154  0.00  0.00    +0.021 A 
ATOM     10  C   UNL     1      -0.730  -1.506  24.871  0.00  0.00    +0.102 A 
ATOM     11  N   UNL     1      -0.221  -1.067  24.393  0.00  0.00    -0.210 NA
BRANCH   6   5
ATOM      5  O   UNL     1       0.101   0.152  23.719  0.00  0.00    -0.457 OA
BRANCH   5   4
ATOM      4  C   UNL     1       0.769  -0.204  23.391  0.00  0.00    +0.239 C 
BRANCH   4   3
ATOM      3  C   UNL     1       1.375   0.262  23.082  0.00  0.00    +0.189 C 
BRANCH   3   2
ATOM      1  C   UNL     1       2.667   0.165  22.478  0.00  0.00    +0.174 C 
ATOM      2  O   UNL     1       1.867  -0.039  22.493  0.00  0.00    -0.347 OA
ENDBRANCH   3   2
ENDBRANCH   4   3
ENDBRANCH   5   4
ENDBRANCH   6   5
ENDBRANCH  12   7
BRANCH  15  17
ATOM     17  C   UNL     1      -1.692   2.889  24.694  0.00  0.00    +0.138 C 
ATOM     18  C   UNL     1      -1.109   3.414  24.953  0.00  0.00    +0.027 C 
ATOM     19  C   UNL     1      -1.484   4.099  25.220  0.00  0.00    +0.019 C 
ATOM     20  C   UNL     1      -2.298   3.997  25.126  0.00  0.00    +0.073 C 
ATOM     21  N   UNL     1      -2.426   3.250  24.801  0.00  0.00    -0.263 NA
BRANCH  21  22
ATOM     22  C   UNL     1      -3.159   2.921  24.616  0.00  0.00    +0.101 C 
BRANCH  22  23
ATOM     23  C   UNL     1      -3.829   3.139  25.045  0.00  0.00    +0.014 A 
ATOM     24  C   UNL     1      -3.911   3.820  25.503  0.00  0.00    +0.096 A 
ATOM     25  N   UNL     1      -4.667   3.816  25.833  0.00  0.00    -0.244 NA
ATOM     26  C   UNL     1      -5.052   3.132  25.580  0.00  0.00    +0.081 A 
ATOM     27  C   UNL     1      -4.534   2.714  25.093  0.00  0.00    +0.016 A 
ATOM     28  C   UNL     1      -4.772   1.999  24.755  0.00  0.00    +0.001 A 
ATOM     29  C   UNL     1      -5.527   1.703  24.905  0.00  0.00    +0.000 A 
ATOM     30  C   UNL     1      -6.044   2.122  25.392  0.00  0.00    +0.002 A 
ATOM     31  C   UNL     1      -5.808   2.836  25.729  0.00  0.00    +0.019 A 
ENDBRANCH  22  23
ENDBRANCH  21  22
ENDBRANCH  15  17
TORSDOF 8
ENDMDL
MODEL 8
REMARK VINA RESULT:     -10.4      1.287      3.707
REMARK  Name = 
REMARK  8 active torsions:
REMARK  status: ('A' for Active; 'I' for Inactive)
REMARK    1  A    between atoms: O_2  and  C_3
REMARK    2  A    between atoms: C_3  and  C_4
REMARK    3  A    between atoms: C_4  and  O_5
REMARK    4  A    between atoms: O_5  and  C_6
REMARK    5  A    between atoms: C_7  and  C_12
REMARK    6  A    between atoms: C_15  and  C_17
REMARK    7  A    between atoms: N_21  and  C_22
REMARK    8  A    between atoms: C_22  and  C_23
REMARK                            x       y       z     vdW  Elec       q    Type
REMARK                         _______ _______ _______ _____ _____    ______ ____
ROOT
ATOM     12  C   UNL     1      -3.693   2.695  24.703  0.00  0.00    +0.208 A 
ATOM     13  N   UNL     1      -3.527   2.838  23.907  0.00  0.00    -0.056 NA
ATOM     14  O   UNL     1      -2.709   2.907  23.826  0.00  0.00    -0.336 OA
ATOM     15  C   UNL     1      -2.370   2.808  24.572  0.00  0.00    +0.251 A 
ATOM     16  N   UNL     1      -2.979   2.677  25.114  0.00  0.00    -0.189 NA
ENDROOT
BRANCH  12   7
ATOM      6  C   UNL     1      -4.807   1.850  24.999  0.00  0.00    +0.228 A 
ATOM      7  C   UNL     1      -4.444   2.590  25.029  0.00  0.00    +0.092 A 
ATOM      8  C   UNL     1      -4.831   3.225  25.385  0.00  0.00    +0.009 A 
ATOM      9  C   UNL     1      -5.582   3.120  25.712  0.00  0.00    +0.021 A 
ATOM     10  C   UNL     1      -5.945   2.380  25.681  0.00  0.00    +0.102 A 
ATOM     11  N   UNL     1      -5.558   1.745  25.325  0.00  0.00    -0.210 NA
BRANCH   6   5
ATOM      5  O   UNL     1      -4.420   1.214  24.642  0.00  0.00    -0.457 OA
BRANCH   5   4
ATOM      4  C   UNL     1      -4.730   0.453  24.708  0.00  0.00    +0.239 C 
BRANCH   4   3
ATOM      3  C   UNL     1      -4.445  -0.151  24.224  0.00  0.00    +0.189 C 
BRANCH   3   2
ATOM      1  C   UNL     1      -4.266  -1.551  24.001  0.00  0.00    +0.174 C 
ATOM      2  O   UNL     1      -4.378  -0.919  24.519  0.00  0.00    -0.347 OA
ENDBRANCH   3   2
ENDBRANCH   4   3
ENDBRANCH   5   4
ENDBRANCH   6   5
ENDBRANCH  12   7
BRANCH  15  17
ATOM     17  C   UNL     1      -1.564   2.835  24.747  0.00  0.00    +0.138 C 
ATOM     18  C   UNL     1      -1.097   3.515  24.778  0.00  0.00    +0.027 C 
ATOM     19  C   UNL     1      -0.328   3.287  24.971  0.00  0.00    +0.019 C 
ATOM     20  C   UNL     1      -0.320   2.466  25.059  0.00  0.00    +0.073 C 
ATOM     21  N   UNL     1      -1.083   2.187  24.921  0.00  0.00    -0.263 NA
BRANCH  21  22
ATOM     22  C   UNL     1      -1.324   1.399  24.951  0.00  0.00    +0.101 C 
BRANCH  22  23
ATOM     23  C   UNL     1      -0.850   0.810  24.622  0.00  0.00    +0.014 A 
ATOM     24  C   UNL     1      -0.347   0.898  23.973  0.00  0.00    +0.096 A 
ATOM     25  N   UNL     1       0.019   0.173  23.833  0.00  0.00    -0.244 NA
ATOM     26  C   UNL     1      -0.257  -0.364  24.395  0.00  0.00    +0.081 A 
ATOM     27  C   UNL     1      -0.794   0.030  24.882  0.00  0.00    +0.016 A 
ATOM     28  C   UNL     1      -1.162  -0.373  25.501  0.00  0.00    +0.001 A 
ATOM     29  C   UNL     1      -0.994  -1.170  25.632  0.00  0.00    +0.000 A 
ATOM     30  C   UNL     1      -0.457  -1.564  25.145  0.00  0.00    +0.002 A 
ATOM     31  C   UNL     1      -0.088  -1.161  24.527  0.00  0.00    +0.019 A 
ENDBRANCH  22  23
ENDBRANCH  21  22
ENDBRANCH  15  17
TORSDOF 8
ENDMDL
MODEL 9
REMARK VINA RESULT:     -10.3      1.348      3.456
REMARK  Name = 
REMARK  8 active torsions:
REMARK  status: ('A' for Active; 'I' for Inactive)
REMARK    1  A    between atoms: O_2  and  C_3
REMARK    2  A    between atoms: C_3  and  C_4
REMARK    3  A    between atoms: C_4  and  O_5
REMARK    4  A    between atoms: O_5  and  C_6
REMARK    5  A    between atoms: C_7  and  C_12
REMARK    6  A    between atoms: C_15  and  C_17
REMARK    7  A    between atoms: N_21  and  C_22
REMARK    8  A    between atoms: C_22  and  C_23
REMARK                            x       y       z     vdW  Elec       q    Type
REMARK                         _______ _______ _______ _____ _____    ______ ____
ROOT
ATOM     12  C   UNL     1      -4.401   1.486  24.689  0.00  0.00    +0.208 A 
ATOM     13  N   UNL     1      -4.181   1.433  23.896  0.00  0.00    -0.056 NA
ATOM     14  O   UNL     1      -3.869   0.679  23.769  0.00  0.00    -0.336 OA
ATOM     15  C   UNL     1      -3.898   0.268  24.483  0.00  0.00    +0.251 A 
ATOM     16  N   UNL     1      -4.227   0.766  25.052  0.00  0.00    -0.189 NA
ENDROOT
BRANCH  12   7
ATOM      6  C   UNL     1      -4.269   2.798  25.240  0.00  0.00    +0.228 A 
ATOM      7  C   UNL     1      -4.738   2.145  25.055  0.00  0.00    +0.092 A 
ATOM      8  C   UNL     1      -5.543   2.150  25.234  0.00  0.00    +0.009 A 
ATOM      9  C   UNL     1      -5.880   2.809  25.600  0.00  0.00    +0.021 A 
ATOM     10  C   UNL     1      -5.411   3.462  25.786  0.00  0.00    +0.102 A 
ATOM     11  N   UNL     1      -4.607   3.456  25.606  0.00  0.00    -0.210 NA
BRANCH   6   5
ATOM      5  O   UNL     1      -3.464   2.793  25.061  0.00  0.00    -0.457 OA
BRANCH   5   4
ATOM      4  C   UNL     1      -2.980   3.411  25.316  0.00  0.00    +0.239 C 
BRANCH   4   3
ATOM      3  C   UNL     1      -2.215   3.485  25.018  0.00  0.00    +0.189 C 
BRANCH   3   2
ATOM      1  C   UNL     1      -0.943   4.135  25.064  0.00  0.00    +0.174 C 
ATOM      2  O   UNL     1      -1.654   3.928  25.429  0.00  0.00    -0.347 OA
ENDBRANCH   3   2
ENDBRANCH   4   3
ENDBRANCH   5   4
ENDBRANCH   6   5
ENDBRANCH  12   7
BRANCH  15  17
ATOM     17  C   UNL     1      -3.643  -0.507  24.607  0.00  0.00    +0.138 C 
ATOM     18  C   UNL     1      -4.123  -1.180  24.622  0.00  0.00    +0.027 C 
ATOM     19  C   UNL     1      -3.640  -1.834  24.762  0.00  0.00    +0.019 C 
ATOM     20  C   UNL     1      -2.863  -1.566  24.834  0.00  0.00    +0.073 C 
ATOM     21  N   UNL     1      -2.865  -0.747  24.739  0.00  0.00    -0.263 NA
BRANCH  21  22
ATOM     22  C   UNL     1      -2.204  -0.254  24.769  0.00  0.00    +0.101 C 
BRANCH  22  23
ATOM     23  C   UNL     1      -1.450  -0.569  24.666  0.00  0.00    +0.014 A 
ATOM     24  C   UNL     1      -1.187  -1.300  24.945  0.00  0.00    +0.096 A 
ATOM     25  N   UNL     1      -0.400  -1.391  24.717  0.00  0.00    -0.244 NA
ATOM     26  C   UNL     1      -0.175  -0.717  24.299  0.00  0.00    +0.081 A 
ATOM     27  C   UNL     1      -0.824  -0.209  24.268  0.00  0.00    +0.016 A 
ATOM     28  C   UNL     1      -0.761   0.517  23.880  0.00  0.00    +0.001 A 
ATOM     29  C   UNL     1      -0.050   0.734  23.524  0.00  0.00    +0.000 A 
ATOM     30  C   UNL     1       0.599   0.225  23.555  0.00  0.00    +0.002 A 
ATOM     31  C   UNL     1       0.537  -0.500  23.943  0.00  0.00    +0.019 A 
ENDBRANCH  22  23
ENDBRANCH  21  22
ENDBRANCH  15  17
TORSDOF 8
ENDMDL
