MODEL 1
REMARK VINA RESULT:     -12.4      0.000      0.000
REMARK  Name = 
REMARK  7 active torsions:
REMARK  status: ('A' for Active; 'I' for Inactive)
REMARK    1  A    between atoms: C_2  and  C_4
REMARK    2  A    between atoms: C_6  and  C_7
REMARK    3  A    between atoms: C_7  and  C_8
REMARK    4  A    between atoms: C_11  and  C_13
REMARK    5  A    between atoms: C_23  and  C_24
REMARK    6  A    between atoms: C_24  and  N_25
REMARK    7  A    between atoms: C_28  and  C_29
REMARK                            x       y       z     vdW  Elec       q    Type
REMARK                         _______ _______ _______ _____ _____    ______ ____
ROOT
ATOM      4  C   UNL     1      -3.300   1.484  23.655  0.00  0.00    +0.006 C 
ATOM      5  C   UNL     1      -3.532   2.184  24.025  0.00  0.00    +0.005 C 
ATOM      6  C   UNL     1      -4.100   2.164  24.625  0.00  0.00    +0.027 C 
ATOM     20  C   UNL     1      -4.434   1.445  24.854  0.00  0.00    -0.048 C 
ATOM     21  C   UNL     1      -5.000   1.426  25.452  0.00  0.00    +0.026 C 
ATOM     22  C   UNL     1      -4.200   0.746  24.483  0.00  0.00    -0.034 C 
ATOM     23  C   UNL     1      -3.633   0.765  23.884  0.00  0.00    +0.037 C 
ENDROOT
BRANCH   4   2
ATOM      1  C   UNL     1      -2.961   1.661  22.278  0.00  0.00    +0.000 C 
ATOM      2  C   UNL     1      -2.733   1.504  23.056  0.00  0.00    +0.000 C 
ATOM      3  C   UNL     1      -1.940   1.368  23.234  0.00  0.00    +0.000 C 
ENDBRANCH   4   2
BRANCH   6   7
ATOM      7  C   UNL     1      -4.332   2.864  24.995  0.00  0.00    +0.091 C 
BRANCH   7   8
ATOM      8  C   UNL     1      -3.766   3.368  25.317  0.00  0.00    +0.227 A 
ATOM      9  N   UNL     1      -3.749   3.643  26.095  0.00  0.00    -0.111 NA
ATOM     10  N   UNL     1      -3.089   4.131  26.178  0.00  0.00    -0.107 NA
ATOM     11  C   UNL     1      -2.699   4.158  25.452  0.00  0.00    +0.252 A 
ATOM     12  O   UNL     1      -3.118   3.686  24.920  0.00  0.00    -0.419 OA
BRANCH  11  13
ATOM     13  C   UNL     1      -2.011   4.582  25.286  0.00  0.00    +0.083 A 
ATOM     14  C   UNL     1      -2.060   5.369  25.043  0.00  0.00    +0.007 A 
ATOM     15  C   UNL     1      -1.373   5.794  24.877  0.00  0.00    +0.000 A 
ATOM     16  C   UNL     1      -0.635   5.431  24.954  0.00  0.00    +0.002 A 
ATOM     17  C   UNL     1      -0.585   4.644  25.196  0.00  0.00    +0.030 A 
ATOM     18  C   UNL     1      -1.274   4.220  25.362  0.00  0.00    +0.145 A 
ATOM     19  F   UNL     1      -1.224   3.433  25.604  0.00  0.00    -0.204 F 
ENDBRANCH  11  13
ENDBRANCH   7   8
ENDBRANCH   6   7
BRANCH  23  24
ATOM     24  C   UNL     1      -3.400   0.066  23.514  0.00  0.00    +0.076 C 
BRANCH  24  25
ATOM     25  N   UNL     1      -3.445  -0.651  23.921  0.00  0.00    -0.272 NA
ATOM     26  C   UNL     1      -4.067  -1.172  23.771  0.00  0.00    +0.072 C 
ATOM     27  C   UNL     1      -4.111  -1.889  24.177  0.00  0.00    +0.020 C 
ATOM     28  C   UNL     1      -3.533  -2.084  24.734  0.00  0.00    +0.036 C 
ATOM     31  C   UNL     1      -2.912  -1.562  24.883  0.00  0.00    +0.020 C 
ATOM     32  C   UNL     1      -2.868  -0.846  24.476  0.00  0.00    +0.072 C 
BRANCH  28  29
ATOM     29  C   UNL     1      -3.577  -2.800  25.140  0.00  0.00    +0.182 C 
ATOM     30  O   UNL     1      -3.582  -3.512  24.722  0.00  0.00    -0.220 OA
ENDBRANCH  28  29
ENDBRANCH  24  25
ENDBRANCH  23  24
TORSDOF 7
ENDMDL
MODEL 2
REMARK VINA RESULT:     -12.1      1.721      5.646
REMARK  Name = 
REMARK  7 active torsions:
REMARK  status: ('A' for Active; 'I' for Inactive)
REMARK    1  A    between atoms: C_2  and  C_4
REMARK    2  A    between atoms: C_6  and  C_7
REMARK    3  A    between atoms: C_7  and  C_8
REMARK    4  A    between atoms: C_11  and  C_13
REMARK    5  A    between atoms: C_23  and  C_24
REMARK    6  A    between atoms: C_24  and  N_25
REMARK    7  A    between atoms: C_28  and  C_29
REMARK                            x       y       z     vdW  Elec       q    Type
REMARK                         _______ _______ _______ _____ _____    ______ ____
ROOT
ATOM      4  C   UNL     1      -1.503   1.371  24.312  0.00  0.00    +0.006 C 
ATOM      5  C   UNL     1      -2.156   0.962  24.017  0.00  0.00    +0.005 C 
ATOM      6  C   UNL     1      -2.830   1.376  23.782  0.00  0.00    +0.027 C 
ATOM     20  C   UNL     1      -2.851   2.199  23.842  0.00  0.00    -0.048 C 
ATOM     21  C   UNL     1      -3.524   2.612  23.607  0.00  0.00    +0.026 C 
ATOM     22  C   UNL     1      -2.197   2.607  24.138  0.00  0.00    -0.034 C 
ATOM     23  C   UNL     1      -1.524   2.193  24.373  0.00  0.00    +0.037 C 
ENDROOT
BRANCH   4   2
ATOM      1  C   UNL     1      -0.741   0.727  25.335  0.00  0.00    +0.000 C 
ATOM      2  C   UNL     1      -0.830   0.956  24.547  0.00  0.00    +0.000 C 
ATOM      3  C   UNL     1      -0.246   0.770  23.996  0.00  0.00    +0.000 C 
ENDBRANCH   4   2
BRANCH   6   7
ATOM      7  C   UNL     1      -3.483   0.967  23.487  0.00  0.00    +0.091 C 
BRANCH   7   8
ATOM      8  C   UNL     1      -3.774   0.309  23.888  0.00  0.00    +0.227 A 
ATOM      9  N   UNL     1      -4.408   0.305  24.417  0.00  0.00    -0.111 NA
ATOM     10  N   UNL     1      -4.508  -0.468  24.688  0.00  0.00    -0.107 NA
ATOM     11  C   UNL     1      -3.936  -0.941  24.328  0.00  0.00    +0.252 A 
ATOM     12  O   UNL     1      -3.482  -0.461  23.834  0.00  0.00    -0.419 OA
BRANCH  11  13
ATOM     13  C   UNL     1      -3.835  -1.752  24.441  0.00  0.00    +0.083 A 
ATOM     14  C   UNL     1      -4.093  -2.284  23.866  0.00  0.00    +0.007 A 
ATOM     15  C   UNL     1      -3.993  -3.095  23.979  0.00  0.00    +0.000 A 
ATOM     16  C   UNL     1      -3.634  -3.374  24.668  0.00  0.00    +0.002 A 
ATOM     17  C   UNL     1      -3.375  -2.843  25.243  0.00  0.00    +0.030 A 
ATOM     18  C   UNL     1      -3.477  -2.031  25.129  0.00  0.00    +0.145 A 
ATOM     19  F   UNL     1      -3.218  -1.499  25.705  0.00  0.00    -0.204 F 
ENDBRANCH  11  13
ENDBRANCH   7   8
ENDBRANCH   6   7
BRANCH  23  24
ATOM     24  C   UNL     1      -0.871   2.601  24.668  0.00  0.00    +0.076 C 
BRANCH  24  25
ATOM     25  N   UNL     1      -0.899   3.423  24.747  0.00  0.00    -0.272 NA
ATOM     26  C   UNL     1      -0.566   3.904  24.165  0.00  0.00    +0.072 C 
ATOM     27  C   UNL     1      -0.594   4.725  24.244  0.00  0.00    +0.020 C 
ATOM     28  C   UNL     1      -0.955   5.064  24.904  0.00  0.00    +0.036 C 
ATOM     31  C   UNL     1      -1.288   4.582  25.485  0.00  0.00    +0.020 C 
ATOM     32  C   UNL     1      -1.260   3.761  25.406  0.00  0.00    +0.072 C 
BRANCH  28  29
ATOM     29  C   UNL     1      -0.983   5.884  24.983  0.00  0.00    +0.182 C 
ATOM     30  O   UNL     1      -1.712   6.271  25.021  0.00  0.00    -0.220 OA
ENDBRANCH  28  29
ENDBRANCH  24  25
ENDBRANCH  23  24
TORSDOF 7
ENDMDL
MODEL 3
REMARK VINA RESULT:     -12.0      1.325      2.052
REMARK  Name = 
REMARK  7 active torsions:
REMARK  status: ('A' for Active; 'I' for Inactive)
REMARK    1  A    between atoms: C_2  and  C_4
REMARK    2  A    between atoms: C_6  and  C_7
REMARK    3  A    between atoms: C_7  and  C_8
REMARK    4  A    between atoms: C_11  and  C_13
REMARK    5  A    between atoms: C_23  and  C_24
REMARK    6  A    between atoms: C_24  and  N_25
REMARK    7  A    between atoms: C_28  and  C_29
REMARK                            x       y       z     vdW  Elec       q    Type
REMARK                         _______ _______ _______ _____ _____    ______ ____
ROOT
ATOM      4  C   UNL     1      -3.058   0.932  24.783  0.00  0.00    +0.006 C 
ATOM      5  C   UNL     1      -2.346   1.347  24.773  0.00  0.00    +0.005 C 
ATOM      6  C   UNL     1      -1.635   0.950  24.912  0.00  0.00    +0.027 C 
ATOM     20  C   UNL     1      -1.638   0.139  25.062  0.00  0.00    -0.048 C 
ATOM     21  C   UNL     1      -0.929  -0.257  25.201  0.00  0.00    +0.026 C 
ATOM     22  C   UNL     1      -2.352  -0.275  25.071  0.00  0.00    -0.034 C 
ATOM     23  C   UNL     1      -3.061   0.121  24.932  0.00  0.00    +0.037 C 
ENDROOT
BRANCH   4   2
ATOM      1  C   UNL     1      -3.975   1.545  23.874  0.00  0.00    +0.000 C 
ATOM      2  C   UNL     1      -3.768   1.329  24.644  0.00  0.00    +0.000 C 
ATOM      3  C   UNL     1      -4.270   1.509  25.272  0.00  0.00    +0.000 C 
ENDBRANCH   4   2
BRANCH   6   7
ATOM      7  C   UNL     1      -0.923   1.366  24.902  0.00  0.00    +0.091 C 
BRANCH   7   8
ATOM      8  C   UNL     1      -0.883   2.124  25.221  0.00  0.00    +0.227 A 
ATOM      9  N   UNL     1      -0.634   2.317  25.984  0.00  0.00    -0.111 NA
ATOM     10  N   UNL     1      -0.682   3.136  26.069  0.00  0.00    -0.107 NA
ATOM     11  C   UNL     1      -0.961   3.450  25.359  0.00  0.00    +0.252 A 
ATOM     12  O   UNL     1      -1.085   2.824  24.835  0.00  0.00    -0.419 OA
BRANCH  11  13
ATOM     13  C   UNL     1      -1.092   4.249  25.200  0.00  0.00    +0.083 A 
ATOM     14  C   UNL     1      -0.535   4.682  24.772  0.00  0.00    +0.007 A 
ATOM     15  C   UNL     1      -0.665   5.480  24.613  0.00  0.00    +0.000 A 
ATOM     16  C   UNL     1      -1.355   5.846  24.881  0.00  0.00    +0.002 A 
ATOM     17  C   UNL     1      -1.912   5.414  25.308  0.00  0.00    +0.030 A 
ATOM     18  C   UNL     1      -1.781   4.615  25.467  0.00  0.00    +0.145 A 
ATOM     19  F   UNL     1      -2.338   4.183  25.895  0.00  0.00    -0.204 F 
ENDBRANCH  11  13
ENDBRANCH   7   8
ENDBRANCH   6   7
BRANCH  23  24
ATOM     24  C   UNL     1      -3.774  -0.294  24.942  0.00  0.00    +0.076 C 
BRANCH  24  25
ATOM     25  N   UNL     1      -3.785  -1.101  24.767  0.00  0.00    -0.272 NA
ATOM     26  C   UNL     1      -3.973  -1.355  24.005  0.00  0.00    +0.072 C 
ATOM     27  C   UNL     1      -3.983  -2.161  23.830  0.00  0.00    +0.020 C 
ATOM     28  C   UNL     1      -3.806  -2.713  24.418  0.00  0.00    +0.036 C 
ATOM     31  C   UNL     1      -3.618  -2.458  25.180  0.00  0.00    +0.020 C 
ATOM     32  C   UNL     1      -3.607  -1.652  25.354  0.00  0.00    +0.072 C 
BRANCH  28  29
ATOM     29  C   UNL     1      -3.816  -3.519  24.244  0.00  0.00    +0.182 C 
ATOM     30  O   UNL     1      -3.178  -3.864  23.850  0.00  0.00    -0.220 OA
ENDBRANCH  28  29
ENDBRANCH  24  25
ENDBRANCH  23  24
TORSDOF 7
ENDMDL
MODEL 4
REMARK VINA RESULT:     -11.9      0.866      1.804
REMARK  Name = 
REMARK  7 active torsions:
REMARK  status: ('A' for Active; 'I' for Inactive)
REMARK    1  A    between atoms: C_2  and  C_4
REMARK    2  A    between atoms: C_6  and  C_7
REMARK    3  A    between atoms: C_7  and  C_8
REMARK    4  A    between atoms: C_11  and  C_13
REMARK    5  A    between atoms: C_23  and  C_24
REMARK    6  A    between atoms: C_24  and  N_25
REMARK    7  A    between atoms: C_28  and  C_29
REMARK                            x       y       z     vdW  Elec       q    Type
REMARK                         _______ _______ _______ _____ _____    ______ ____
ROOT
ATOM      4  C   UNL     1      -4.903   1.326  24.777  0.00  0.00    +0.006 C 
ATOM      5  C   UNL     1      -4.671   2.037  24.430  0.00  0.00    +0.005 C 
ATOM      6  C   UNL     1      -4.053   2.046  23.883  0.00  0.00    +0.027 C 
ATOM     20  C   UNL     1      -3.669   1.344  23.682  0.00  0.00    -0.048 C 
ATOM     21  C   UNL     1      -3.052   1.354  23.136  0.00  0.00    +0.026 C 
ATOM     22  C   UNL     1      -3.902   0.633  24.030  0.00  0.00    -0.034 C 
ATOM     23  C   UNL     1      -4.519   0.624  24.577  0.00  0.00    +0.037 C 
ENDROOT
BRANCH   4   2
ATOM      1  C   UNL     1      -6.301   1.251  25.064  0.00  0.00    +0.000 C 
ATOM      2  C   UNL     1      -5.520   1.317  25.324  0.00  0.00    +0.000 C 
ATOM      3  C   UNL     1      -5.358   1.374  26.130  0.00  0.00    +0.000 C 
ENDBRANCH   4   2
BRANCH   6   7
ATOM      7  C   UNL     1      -3.821   2.758  23.536  0.00  0.00    +0.091 C 
BRANCH   7   8
ATOM      8  C   UNL     1      -3.432   3.328  23.986  0.00  0.00    +0.227 A 
ATOM      9  N   UNL     1      -3.789   3.955  24.387  0.00  0.00    -0.111 NA
ATOM     10  N   UNL     1      -3.195   4.388  24.763  0.00  0.00    -0.107 NA
ATOM     11  C   UNL     1      -2.472   4.028  24.595  0.00  0.00    +0.252 A 
ATOM     12  O   UNL     1      -2.619   3.373  24.114  0.00  0.00    -0.419 OA
BRANCH  11  13
ATOM     13  C   UNL     1      -1.732   4.278  24.860  0.00  0.00    +0.083 A 
ATOM     14  C   UNL     1      -1.424   5.000  24.603  0.00  0.00    +0.007 A 
ATOM     15  C   UNL     1      -0.684   5.251  24.867  0.00  0.00    +0.000 A 
ATOM     16  C   UNL     1      -0.252   4.780  25.390  0.00  0.00    +0.002 A 
ATOM     17  C   UNL     1      -0.559   4.059  25.647  0.00  0.00    +0.030 A 
ATOM     18  C   UNL     1      -1.300   3.808  25.381  0.00  0.00    +0.145 A 
ATOM     19  F   UNL     1      -1.607   3.088  25.638  0.00  0.00    -0.204 F 
ENDBRANCH  11  13
ENDBRANCH   7   8
ENDBRANCH   6   7
BRANCH  23  24
ATOM     24  C   UNL     1      -4.751  -0.087  24.924  0.00  0.00    +0.076 C 
BRANCH  24  25
ATOM     25  N   UNL     1      -4.282  -0.761  24.839  0.00  0.00    -0.272 NA
ATOM     26  C   UNL     1      -3.696  -0.929  25.395  0.00  0.00    +0.072 C 
ATOM     27  C   UNL     1      -3.227  -1.602  25.310  0.00  0.00    +0.020 C 
ATOM     28  C   UNL     1      -3.344  -2.108  24.668  0.00  0.00    +0.036 C 
ATOM     31  C   UNL     1      -3.930  -1.940  24.112  0.00  0.00    +0.020 C 
ATOM     32  C   UNL     1      -4.399  -1.266  24.198  0.00  0.00    +0.072 C 
BRANCH  28  29
ATOM     29  C   UNL     1      -2.876  -2.781  24.583  0.00  0.00    +0.182 C 
ATOM     30  O   UNL     1      -2.116  -2.718  24.266  0.00  0.00    -0.220 OA
ENDBRANCH  28  29
ENDBRANCH  24  25
ENDBRANCH  23  24
TORSDOF 7
ENDMDL
MODEL 5
REMARK VINA RESULT:     -11.9      1.416      5.605
REMARK  Name = 
REMARK  7 active torsions:
REMARK  status: ('A' for Active; 'I' for Inactive)
REMARK    1  A    between atoms: C_2  and  C_4
REMARK    2  A    between atoms: C_6  and  C_7
REMARK    3  A    between atoms: C_7  and  C_8
REMARK    4  A    between atoms: C_11  and  C_13
REMARK    5  A    between atoms: C_23  and  C_24
REMARK    6  A    between atoms: C_24  and  N_25
REMARK    7  A    between atoms: C_28  and  C_29
REMARK                            x       y       z     vdW  Elec       q    Type
REMARK                         _______ _______ _______ _____ _____    ______ ____
ROOT
ATOM      4  C   UNL     1      -4.296   2.381  24.913  0.00  0.00    +0.006 C 
ATOM      5  C   UNL     1      -4.389   1.722  24.426  0.00  0.00    +0.005 C 
ATOM      6  C   UNL     1      -3.760   1.465  23.956  0.00  0.00    +0.027 C 
ATOM     20  C   UNL     1      -3.041   1.868  23.972  0.00  0.00    -0.048 C 
ATOM     21  C   UNL     1      -2.414   1.612  23.502  0.00  0.00    +0.026 C 
ATOM     22  C   UNL     1      -2.950   2.528  24.459  0.00  0.00    -0.034 C 
ATOM     23  C   UNL     1      -3.576   2.785  24.929  0.00  0.00    +0.037 C 
ENDROOT
BRANCH   4   2
ATOM      1  C   UNL     1      -5.466   3.183  25.084  0.00  0.00    +0.000 C 
ATOM      2  C   UNL     1      -4.924   2.637  25.383  0.00  0.00    +0.000 C 
ATOM      3  C   UNL     1      -5.010   2.348  26.149  0.00  0.00    +0.000 C 
ENDBRANCH   4   2
BRANCH   6   7
ATOM      7  C   UNL     1      -3.853   0.805  23.469  0.00  0.00    +0.091 C 
BRANCH   7   8
ATOM      8  C   UNL     1      -4.060   0.078  23.796  0.00  0.00    +0.227 A 
ATOM      9  N   UNL     1      -4.827  -0.208  23.897  0.00  0.00    -0.111 NA
ATOM     10  N   UNL     1      -4.778  -0.956  24.243  0.00  0.00    -0.107 NA
ATOM     11  C   UNL     1      -3.979  -1.132  24.356  0.00  0.00    +0.252 A 
ATOM     12  O   UNL     1      -3.536  -0.493  24.079  0.00  0.00    -0.419 OA
BRANCH  11  13
ATOM     13  C   UNL     1      -3.678  -1.825  24.686  0.00  0.00    +0.083 A 
ATOM     14  C   UNL     1      -3.581  -2.497  24.218  0.00  0.00    +0.007 A 
ATOM     15  C   UNL     1      -3.279  -3.191  24.547  0.00  0.00    +0.000 A 
ATOM     16  C   UNL     1      -3.073  -3.211  25.347  0.00  0.00    +0.002 A 
ATOM     17  C   UNL     1      -3.169  -2.539  25.815  0.00  0.00    +0.030 A 
ATOM     18  C   UNL     1      -3.472  -1.845  25.484  0.00  0.00    +0.145 A 
ATOM     19  F   UNL     1      -3.567  -1.174  25.953  0.00  0.00    -0.204 F 
ENDBRANCH  11  13
ENDBRANCH   7   8
ENDBRANCH   6   7
BRANCH  23  24
ATOM     24  C   UNL     1      -3.485   3.444  25.415  0.00  0.00    +0.076 C 
BRANCH  24  25
ATOM     25  N   UNL     1      -2.823   3.931  25.330  0.00  0.00    -0.272 NA
ATOM     26  C   UNL     1      -2.132   3.764  25.748  0.00  0.00    +0.072 C 
ATOM     27  C   UNL     1      -1.471   4.251  25.662  0.00  0.00    +0.020 C 
ATOM     28  C   UNL     1      -1.502   4.905  25.159  0.00  0.00    +0.036 C 
ATOM     31  C   UNL     1      -2.194   5.071  24.742  0.00  0.00    +0.020 C 
ATOM     32  C   UNL     1      -2.855   4.584  24.827  0.00  0.00    +0.072 C 
BRANCH  28  29
ATOM     29  C   UNL     1      -0.842   5.391  25.073  0.00  0.00    +0.182 C 
ATOM     30  O   UNL     1      -0.210   5.149  24.600  0.00  0.00    -0.220 OA
ENDBRANCH  28  29
ENDBRANCH  24  25
ENDBRANCH  23  24
TORSDOF 7
ENDMDL
MODEL 6
REMARK VINA RESULT:     -11.7      2.113      3.504
REMARK  Name = 
REMARK  7 active torsions:
REMARK  status: ('A' for Active; 'I' for Inactive)
REMARK    1  A    between atoms: C_2  and  C_4
REMARK    2  A    between atoms: C_6  and  C_7
REMARK    3  A    between atoms: C_7  and  C_8
REMARK    4  A    between atoms: C_11  and  C_13
REMARK    5  A    between atoms: C_23  and  C_24
REMARK    6  A    between atoms: C_24  and  N_25
REMARK    7  A    between atoms: C_28  and  C_29
REMARK                            x       y       z     vdW  Elec       q    Type
REMARK                         _______ _______ _______ _____ _____    ______ ____
ROOT
ATOM      4  C   UNL     1      -1.237   2.339  24.712  0.00  0.00    +0.006 C 
ATOM      5  C   UNL     1      -1.848   2.777  24.371  0.00  0.00    +0.005 C 
ATOM      6  C   UNL     1      -2.303   2.448  23.766  0.00  0.00    +0.027 C 
ATOM     20  C   UNL     1      -2.147   1.683  23.501  0.00  0.00    -0.048 C 
ATOM     21  C   UNL     1      -2.601   1.355  22.897  0.00  0.00    +0.026 C 
ATOM     22  C   UNL     1      -1.535   1.245  23.842  0.00  0.00    -0.034 C 
ATOM     23  C   UNL     1      -1.081   1.573  24.447  0.00  0.00    +0.037 C 
ENDROOT
BRANCH   4   2
ATOM      1  C   UNL     1      -1.074   2.682  26.089  0.00  0.00    +0.000 C 
ATOM      2  C   UNL     1      -0.783   2.667  25.316  0.00  0.00    +0.000 C 
ATOM      3  C   UNL     1      -0.039   2.980  25.150  0.00  0.00    +0.000 C 
ENDBRANCH   4   2
BRANCH   6   7
ATOM      7  C   UNL     1      -2.913   2.886  23.426  0.00  0.00    +0.091 C 
BRANCH   7   8
ATOM      8  C   UNL     1      -3.585   3.068  23.866  0.00  0.00    +0.227 A 
ATOM      9  N   UNL     1      -3.904   3.822  23.975  0.00  0.00    -0.111 NA
ATOM     10  N   UNL     1      -4.574   3.749  24.452  0.00  0.00    -0.107 NA
ATOM     11  C   UNL     1      -4.668   2.950  24.638  0.00  0.00    +0.252 A 
ATOM     12  O   UNL     1      -4.057   2.530  24.275  0.00  0.00    -0.419 OA
BRANCH  11  13
ATOM     13  C   UNL     1      -5.268   2.628  25.103  0.00  0.00    +0.083 A 
ATOM     14  C   UNL     1      -5.835   2.135  24.763  0.00  0.00    +0.007 A 
ATOM     15  C   UNL     1      -6.436   1.813  25.228  0.00  0.00    +0.000 A 
ATOM     16  C   UNL     1      -6.468   1.984  26.035  0.00  0.00    +0.002 A 
ATOM     17  C   UNL     1      -5.902   2.477  26.376  0.00  0.00    +0.030 A 
ATOM     18  C   UNL     1      -5.301   2.799  25.909  0.00  0.00    +0.145 A 
ATOM     19  F   UNL     1      -4.735   3.292  26.251  0.00  0.00    -0.204 F 
ENDBRANCH  11  13
ENDBRANCH   7   8
ENDBRANCH   6   7
BRANCH  23  24
ATOM     24  C   UNL     1      -0.471   1.136  24.787  0.00  0.00    +0.076 C 
BRANCH  24  25
ATOM     25  N   UNL     1      -0.536   0.315  24.851  0.00  0.00    -0.272 NA
ATOM     26  C   UNL     1      -0.176  -0.172  24.290  0.00  0.00    +0.072 C 
ATOM     27  C   UNL     1      -0.242  -0.992  24.354  0.00  0.00    +0.020 C 
ATOM     28  C   UNL     1      -0.668  -1.325  24.978  0.00  0.00    +0.036 C 
ATOM     31  C   UNL     1      -1.028  -0.837  25.537  0.00  0.00    +0.020 C 
ATOM     32  C   UNL     1      -0.962  -0.017  25.474  0.00  0.00    +0.072 C 
BRANCH  28  29
ATOM     29  C   UNL     1      -0.733  -2.144  25.041  0.00  0.00    +0.182 C 
ATOM     30  O   UNL     1      -1.411  -2.527  24.765  0.00  0.00    -0.220 OA
ENDBRANCH  28  29
ENDBRANCH  24  25
ENDBRANCH  23  24
TORSDOF 7
ENDMDL
MODEL 7
REMARK VINA RESULT:     -11.5      1.841      5.280
REMARK  Name = 
REMARK  7 active torsions:
REMARK  status: ('A' for Active; 'I' for Inactive)
REMARK    1  A    between atoms: C_2  and  C_4
REMARK    2  A    between atoms: C_6  and  C_7
REMARK    3  A    between atoms: C_7  and  C_8
REMARK    4  A    between atoms: C_11  and  C_13
REMARK    5  A    between atoms: C_23  and  C_24
REMARK    6  A    between atoms: C_24  and  N_25
REMARK    7  A    between atoms: C_28  and  C_29
REMARK                            x       y       z     vdW  Elec       q    Type
REMARK                         _______ _______ _______ _____ _____    ______ ____
ROOT
ATOM      4  C   UNL     1      -1.203   2.582  24.935  0.00  0.00    +0.006 C 
ATOM      5  C   UNL     1      -0.913   1.889  24.596  0.00  0.00    +0.005 C 
ATOM      6  C   UNL     1      -1.326   1.528  23.978  0.00  0.00    +0.027 C 
ATOM     20  C   UNL     1      -2.028   1.861  23.702  0.00  0.00    -0.048 C 
ATOM     21  C   UNL     1      -2.440   1.500  23.085  0.00  0.00    +0.026 C 
ATOM     22  C   UNL     1      -2.317   2.555  24.042  0.00  0.00    -0.034 C 
ATOM     23  C   UNL     1      -1.905   2.915  24.658  0.00  0.00    +0.037 C 
ENDROOT
BRANCH   4   2
ATOM      1  C   UNL     1      -0.798   2.605  26.305  0.00  0.00    +0.000 C 
ATOM      2  C   UNL     1      -0.790   2.942  25.552  0.00  0.00    +0.000 C 
ATOM      3  C   UNL     1      -0.370   3.638  25.416  0.00  0.00    +0.000 C 
ENDBRANCH   4   2
BRANCH   6   7
ATOM      7  C   UNL     1      -1.036   0.834  23.639  0.00  0.00    +0.091 C 
BRANCH   7   8
ATOM      8  C   UNL     1      -1.129   0.114  24.028  0.00  0.00    +0.227 A 
ATOM      9  N   UNL     1      -0.525  -0.338  24.364  0.00  0.00    -0.111 NA
ATOM     10  N   UNL     1      -0.866  -1.013  24.694  0.00  0.00    -0.107 NA
ATOM     11  C   UNL     1      -1.680  -0.979  24.563  0.00  0.00    +0.252 A 
ATOM     12  O   UNL     1      -1.842  -0.282  24.151  0.00  0.00    -0.419 OA
BRANCH  11  13
ATOM     13  C   UNL     1      -2.234  -1.541  24.800  0.00  0.00    +0.083 A 
ATOM     14  C   UNL     1      -2.330  -2.236  24.365  0.00  0.00    +0.007 A 
ATOM     15  C   UNL     1      -2.884  -2.799  24.601  0.00  0.00    +0.000 A 
ATOM     16  C   UNL     1      -3.342  -2.668  25.275  0.00  0.00    +0.002 A 
ATOM     17  C   UNL     1      -3.247  -1.975  25.712  0.00  0.00    +0.030 A 
ATOM     18  C   UNL     1      -2.692  -1.411  25.473  0.00  0.00    +0.145 A 
ATOM     19  F   UNL     1      -2.596  -0.718  25.909  0.00  0.00    -0.204 F 
ENDBRANCH  11  13
ENDBRANCH   7   8
ENDBRANCH   6   7
BRANCH  23  24
ATOM     24  C   UNL     1      -2.194   3.609  24.998  0.00  0.00    +0.076 C 
BRANCH  24  25
ATOM     25  N   UNL     1      -3.007   3.708  25.104  0.00  0.00    -0.272 NA
ATOM     26  C   UNL     1      -3.456   4.081  24.521  0.00  0.00    +0.072 C 
ATOM     27  C   UNL     1      -4.268   4.181  24.627  0.00  0.00    +0.020 C 
ATOM     28  C   UNL     1      -4.631   3.907  25.316  0.00  0.00    +0.036 C 
ATOM     31  C   UNL     1      -4.182   3.535  25.898  0.00  0.00    +0.020 C 
ATOM     32  C   UNL     1      -3.369   3.435  25.792  0.00  0.00    +0.072 C 
BRANCH  28  29
ATOM     29  C   UNL     1      -5.443   4.007  25.422  0.00  0.00    +0.182 C 
ATOM     30  O   UNL     1      -5.877   3.441  25.838  0.00  0.00    -0.220 OA
ENDBRANCH  28  29
ENDBRANCH  24  25
ENDBRANCH  23  24
TORSDOF 7
ENDMDL
