REMARK  Name = 
REMARK  8 active torsions:
REMARK  status: ('A' for Active; 'I' for Inactive)
REMARK    1  A    between atoms: O_2  and  C_3
REMARK    2  A    between atoms: C_8  and  N_9
REMARK    3  A    between atoms: N_12  and  C_13
REMARK    4  A    between atoms: C_13  and  C_14
REMARK    5  A    between atoms: C_16  and  C_17
REMARK    6  A    between atoms: C_17  and  C_18
REMARK    7  A    between atoms: C_21  and  C_22
REMARK    8  A    between atoms: C_22  and  N_23
REMARK                            x       y       z     vdW  Elec       q    Type
REMARK                         _______ _______ _______ _____ _____    ______ ____
ROOT
ATOM     14  C   UNL     1       4.180  -0.062   0.000  0.00  0.00    +0.167 C 
ATOM     15  O   UNL     1       3.466  -0.474   0.000  0.00  0.00    -0.354 OA
ATOM     16  C   UNL     1       2.751  -0.062   0.000  0.00  0.00    +0.121 C 
ATOM     30  C   UNL     1       2.751   0.763   0.000  0.00  0.00    +0.033 C 
ATOM     31  C   UNL     1       3.466   1.176   0.000  0.00  0.00    +0.038 C 
ATOM     32  C   UNL     1       4.180   0.763   0.000  0.00  0.00    +0.181 C 
ATOM     33  O   UNL     1       4.895   1.176   0.000  0.00  0.00    -0.220 OA
ENDROOT
BRANCH  14  13
ATOM     13  C   UNL     1       4.895  -0.474   0.000  0.00  0.00    +0.149 C 
BRANCH  13  12
ATOM      9  N   UNL     1       7.038  -0.062   0.000  0.00  0.00    -0.158 NA
ATOM     10  C   UNL     1       6.324  -0.474   0.000  0.00  0.00    +0.344 C 
ATOM     11  O   UNL     1       6.324  -1.299   0.000  0.00  0.00    -0.249 OA
ATOM     12  N   UNL     1       5.609  -0.062   0.000  0.00  0.00    -0.184 NA
BRANCH   9   8
ATOM      3  C   UNL     1       8.467  -0.062   0.000  0.00  0.00    +0.154 A 
ATOM      4  C   UNL     1       9.181  -0.474   0.000  0.00  0.00    +0.038 A 
ATOM      5  C   UNL     1       9.181  -1.299   0.000  0.00  0.00    +0.003 A 
ATOM      6  C   UNL     1       8.467  -1.712   0.000  0.00  0.00    +0.002 A 
ATOM      7  C   UNL     1       7.753  -1.299   0.000  0.00  0.00    +0.020 A 
ATOM      8  C   UNL     1       7.753  -0.474   0.000  0.00  0.00    +0.109 A 
BRANCH   3   2
ATOM      1  C   UNL     1       9.181   1.176   0.000  0.00  0.00    +0.253 C 
ATOM      2  O   UNL     1       8.467   0.763   0.000  0.00  0.00    -0.470 OA
ENDBRANCH   3   2
ENDBRANCH   9   8
ENDBRANCH  13  12
ENDBRANCH  14  13
BRANCH  16  17
ATOM     17  C   UNL     1       2.037  -0.474   0.000  0.00  0.00    +0.079 C 
BRANCH  17  18
ATOM     18  C   UNL     1       2.037  -1.299   0.000  0.00  0.00    +0.103 A 
ATOM     19  N   UNL     1       2.704  -1.784   0.000  0.00  0.00    -0.082 NA
ATOM     20  O   UNL     1       2.449  -2.569   0.000  0.00  0.00    -0.357 OA
ATOM     21  C   UNL     1       1.624  -2.569   0.000  0.00  0.00    +0.170 A 
ATOM     29  C   UNL     1       1.369  -1.784   0.000  0.00  0.00    +0.055 A 
BRANCH  21  22
ATOM     22  C   UNL     1       1.139  -3.236   0.000  0.00  0.00    +0.141 C 
BRANCH  22  23
ATOM     23  N   UNL     1       0.319  -3.150   0.000  0.00  0.00    -0.262 NA
ATOM     24  C   UNL     1      -0.166  -3.817   0.000  0.00  0.00    +0.105 C 
ATOM     25  C   UNL     1      -0.987  -3.731   0.000  0.00  0.00    +0.159 C 
ATOM     26  O   UNL     1      -1.322  -2.977   0.000  0.00  0.00    -0.351 OA
ATOM     27  C   UNL     1      -0.837  -2.310   0.000  0.00  0.00    +0.159 C 
ATOM     28  C   UNL     1      -0.017  -2.396   0.000  0.00  0.00    +0.105 C 
ENDBRANCH  22  23
ENDBRANCH  21  22
ENDBRANCH  17  18
ENDBRANCH  16  17
TORSDOF 8
