MODEL 1
REMARK VINA RESULT:      -9.8      0.000      0.000
REMARK  Name = 
REMARK  7 active torsions:
REMARK  status: ('A' for Active; 'I' for Inactive)
REMARK    1  A    between atoms: C_2  and  C_5
REMARK    2  A    between atoms: N_10  and  C_11
REMARK    3  A    between atoms: C_15  and  N_19
REMARK    4  A    between atoms: C_20  and  C_22
REMARK    5  A    between atoms: C_22  and  C_23
REMARK    6  A    between atoms: C_23  and  C_24
REMARK    7  A    between atoms: C_24  and  C_25
REMARK                            x       y       z     vdW  Elec       q    Type
REMARK                         _______ _______ _______ _____ _____    ______ ____
ROOT
ATOM     11  C   UNL     1      -3.580   2.696  24.606  0.00  0.00    +0.154 C 
ATOM     12  C   UNL     1      -4.057   2.522  25.257  0.00  0.00    +0.166 C 
ATOM     13  O   UNL     1      -4.285   1.732  25.201  0.00  0.00    -0.350 OA
ATOM     14  C   UNL     1      -3.951   1.417  24.517  0.00  0.00    +0.166 C 
ATOM     15  C   UNL     1      -3.885   0.734  24.058  0.00  0.00    +0.154 C 
ATOM     16  C   UNL     1      -3.408   0.907  23.408  0.00  0.00    +0.166 C 
ATOM     17  O   UNL     1      -3.180   1.697  23.464  0.00  0.00    -0.350 OA
ATOM     18  C   UNL     1      -3.515   2.013  24.149  0.00  0.00    +0.166 C 
ENDROOT
BRANCH  11  10
ATOM      5  C   UNL     1      -1.534   4.628  25.104  0.00  0.00    +0.063 A 
ATOM      6  C   UNL     1      -1.210   4.136  25.682  0.00  0.00    +0.035 A 
ATOM      7  C   UNL     1      -1.560   3.407  25.846  0.00  0.00    +0.103 A 
ATOM      8  N   UNL     1      -2.233   3.169  25.433  0.00  0.00    -0.211 NA
ATOM      9  C   UNL     1      -2.557   3.662  24.855  0.00  0.00    +0.236 A 
ATOM     10  N   UNL     1      -3.230   3.425  24.442  0.00  0.00    -0.200 NA
ATOM     32  N   UNL     1      -2.207   4.391  24.691  0.00  0.00    -0.217 NA
BRANCH   5   2
ATOM      1  C   UNL     1      -0.834   6.086  24.776  0.00  0.00    +0.006 C 
ATOM      2  C   UNL     1      -1.184   5.356  24.941  0.00  0.00    +0.036 C 
ATOM      3  C   UNL     1      -0.517   4.970  24.648  0.00  0.00    +0.006 C 
ATOM      4  C   UNL     1      -1.852   5.743  25.233  0.00  0.00    +0.006 C 
ENDBRANCH   5   2
ENDBRANCH  11  10
BRANCH  15  19
ATOM     19  N   UNL     1      -4.234   0.004  24.223  0.00  0.00    -0.202 NA
ATOM     20  C   UNL     1      -3.769  -0.675  24.268  0.00  0.00    +0.241 C 
ATOM     21  O   UNL     1      -2.954  -0.627  24.150  0.00  0.00    -0.273 OA
BRANCH  20  22
ATOM     22  C   UNL     1      -4.119  -1.405  24.433  0.00  0.00    +0.087 C 
BRANCH  22  23
ATOM     23  C   UNL     1      -3.661  -2.024  24.728  0.00  0.00    +0.019 C 
ATOM     28  C   UNL     1      -3.729  -1.619  25.443  0.00  0.00    +0.001 C 
ATOM     29  C   UNL     1      -3.319  -2.046  26.018  0.00  0.00    +0.000 C 
ATOM     30  C   UNL     1      -2.998  -2.715  25.658  0.00  0.00    +0.000 C 
ATOM     31  C   UNL     1      -3.210  -2.701  24.861  0.00  0.00    +0.001 C 
BRANCH  23  24
ATOM     24  C   UNL     1      -3.689  -2.300  23.951  0.00  0.00    +0.115 C 
BRANCH  24  25
ATOM     25  C   UNL     1      -4.170  -2.943  23.759  0.00  0.00    +0.365 C 
ATOM     26  O   UNL     1      -4.945  -2.816  23.507  0.00  0.00    -0.246 OA
ATOM     27  O   UNL     1      -3.876  -3.711  23.819  0.00  0.00    -0.246 OA
ENDBRANCH  24  25
ENDBRANCH  23  24
ENDBRANCH  22  23
ENDBRANCH  20  22
ENDBRANCH  15  19
TORSDOF 7
ENDMDL
MODEL 2
REMARK VINA RESULT:      -9.2      3.223      4.934
REMARK  Name = 
REMARK  7 active torsions:
REMARK  status: ('A' for Active; 'I' for Inactive)
REMARK    1  A    between atoms: C_2  and  C_5
REMARK    2  A    between atoms: N_10  and  C_11
REMARK    3  A    between atoms: C_15  and  N_19
REMARK    4  A    between atoms: C_20  and  C_22
REMARK    5  A    between atoms: C_22  and  C_23
REMARK    6  A    between atoms: C_23  and  C_24
REMARK    7  A    between atoms: C_24  and  C_25
REMARK                            x       y       z     vdW  Elec       q    Type
REMARK                         _______ _______ _______ _____ _____    ______ ____
ROOT
ATOM     11  C   UNL     1      -0.302   1.683  24.592  0.00  0.00    +0.154 C 
ATOM     12  C   UNL     1      -0.448   1.240  25.272  0.00  0.00    +0.166 C 
ATOM     13  O   UNL     1      -1.190   1.454  25.561  0.00  0.00    -0.350 OA
ATOM     14  C   UNL     1      -1.503   2.028  25.060  0.00  0.00    +0.166 C 
ATOM     15  C   UNL     1      -2.155   2.516  24.927  0.00  0.00    +0.154 C 
ATOM     16  C   UNL     1      -2.010   2.959  24.247  0.00  0.00    +0.166 C 
ATOM     17  O   UNL     1      -1.267   2.745  23.958  0.00  0.00    -0.350 OA
ATOM     18  C   UNL     1      -0.954   2.170  24.461  0.00  0.00    +0.166 C 
ENDROOT
BRANCH  11  10
ATOM      5  C   UNL     1       1.493   0.181  22.951  0.00  0.00    +0.063 A 
ATOM      6  C   UNL     1       1.033  -0.493  23.064  0.00  0.00    +0.035 A 
ATOM      7  C   UNL     1       0.353  -0.455  23.531  0.00  0.00    +0.103 A 
ATOM      8  N   UNL     1       0.134   0.257  23.885  0.00  0.00    -0.211 NA
ATOM      9  C   UNL     1       0.596   0.932  23.771  0.00  0.00    +0.236 A 
ATOM     10  N   UNL     1       0.377   1.645  24.125  0.00  0.00    -0.200 NA
ATOM     32  N   UNL     1       1.275   0.894  23.305  0.00  0.00    -0.217 NA
BRANCH   5   2
ATOM      1  C   UNL     1       2.852   0.105  22.018  0.00  0.00    +0.006 C 
ATOM      2  C   UNL     1       2.172   0.143  22.484  0.00  0.00    +0.036 C 
ATOM      3  C   UNL     1       2.609   0.489  23.092  0.00  0.00    +0.006 C 
ATOM      4  C   UNL     1       1.735  -0.203  21.876  0.00  0.00    +0.006 C 
ENDBRANCH   5   2
ENDBRANCH  11  10
BRANCH  15  19
ATOM     19  N   UNL     1      -2.835   2.554  25.394  0.00  0.00    -0.202 NA
ATOM     20  C   UNL     1      -3.580   2.524  25.041  0.00  0.00    +0.241 C 
ATOM     21  O   UNL     1      -3.647   2.456  24.222  0.00  0.00    -0.273 OA
BRANCH  20  22
ATOM     22  C   UNL     1      -4.260   2.562  25.508  0.00  0.00    +0.087 C 
BRANCH  22  23
ATOM     23  C   UNL     1      -4.992   2.360  25.188  0.00  0.00    +0.019 C 
ATOM     28  C   UNL     1      -4.726   1.586  25.287  0.00  0.00    +0.001 C 
ATOM     29  C   UNL     1      -5.317   1.076  25.021  0.00  0.00    +0.000 C 
ATOM     30  C   UNL     1      -5.950   1.536  24.757  0.00  0.00    +0.000 C 
ATOM     31  C   UNL     1      -5.749   2.329  24.860  0.00  0.00    +0.001 C 
BRANCH  23  24
ATOM     24  C   UNL     1      -5.106   3.177  25.155  0.00  0.00    +0.115 C 
BRANCH  24  25
ATOM     25  C   UNL     1      -5.566   3.552  25.729  0.00  0.00    +0.365 C 
ATOM     26  O   UNL     1      -5.945   4.262  25.553  0.00  0.00    -0.246 OA
ATOM     27  O   UNL     1      -5.645   3.216  26.478  0.00  0.00    -0.246 OA
ENDBRANCH  24  25
ENDBRANCH  23  24
ENDBRANCH  22  23
ENDBRANCH  20  22
ENDBRANCH  15  19
TORSDOF 7
ENDMDL
MODEL 3
REMARK VINA RESULT:      -9.2      3.761      5.139
REMARK  Name = 
REMARK  7 active torsions:
REMARK  status: ('A' for Active; 'I' for Inactive)
REMARK    1  A    between atoms: C_2  and  C_5
REMARK    2  A    between atoms: N_10  and  C_11
REMARK    3  A    between atoms: C_15  and  N_19
REMARK    4  A    between atoms: C_20  and  C_22
REMARK    5  A    between atoms: C_22  and  C_23
REMARK    6  A    between atoms: C_23  and  C_24
REMARK    7  A    between atoms: C_24  and  C_25
REMARK                            x       y       z     vdW  Elec       q    Type
REMARK                         _______ _______ _______ _____ _____    ______ ____
ROOT
ATOM     11  C   UNL     1       0.283   1.020  23.867  0.00  0.00    +0.154 C 
ATOM     12  C   UNL     1      -0.130   0.312  23.777  0.00  0.00    +0.166 C 
ATOM     13  O   UNL     1      -0.935   0.489  23.749  0.00  0.00    -0.350 OA
ATOM     14  C   UNL     1      -1.019   1.306  23.821  0.00  0.00    +0.166 C 
ATOM     15  C   UNL     1      -1.568   1.921  23.849  0.00  0.00    +0.154 C 
ATOM     16  C   UNL     1      -1.155   2.629  23.939  0.00  0.00    +0.166 C 
ATOM     17  O   UNL     1      -0.350   2.452  23.967  0.00  0.00    -0.350 OA
ATOM     18  C   UNL     1      -0.266   1.634  23.894  0.00  0.00    +0.166 C 
ENDROOT
BRANCH  11  10
ATOM      5  C   UNL     1       2.897   0.430  22.871  0.00  0.00    +0.063 A 
ATOM      6  C   UNL     1       2.565  -0.023  22.267  0.00  0.00    +0.035 A 
ATOM      7  C   UNL     1       1.745  -0.102  22.214  0.00  0.00    +0.103 A 
ATOM      8  N   UNL     1       1.258   0.272  22.765  0.00  0.00    -0.211 NA
ATOM      9  C   UNL     1       1.591   0.725  23.369  0.00  0.00    +0.236 A 
ATOM     10  N   UNL     1       1.103   1.099  23.920  0.00  0.00    -0.200 NA
ATOM     32  N   UNL     1       2.410   0.804  23.422  0.00  0.00    -0.217 NA
BRANCH   5   2
ATOM      1  C   UNL     1       4.536   0.589  22.977  0.00  0.00    +0.006 C 
ATOM      2  C   UNL     1       3.716   0.509  22.924  0.00  0.00    +0.036 C 
ATOM      3  C   UNL     1       3.660   1.282  22.643  0.00  0.00    +0.006 C 
ATOM      4  C   UNL     1       3.773  -0.264  23.206  0.00  0.00    +0.006 C 
ENDBRANCH   5   2
ENDBRANCH  11  10
BRANCH  15  19
ATOM     19  N   UNL     1      -2.388   1.842  23.796  0.00  0.00    -0.202 NA
ATOM     20  C   UNL     1      -2.877   2.260  24.312  0.00  0.00    +0.241 C 
ATOM     21  O   UNL     1      -2.548   2.758  24.881  0.00  0.00    -0.273 OA
BRANCH  20  22
ATOM     22  C   UNL     1      -3.697   2.181  24.259  0.00  0.00    +0.087 C 
BRANCH  22  23
ATOM     23  C   UNL     1      -4.184   2.551  24.812  0.00  0.00    +0.019 C 
ATOM     28  C   UNL     1      -4.055   3.221  24.349  0.00  0.00    +0.001 C 
ATOM     29  C   UNL     1      -4.468   3.850  24.688  0.00  0.00    +0.000 C 
ATOM     30  C   UNL     1      -4.853   3.568  25.362  0.00  0.00    +0.000 C 
ATOM     31  C   UNL     1      -4.677   2.766  25.438  0.00  0.00    +0.001 C 
BRANCH  23  24
ATOM     24  C   UNL     1      -4.211   1.804  25.160  0.00  0.00    +0.115 C 
BRANCH  24  25
ATOM     25  C   UNL     1      -4.911   1.367  25.144  0.00  0.00    +0.365 C 
ATOM     26  O   UNL     1      -5.195   1.070  24.429  0.00  0.00    -0.246 OA
ATOM     27  O   UNL     1      -5.326   1.227  25.843  0.00  0.00    -0.246 OA
ENDBRANCH  24  25
ENDBRANCH  23  24
ENDBRANCH  22  23
ENDBRANCH  20  22
ENDBRANCH  15  19
TORSDOF 7
ENDMDL
MODEL 4
REMARK VINA RESULT:      -9.0      2.039      6.393
REMARK  Name = 
REMARK  7 active torsions:
REMARK  status: ('A' for Active; 'I' for Inactive)
REMARK    1  A    between atoms: C_2  and  C_5
REMARK    2  A    between atoms: N_10  and  C_11
REMARK    3  A    between atoms: C_15  and  N_19
REMARK    4  A    between atoms: C_20  and  C_22
REMARK    5  A    between atoms: C_22  and  C_23
REMARK    6  A    between atoms: C_23  and  C_24
REMARK    7  A    between atoms: C_24  and  C_25
REMARK                            x       y       z     vdW  Elec       q    Type
REMARK                         _______ _______ _______ _____ _____    ______ ____
ROOT
ATOM     11  C   UNL     1      -1.492  -0.238  24.917  0.00  0.00    +0.154 C 
ATOM     12  C   UNL     1      -1.331  -0.091  25.713  0.00  0.00    +0.166 C 
ATOM     13  O   UNL     1      -1.145   0.709  25.791  0.00  0.00    -0.350 OA
ATOM     14  C   UNL     1      -1.191   1.056  25.045  0.00  0.00    +0.166 C 
ATOM     15  C   UNL     1      -1.105   1.765  24.632  0.00  0.00    +0.154 C 
ATOM     16  C   UNL     1      -1.265   1.618  23.836  0.00  0.00    +0.166 C 
ATOM     17  O   UNL     1      -1.451   0.818  23.758  0.00  0.00    -0.350 OA
ATOM     18  C   UNL     1      -1.405   0.471  24.505  0.00  0.00    +0.166 C 
ENDROOT
BRANCH  11  10
ATOM      5  C   UNL     1      -3.394  -2.346  24.589  0.00  0.00    +0.063 A 
ATOM      6  C   UNL     1      -3.924  -1.943  25.076  0.00  0.00    +0.035 A 
ATOM      7  C   UNL     1      -3.714  -1.215  25.402  0.00  0.00    +0.103 A 
ATOM      8  N   UNL     1      -2.973  -0.889  25.241  0.00  0.00    -0.211 NA
ATOM      9  C   UNL     1      -2.443  -1.292  24.753  0.00  0.00    +0.236 A 
ATOM     10  N   UNL     1      -1.702  -0.966  24.592  0.00  0.00    -0.200 NA
ATOM     32  N   UNL     1      -2.653  -2.020  24.428  0.00  0.00    -0.217 NA
BRANCH   5   2
ATOM      1  C   UNL     1      -3.815  -3.802  23.938  0.00  0.00    +0.006 C 
ATOM      2  C   UNL     1      -3.604  -3.074  24.264  0.00  0.00    +0.036 C 
ATOM      3  C   UNL     1      -4.069  -2.688  23.702  0.00  0.00    +0.006 C 
ATOM      4  C   UNL     1      -3.139  -3.460  24.826  0.00  0.00    +0.006 C 
ENDBRANCH   5   2
ENDBRANCH  11  10
BRANCH  15  19
ATOM     19  N   UNL     1      -0.894   2.493  24.957  0.00  0.00    -0.202 NA
ATOM     20  C   UNL     1      -1.402   3.139  24.885  0.00  0.00    +0.241 C 
ATOM     21  O   UNL     1      -2.120   3.058  24.488  0.00  0.00    -0.273 OA
BRANCH  20  22
ATOM     22  C   UNL     1      -1.191   3.868  25.211  0.00  0.00    +0.087 C 
BRANCH  22  23
ATOM     23  C   UNL     1      -1.770   4.437  25.358  0.00  0.00    +0.019 C 
ATOM     28  C   UNL     1      -1.968   3.946  25.992  0.00  0.00    +0.001 C 
ATOM     29  C   UNL     1      -2.603   4.289  26.392  0.00  0.00    +0.000 C 
ATOM     30  C   UNL     1      -2.798   4.992  26.006  0.00  0.00    +0.000 C 
ATOM     31  C   UNL     1      -2.283   5.083  25.368  0.00  0.00    +0.001 C 
BRANCH  23  24
ATOM     24  C   UNL     1      -1.452   4.808  24.695  0.00  0.00    +0.115 C 
BRANCH  24  25
ATOM     25  C   UNL     1      -0.967   5.470  24.786  0.00  0.00    +0.365 C 
ATOM     26  O   UNL     1      -1.301   6.208  24.939  0.00  0.00    -0.246 OA
ATOM     27  O   UNL     1      -0.148   5.393  24.724  0.00  0.00    -0.246 OA
ENDBRANCH  24  25
ENDBRANCH  23  24
ENDBRANCH  22  23
ENDBRANCH  20  22
ENDBRANCH  15  19
TORSDOF 7
ENDMDL
MODEL 5
REMARK VINA RESULT:      -9.0      4.025      5.026
REMARK  Name = 
REMARK  7 active torsions:
REMARK  status: ('A' for Active; 'I' for Inactive)
REMARK    1  A    between atoms: C_2  and  C_5
REMARK    2  A    between atoms: N_10  and  C_11
REMARK    3  A    between atoms: C_15  and  N_19
REMARK    4  A    between atoms: C_20  and  C_22
REMARK    5  A    between atoms: C_22  and  C_23
REMARK    6  A    between atoms: C_23  and  C_24
REMARK    7  A    between atoms: C_24  and  C_25
REMARK                            x       y       z     vdW  Elec       q    Type
REMARK                         _______ _______ _______ _____ _____    ______ ____
ROOT
ATOM     11  C   UNL     1       0.653   0.797  23.647  0.00  0.00    +0.154 C 
ATOM     12  C   UNL     1       0.303   0.163  23.254  0.00  0.00    +0.166 C 
ATOM     13  O   UNL     1      -0.510   0.301  23.221  0.00  0.00    -0.350 OA
ATOM     14  C   UNL     1      -0.662   1.019  23.594  0.00  0.00    +0.166 C 
ATOM     15  C   UNL     1      -1.258   1.550  23.805  0.00  0.00    +0.154 C 
ATOM     16  C   UNL     1      -0.908   2.184  24.199  0.00  0.00    +0.166 C 
ATOM     17  O   UNL     1      -0.095   2.046  24.232  0.00  0.00    -0.350 OA
ATOM     18  C   UNL     1       0.057   1.326  23.858  0.00  0.00    +0.166 C 
ENDROOT
BRANCH  11  10
ATOM      5  C   UNL     1       3.380   0.411  22.883  0.00  0.00    +0.063 A 
ATOM      6  C   UNL     1       3.133   0.040  22.189  0.00  0.00    +0.035 A 
ATOM      7  C   UNL     1       2.327  -0.049  22.033  0.00  0.00    +0.103 A 
ATOM      8  N   UNL     1       1.769   0.233  22.571  0.00  0.00    -0.211 NA
ATOM      9  C   UNL     1       2.017   0.604  23.265  0.00  0.00    +0.236 A 
ATOM     10  N   UNL     1       1.458   0.886  23.803  0.00  0.00    -0.200 NA
ATOM     32  N   UNL     1       2.821   0.693  23.421  0.00  0.00    -0.217 NA
BRANCH   5   2
ATOM      1  C   UNL     1       4.990   0.589  23.194  0.00  0.00    +0.006 C 
ATOM      2  C   UNL     1       4.184   0.500  23.038  0.00  0.00    +0.036 C 
ATOM      3  C   UNL     1       4.191  -0.229  23.423  0.00  0.00    +0.006 C 
ATOM      4  C   UNL     1       4.179   1.230  22.653  0.00  0.00    +0.006 C 
ENDBRANCH   5   2
ENDBRANCH  11  10
BRANCH  15  19
ATOM     19  N   UNL     1      -2.063   1.461  23.649  0.00  0.00    -0.202 NA
ATOM     20  C   UNL     1      -2.607   1.463  24.270  0.00  0.00    +0.241 C 
ATOM     21  O   UNL     1      -2.345   1.555  25.047  0.00  0.00    -0.273 OA
BRANCH  20  22
ATOM     22  C   UNL     1      -3.412   1.374  24.114  0.00  0.00    +0.087 C 
BRANCH  22  23
ATOM     23  C   UNL     1      -3.886   0.938  24.630  0.00  0.00    +0.019 C 
ATOM     28  C   UNL     1      -3.634   0.295  24.179  0.00  0.00    +0.001 C 
ATOM     29  C   UNL     1      -3.984  -0.386  24.488  0.00  0.00    +0.000 C 
ATOM     30  C   UNL     1      -4.453  -0.163  25.129  0.00  0.00    +0.000 C 
ATOM     31  C   UNL     1      -4.392   0.655  25.216  0.00  0.00    +0.001 C 
BRANCH  23  24
ATOM     24  C   UNL     1      -4.040   1.672  24.972  0.00  0.00    +0.115 C 
BRANCH  24  25
ATOM     25  C   UNL     1      -4.792   2.006  24.912  0.00  0.00    +0.365 C 
ATOM     26  O   UNL     1      -5.276   2.055  25.579  0.00  0.00    -0.246 OA
ATOM     27  O   UNL     1      -5.061   2.290  24.186  0.00  0.00    -0.246 OA
ENDBRANCH  24  25
ENDBRANCH  23  24
ENDBRANCH  22  23
ENDBRANCH  20  22
ENDBRANCH  15  19
TORSDOF 7
ENDMDL
MODEL 6
REMARK VINA RESULT:      -8.3      1.492      6.147
REMARK  Name = 
REMARK  7 active torsions:
REMARK  status: ('A' for Active; 'I' for Inactive)
REMARK    1  A    between atoms: C_2  and  C_5
REMARK    2  A    between atoms: N_10  and  C_11
REMARK    3  A    between atoms: C_15  and  N_19
REMARK    4  A    between atoms: C_20  and  C_22
REMARK    5  A    between atoms: C_22  and  C_23
REMARK    6  A    between atoms: C_23  and  C_24
REMARK    7  A    between atoms: C_24  and  C_25
REMARK                            x       y       z     vdW  Elec       q    Type
REMARK                         _______ _______ _______ _____ _____    ______ ____
ROOT
ATOM     11  C   UNL     1      -4.042   0.383  23.969  0.00  0.00    +0.154 C 
ATOM     12  C   UNL     1      -4.509   0.708  24.566  0.00  0.00    +0.166 C 
ATOM     13  O   UNL     1      -4.321   1.509  24.629  0.00  0.00    -0.350 OA
ATOM     14  C   UNL     1      -3.739   1.679  24.071  0.00  0.00    +0.166 C 
ATOM     15  C   UNL     1      -3.262   2.278  23.764  0.00  0.00    +0.154 C 
ATOM     16  C   UNL     1      -2.795   1.953  23.167  0.00  0.00    +0.166 C 
ATOM     17  O   UNL     1      -2.983   1.153  23.104  0.00  0.00    -0.350 OA
ATOM     18  C   UNL     1      -3.566   0.983  23.663  0.00  0.00    +0.166 C 
ENDROOT
BRANCH  11  10
ATOM      5  C   UNL     1      -3.630  -2.391  24.523  0.00  0.00    +0.063 A 
ATOM      6  C   UNL     1      -3.408  -2.203  25.295  0.00  0.00    +0.035 A 
ATOM      7  C   UNL     1      -3.400  -1.416  25.543  0.00  0.00    +0.103 A 
ATOM      8  N   UNL     1      -3.614  -0.816  25.018  0.00  0.00    -0.211 NA
ATOM      9  C   UNL     1      -3.836  -1.004  24.246  0.00  0.00    +0.236 A 
ATOM     10  N   UNL     1      -4.050  -0.404  23.721  0.00  0.00    -0.200 NA
ATOM     32  N   UNL     1      -3.844  -1.791  23.999  0.00  0.00    -0.217 NA
BRANCH   5   2
ATOM      1  C   UNL     1      -3.647  -3.964  24.028  0.00  0.00    +0.006 C 
ATOM      2  C   UNL     1      -3.638  -3.177  24.276  0.00  0.00    +0.036 C 
ATOM      3  C   UNL     1      -4.370  -3.056  23.915  0.00  0.00    +0.006 C 
ATOM      4  C   UNL     1      -2.906  -3.298  24.637  0.00  0.00    +0.006 C 
ENDBRANCH   5   2
ENDBRANCH  11  10
BRANCH  15  19
ATOM     19  N   UNL     1      -3.254   3.065  24.012  0.00  0.00    -0.202 NA
ATOM     20  C   UNL     1      -2.589   3.371  24.392  0.00  0.00    +0.241 C 
ATOM     21  O   UNL     1      -1.932   2.890  24.525  0.00  0.00    -0.273 OA
BRANCH  20  22
ATOM     22  C   UNL     1      -2.581   4.158  24.640  0.00  0.00    +0.087 C 
BRANCH  22  23
ATOM     23  C   UNL     1      -2.351   4.346  25.409  0.00  0.00    +0.019 C 
ATOM     28  C   UNL     1      -3.142   4.197  25.590  0.00  0.00    +0.001 C 
ATOM     29  C   UNL     1      -3.246   4.316  26.399  0.00  0.00    +0.000 C 
ATOM     30  C   UNL     1      -2.519   4.538  26.720  0.00  0.00    +0.000 C 
ATOM     31  C   UNL     1      -1.966   4.557  26.108  0.00  0.00    +0.001 C 
BRANCH  23  24
ATOM     24  C   UNL     1      -1.608   4.456  25.069  0.00  0.00    +0.115 C 
BRANCH  24  25
ATOM     25  C   UNL     1      -1.293   5.216  25.003  0.00  0.00    +0.365 C 
ATOM     26  O   UNL     1      -0.476   5.328  25.038  0.00  0.00    -0.246 OA
ATOM     27  O   UNL     1      -1.794   5.863  24.903  0.00  0.00    -0.246 OA
ENDBRANCH  24  25
ENDBRANCH  23  24
ENDBRANCH  22  23
ENDBRANCH  20  22
ENDBRANCH  15  19
TORSDOF 7
ENDMDL
