MODEL 1
REMARK VINA RESULT:     -13.0      0.000      0.000
REMARK  Name = 
REMARK  3 active torsions:
REMARK  status: ('A' for Active; 'I' for Inactive)
REMARK    1  A    between atoms: C_7  and  C_9
REMARK    2  A    between atoms: N_12  and  C_13
REMARK    3  A    between atoms: C_13  and  C_14
REMARK                            x       y       z     vdW  Elec       q    Type
REMARK                         _______ _______ _______ _____ _____    ______ ____
ROOT
ATOM      9  C   UNL     1      -4.400   1.118  24.756  0.00  0.00    +0.094 C 
ATOM     10  C   UNL     1      -5.120   1.450  24.983  0.00  0.00    +0.028 C 
ATOM     11  C   UNL     1      -5.066   2.268  24.888  0.00  0.00    +0.073 C 
ATOM     12  N   UNL     1      -4.311   2.442  24.603  0.00  0.00    -0.268 NA
ATOM     21  C   UNL     1      -3.900   1.731  24.522  0.00  0.00    +0.082 C 
ENDROOT
BRANCH   9   7
ATOM      1  C   UNL     1      -3.764  -3.091  24.039  0.00  0.00    +0.031 C 
ATOM      2  C   UNL     1      -3.763  -2.354  24.409  0.00  0.00    -0.020 A 
ATOM      3  C   UNL     1      -4.089  -1.700  24.027  0.00  0.00    +0.018 A 
ATOM      4  C   UNL     1      -4.088  -0.962  24.397  0.00  0.00    +0.118 A 
ATOM      5  C   UNL     1      -3.761  -0.880  25.150  0.00  0.00    +0.164 A 
ATOM      6  O   UNL     1      -3.838  -0.091  25.376  0.00  0.00    -0.438 OA
ATOM      7  C   UNL     1      -4.212   0.315  24.763  0.00  0.00    +0.207 A 
ATOM      8  N   UNL     1      -4.367  -0.224  24.159  0.00  0.00    -0.212 NA
ATOM     22  C   UNL     1      -3.435  -1.534  25.533  0.00  0.00    +0.039 A 
ATOM     23  C   UNL     1      -3.436  -2.271  25.162  0.00  0.00    -0.001 A 
ENDBRANCH   9   7
BRANCH  12  13
ATOM     13  C   UNL     1      -4.019   3.193  24.430  0.00  0.00    +0.101 C 
BRANCH  13  14
ATOM     14  C   UNL     1      -3.494   3.562  24.949  0.00  0.00    +0.021 A 
ATOM     15  C   UNL     1      -3.724   3.718  25.727  0.00  0.00    -0.001 A 
ATOM     16  C   UNL     1      -3.198   4.087  26.244  0.00  0.00    -0.000 A 
ATOM     17  C   UNL     1      -2.445   4.300  25.987  0.00  0.00    +0.002 A 
ATOM     18  C   UNL     1      -2.216   4.145  25.209  0.00  0.00    +0.029 A 
ATOM     19  C   UNL     1      -2.741   3.775  24.690  0.00  0.00    +0.137 A 
ATOM     20  F   UNL     1      -2.512   3.620  23.913  0.00  0.00    -0.204 F 
ENDBRANCH  13  14
ENDBRANCH  12  13
TORSDOF 3
ENDMDL
MODEL 2
REMARK VINA RESULT:     -12.8      1.602      5.026
REMARK  Name = 
REMARK  3 active torsions:
REMARK  status: ('A' for Active; 'I' for Inactive)
REMARK    1  A    between atoms: C_7  and  C_9
REMARK    2  A    between atoms: N_12  and  C_13
REMARK    3  A    between atoms: C_13  and  C_14
REMARK                            x       y       z     vdW  Elec       q    Type
REMARK                         _______ _______ _______ _____ _____    ______ ____
ROOT
ATOM      9  C   UNL     1      -3.379   1.593  24.802  0.00  0.00    +0.094 C 
ATOM     10  C   UNL     1      -3.995   1.526  24.258  0.00  0.00    +0.028 C 
ATOM     11  C   UNL     1      -4.390   0.817  24.405  0.00  0.00    +0.073 C 
ATOM     12  N   UNL     1      -4.018   0.446  25.040  0.00  0.00    -0.268 NA
ATOM     21  C   UNL     1      -3.393   0.926  25.286  0.00  0.00    +0.082 C 
ENDROOT
BRANCH   9   7
ATOM      1  C   UNL     1      -1.254   5.338  25.117  0.00  0.00    +0.031 C 
ATOM      2  C   UNL     1      -1.405   4.530  25.047  0.00  0.00    -0.020 A 
ATOM      3  C   UNL     1      -2.182   4.255  25.029  0.00  0.00    +0.018 A 
ATOM      4  C   UNL     1      -2.333   3.447  24.958  0.00  0.00    +0.118 A 
ATOM      5  C   UNL     1      -1.705   2.914  24.907  0.00  0.00    +0.164 A 
ATOM      6  O   UNL     1      -2.021   2.155  24.842  0.00  0.00    -0.438 OA
ATOM      7  C   UNL     1      -2.843   2.219  24.853  0.00  0.00    +0.207 A 
ATOM      8  N   UNL     1      -3.035   3.017  24.925  0.00  0.00    -0.212 NA
ATOM     22  C   UNL     1      -0.927   3.189  24.925  0.00  0.00    +0.039 A 
ATOM     23  C   UNL     1      -0.777   3.997  24.996  0.00  0.00    -0.001 A 
ENDBRANCH   9   7
BRANCH  12  13
ATOM     13  C   UNL     1      -4.232  -0.278  25.373  0.00  0.00    +0.101 C 
BRANCH  13  14
ATOM     14  C   UNL     1      -4.005  -0.983  25.009  0.00  0.00    +0.021 A 
ATOM     15  C   UNL     1      -4.193  -1.118  24.216  0.00  0.00    -0.001 A 
ATOM     16  C   UNL     1      -3.966  -1.823  23.854  0.00  0.00    -0.000 A 
ATOM     17  C   UNL     1      -3.551  -2.393  24.281  0.00  0.00    +0.002 A 
ATOM     18  C   UNL     1      -3.363  -2.258  25.074  0.00  0.00    +0.029 A 
ATOM     19  C   UNL     1      -3.590  -1.553  25.438  0.00  0.00    +0.137 A 
ATOM     20  F   UNL     1      -3.402  -1.417  26.229  0.00  0.00    -0.204 F 
ENDBRANCH  13  14
ENDBRANCH  12  13
TORSDOF 3
ENDMDL
MODEL 3
REMARK VINA RESULT:     -12.5      0.953      1.425
REMARK  Name = 
REMARK  3 active torsions:
REMARK  status: ('A' for Active; 'I' for Inactive)
REMARK    1  A    between atoms: C_7  and  C_9
REMARK    2  A    between atoms: N_12  and  C_13
REMARK    3  A    between atoms: C_13  and  C_14
REMARK                            x       y       z     vdW  Elec       q    Type
REMARK                         _______ _______ _______ _____ _____    ______ ____
ROOT
ATOM      9  C   UNL     1      -3.498   1.134  23.957  0.00  0.00    +0.094 C 
ATOM     10  C   UNL     1      -3.141   1.493  23.307  0.00  0.00    +0.028 C 
ATOM     11  C   UNL     1      -3.212   2.310  23.394  0.00  0.00    +0.073 C 
ATOM     12  N   UNL     1      -3.614   2.456  24.099  0.00  0.00    -0.268 NA
ATOM     21  C   UNL     1      -3.791   1.729  24.447  0.00  0.00    +0.082 C 
ENDROOT
BRANCH   9   7
ATOM      1  C   UNL     1      -3.233  -2.969  25.272  0.00  0.00    +0.031 C 
ATOM      2  C   UNL     1      -3.459  -2.299  24.848  0.00  0.00    -0.020 A 
ATOM      3  C   UNL     1      -3.137  -1.564  25.035  0.00  0.00    +0.018 A 
ATOM      4  C   UNL     1      -3.363  -0.893  24.611  0.00  0.00    +0.118 A 
ATOM      5  C   UNL     1      -3.912  -0.959  23.998  0.00  0.00    +0.164 A 
ATOM      6  O   UNL     1      -4.029  -0.208  23.679  0.00  0.00    -0.438 OA
ATOM      7  C   UNL     1      -3.553   0.322  24.094  0.00  0.00    +0.207 A 
ATOM      8  N   UNL     1      -3.142  -0.102  24.670  0.00  0.00    -0.212 NA
ATOM     22  C   UNL     1      -4.234  -1.696  23.810  0.00  0.00    +0.039 A 
ATOM     23  C   UNL     1      -4.007  -2.365  24.235  0.00  0.00    -0.001 A 
ENDBRANCH   9   7
BRANCH  12  13
ATOM     13  C   UNL     1      -3.806   3.199  24.403  0.00  0.00    +0.101 C 
BRANCH  13  14
ATOM     14  C   UNL     1      -3.300   3.568  24.941  0.00  0.00    +0.021 A 
ATOM     15  C   UNL     1      -2.508   3.692  24.744  0.00  0.00    -0.001 A 
ATOM     16  C   UNL     1      -2.004   4.061  25.282  0.00  0.00    -0.000 A 
ATOM     17  C   UNL     1      -2.289   4.307  26.015  0.00  0.00    +0.002 A 
ATOM     18  C   UNL     1      -3.081   4.183  26.212  0.00  0.00    +0.029 A 
ATOM     19  C   UNL     1      -3.587   3.814  25.674  0.00  0.00    +0.137 A 
ATOM     20  F   UNL     1      -4.379   3.690  25.870  0.00  0.00    -0.204 F 
ENDBRANCH  13  14
ENDBRANCH  12  13
TORSDOF 3
ENDMDL
MODEL 4
REMARK VINA RESULT:     -12.1      1.661      2.062
REMARK  Name = 
REMARK  3 active torsions:
REMARK  status: ('A' for Active; 'I' for Inactive)
REMARK    1  A    between atoms: C_7  and  C_9
REMARK    2  A    between atoms: N_12  and  C_13
REMARK    3  A    between atoms: C_13  and  C_14
REMARK                            x       y       z     vdW  Elec       q    Type
REMARK                         _______ _______ _______ _____ _____    ______ ____
ROOT
ATOM      9  C   UNL     1      -2.018   1.133  24.323  0.00  0.00    +0.094 C 
ATOM     10  C   UNL     1      -1.746   1.530  23.653  0.00  0.00    +0.028 C 
ATOM     11  C   UNL     1      -1.339   2.203  23.901  0.00  0.00    +0.073 C 
ATOM     12  N   UNL     1      -1.359   2.222  24.726  0.00  0.00    -0.268 NA
ATOM     21  C   UNL     1      -1.778   1.560  24.986  0.00  0.00    +0.082 C 
ENDROOT
BRANCH   9   7
ATOM      1  C   UNL     1      -3.581  -2.881  24.607  0.00  0.00    +0.031 C 
ATOM      2  C   UNL     1      -3.538  -2.068  24.474  0.00  0.00    -0.020 A 
ATOM      3  C   UNL     1      -2.829  -1.667  24.598  0.00  0.00    +0.018 A 
ATOM      4  C   UNL     1      -2.786  -0.853  24.465  0.00  0.00    +0.118 A 
ATOM      5  C   UNL     1      -3.453  -0.442  24.208  0.00  0.00    +0.164 A 
ATOM      6  O   UNL     1      -3.247   0.352  24.124  0.00  0.00    -0.438 OA
ATOM      7  C   UNL     1      -2.452   0.431  24.328  0.00  0.00    +0.207 A 
ATOM      8  N   UNL     1      -2.168  -0.313  24.539  0.00  0.00    -0.212 NA
ATOM     22  C   UNL     1      -4.164  -0.844  24.084  0.00  0.00    +0.039 A 
ATOM     23  C   UNL     1      -4.206  -1.657  24.217  0.00  0.00    -0.001 A 
ENDBRANCH   9   7
BRANCH  12  13
ATOM     13  C   UNL     1      -1.019   2.800  25.206  0.00  0.00    +0.101 C 
BRANCH  13  14
ATOM     14  C   UNL     1      -1.385   3.535  25.290  0.00  0.00    +0.021 A 
ATOM     15  C   UNL     1      -2.150   3.583  25.594  0.00  0.00    -0.001 A 
ATOM     16  C   UNL     1      -2.515   4.318  25.677  0.00  0.00    -0.000 A 
ATOM     17  C   UNL     1      -2.115   5.005  25.457  0.00  0.00    +0.002 A 
ATOM     18  C   UNL     1      -1.350   4.957  25.152  0.00  0.00    +0.029 A 
ATOM     19  C   UNL     1      -0.984   4.222  25.068  0.00  0.00    +0.137 A 
ATOM     20  F   UNL     1      -0.219   4.173  24.764  0.00  0.00    -0.204 F 
ENDBRANCH  13  14
ENDBRANCH  12  13
TORSDOF 3
ENDMDL
