REMARK  Name = 
REMARK  2 active torsions:
REMARK  status: ('A' for Active; 'I' for Inactive)
REMARK    1  A    between atoms: O_2  and  C_3
REMARK    2  A    between atoms: C_10  and  C_12
REMARK                            x       y       z     vdW  Elec       q    Type
REMARK                         _______ _______ _______ _____ _____    ______ ____
ROOT
ATOM      3  C   UNL     1       4.653   5.058   0.000  0.00  0.00    +0.165 C 
ATOM      4  C   UNL     1       5.469   4.935   0.000  0.00  0.00    +0.173 C 
ATOM      5  O   UNL     1       5.881   4.220   0.000  0.00  0.00    -0.349 OA
ATOM      6  C   UNL     1       5.580   3.453   0.000  0.00  0.00    +0.164 C 
ATOM      7  C   UNL     1       4.792   3.209   0.000  0.00  0.00    +0.126 C 
ATOM      8  N   UNL     1       4.110   3.674   0.000  0.00  0.00    -0.270 N 
ATOM      9  C   UNL     1       4.048   4.497   0.000  0.00  0.00    +0.126 C 
ATOM     10  C   UNL     1       3.396   3.261   0.000  0.00  0.00    +0.270 C 
ATOM     11  O   UNL     1       2.681   3.674   0.000  0.00  0.00    -0.268 OA
ENDROOT
BRANCH  10  12
ATOM     12  C   UNL     1       3.396   2.437   0.000  0.00  0.00    +0.176 A 
ATOM     13  N   UNL     1       4.063   1.952   0.000  0.00  0.00    -0.073 NA
ATOM     14  O   UNL     1       3.808   1.167   0.000  0.00  0.00    -0.358 OA
ATOM     15  C   UNL     1       2.983   1.167   0.000  0.00  0.00    +0.155 A 
ATOM     16  C   UNL     1       2.498   0.499   0.000  0.00  0.00    +0.075 C 
ATOM     17  C   UNL     1       2.728   1.952   0.000  0.00  0.00    +0.063 A 
ENDBRANCH  10  12
BRANCH   3   2
ATOM      1  C   UNL     1       4.971   6.451   0.000  0.00  0.00    +0.174 C 
ATOM      2  O   UNL     1       4.410   5.846   0.000  0.00  0.00    -0.349 OA
ENDBRANCH   3   2
TORSDOF 2
