MODEL 1
REMARK VINA RESULT:     -11.0      0.000      0.000
REMARK  Name = 
REMARK  5 active torsions:
REMARK  status: ('A' for Active; 'I' for Inactive)
REMARK    1  A    between atoms: C_2  and  C_5
REMARK    2  A    between atoms: C_9  and  N_10
REMARK    3  A    between atoms: N_13  and  C_14
REMARK    4  A    between atoms: C_18  and  N_22
REMARK    5  A    between atoms: C_25  and  C_29
REMARK                            x       y       z     vdW  Elec       q    Type
REMARK                         _______ _______ _______ _____ _____    ______ ____
ROOT
ATOM     14  C   UNL     1       0.498   0.464  23.481  0.00  0.00    +0.156 C 
ATOM     15  C   UNL     1       0.441   1.286  23.439  0.00  0.00    +0.166 C 
ATOM     16  O   UNL     1      -0.252   1.513  23.825  0.00  0.00    -0.350 OA
ATOM     17  C   UNL     1      -0.623   0.832  24.105  0.00  0.00    +0.166 C 
ATOM     18  C   UNL     1      -1.280   0.550  24.516  0.00  0.00    +0.154 C 
ATOM     19  C   UNL     1      -1.223  -0.272  24.558  0.00  0.00    +0.166 C 
ATOM     20  O   UNL     1      -0.530  -0.498  24.172  0.00  0.00    -0.350 OA
ATOM     21  C   UNL     1      -0.159   0.184  23.892  0.00  0.00    +0.166 C 
ENDROOT
BRANCH  18  22
ATOM     22  N   UNL     1      -1.888   1.010  24.832  0.00  0.00    -0.200 NA
ATOM     23  C   UNL     1      -2.672   0.856  24.625  0.00  0.00    +0.237 A 
ATOM     24  N   UNL     1      -3.280   1.316  24.939  0.00  0.00    -0.212 NA
ATOM     25  C   UNL     1      -4.064   1.162  24.733  0.00  0.00    +0.092 A 
ATOM     26  C   UNL     1      -4.239   0.548  24.211  0.00  0.00    +0.040 A 
ATOM     27  C   UNL     1      -3.631   0.088  23.895  0.00  0.00    +0.103 A 
ATOM     28  N   UNL     1      -2.848   0.242  24.103  0.00  0.00    -0.211 NA
BRANCH  25  29
ATOM     29  C   UNL     1      -4.672   1.622  25.047  0.00  0.00    +0.047 A 
ATOM     30  C   UNL     1      -5.350   1.338  25.423  0.00  0.00    +0.009 A 
ATOM     31  C   UNL     1      -5.806   1.987  25.650  0.00  0.00    +0.008 A 
ATOM     32  C   UNL     1      -5.410   2.671  25.414  0.00  0.00    +0.035 A 
ATOM     33  S   UNL     1      -4.710   2.445  25.042  0.00  0.00    -0.085 S 
ENDBRANCH  25  29
ENDBRANCH  18  22
BRANCH  14  13
ATOM     10  N   UNL     1       2.494  -0.187  22.883  0.00  0.00    -0.161 NA
ATOM     11  C   UNL     1       1.886   0.272  23.197  0.00  0.00    +0.344 C 
ATOM     12  O   UNL     1       2.057   1.001  23.545  0.00  0.00    -0.249 OA
ATOM     13  N   UNL     1       1.106   0.004  23.166  0.00  0.00    -0.184 NA
BRANCH  10   9
ATOM      5  C   UNL     1       4.588   0.003  23.470  0.00  0.00    +0.073 A 
ATOM      6  C   UNL     1       4.832   0.618  22.977  0.00  0.00    +0.004 A 
ATOM      7  C   UNL     1       4.297   0.965  22.454  0.00  0.00    +0.001 A 
ATOM      8  C   UNL     1       3.518   0.696  22.422  0.00  0.00    +0.017 A 
ATOM      9  C   UNL     1       3.273   0.081  22.915  0.00  0.00    +0.075 A 
ATOM     34  C   UNL     1       3.808  -0.266  23.438  0.00  0.00    +0.021 A 
BRANCH   5   2
ATOM      1  F   UNL     1       5.658  -0.690  24.517  0.00  0.00    -0.166 F 
ATOM      2  C   UNL     1       5.122  -0.344  23.993  0.00  0.00    +0.419 C 
ATOM      3  F   UNL     1       5.289   0.397  24.313  0.00  0.00    -0.166 F 
ATOM      4  F   UNL     1       4.956  -1.086  23.673  0.00  0.00    -0.166 F 
ENDBRANCH   5   2
ENDBRANCH  10   9
ENDBRANCH  14  13
TORSDOF 5
ENDMDL
MODEL 2
REMARK VINA RESULT:     -10.2      3.989      7.589
REMARK  Name = 
REMARK  5 active torsions:
REMARK  status: ('A' for Active; 'I' for Inactive)
REMARK    1  A    between atoms: C_2  and  C_5
REMARK    2  A    between atoms: C_9  and  N_10
REMARK    3  A    between atoms: N_13  and  C_14
REMARK    4  A    between atoms: C_18  and  N_22
REMARK    5  A    between atoms: C_25  and  C_29
REMARK                            x       y       z     vdW  Elec       q    Type
REMARK                         _______ _______ _______ _____ _____    ______ ____
ROOT
ATOM     14  C   UNL     1      -1.859   1.722  23.779  0.00  0.00    +0.156 C 
ATOM     15  C   UNL     1      -1.460   2.443  23.808  0.00  0.00    +0.166 C 
ATOM     16  O   UNL     1      -0.652   2.285  23.855  0.00  0.00    -0.350 OA
ATOM     17  C   UNL     1      -0.552   1.467  23.854  0.00  0.00    +0.166 C 
ATOM     18  C   UNL     1       0.009   0.863  23.882  0.00  0.00    +0.154 C 
ATOM     19  C   UNL     1      -0.390   0.141  23.853  0.00  0.00    +0.166 C 
ATOM     20  O   UNL     1      -1.198   0.300  23.807  0.00  0.00    -0.350 OA
ATOM     21  C   UNL     1      -1.298   1.119  23.807  0.00  0.00    +0.166 C 
ENDROOT
BRANCH  18  22
ATOM     22  N   UNL     1       0.827   0.963  23.932  0.00  0.00    -0.200 NA
ATOM     23  C   UNL     1       1.322   0.593  23.385  0.00  0.00    +0.237 A 
ATOM     24  N   UNL     1       2.139   0.693  23.433  0.00  0.00    -0.212 NA
ATOM     25  C   UNL     1       2.634   0.323  22.886  0.00  0.00    +0.092 A 
ATOM     26  C   UNL     1       2.311  -0.147  22.290  0.00  0.00    +0.040 A 
ATOM     27  C   UNL     1       1.493  -0.247  22.241  0.00  0.00    +0.103 A 
ATOM     28  N   UNL     1       0.999   0.123  22.789  0.00  0.00    -0.211 NA
BRANCH  25  29
ATOM     29  C   UNL     1       3.451   0.423  22.935  0.00  0.00    +0.047 A 
ATOM     30  C   UNL     1       3.869   1.103  22.728  0.00  0.00    +0.009 A 
ATOM     31  C   UNL     1       4.670   0.961  22.865  0.00  0.00    +0.008 A 
ATOM     32  C   UNL     1       4.747   0.193  23.155  0.00  0.00    +0.035 A 
ATOM     33  S   UNL     1       3.993  -0.139  23.199  0.00  0.00    -0.085 S 
ENDBRANCH  25  29
ENDBRANCH  18  22
BRANCH  14  13
ATOM     10  N   UNL     1      -3.995   1.971  24.159  0.00  0.00    -0.161 NA
ATOM     11  C   UNL     1      -3.178   2.071  24.208  0.00  0.00    +0.344 C 
ATOM     12  O   UNL     1      -2.859   2.621  24.735  0.00  0.00    -0.249 OA
ATOM     13  N   UNL     1      -2.677   1.622  23.730  0.00  0.00    -0.184 NA
BRANCH  10   9
ATOM      5  C   UNL     1      -5.525   2.496  25.625  0.00  0.00    +0.073 A 
ATOM      6  C   UNL     1      -5.495   3.320  25.593  0.00  0.00    +0.004 A 
ATOM      7  C   UNL     1      -4.966   3.695  25.082  0.00  0.00    +0.001 A 
ATOM      8  C   UNL     1      -4.466   3.245  24.605  0.00  0.00    +0.017 A 
ATOM      9  C   UNL     1      -4.495   2.421  24.637  0.00  0.00    +0.075 A 
ATOM     34  C   UNL     1      -5.024   2.047  25.147  0.00  0.00    +0.021 A 
BRANCH   5   2
ATOM      1  F   UNL     1      -6.583   1.749  26.646  0.00  0.00    -0.166 F 
ATOM      2  C   UNL     1      -6.054   2.123  26.135  0.00  0.00    +0.419 C 
ATOM      3  F   UNL     1      -5.734   2.538  26.771  0.00  0.00    -0.166 F 
ATOM      4  F   UNL     1      -6.375   1.707  25.499  0.00  0.00    -0.166 F 
ENDBRANCH   5   2
ENDBRANCH  10   9
ENDBRANCH  14  13
TORSDOF 5
ENDMDL
