MODEL 1
REMARK VINA RESULT:     -12.8      0.000      0.000
REMARK  Name = 
REMARK  6 active torsions:
REMARK  status: ('A' for Active; 'I' for Inactive)
REMARK    1  A    between atoms: O_2  and  C_3
REMARK    2  A    between atoms: C_3  and  C_4
REMARK    3  A    between atoms: C_13  and  C_15
REMARK    4  A    between atoms: C_23  and  C_24
REMARK    5  A    between atoms: C_24  and  C_25
REMARK    6  A    between atoms: N_27  and  C_28
REMARK                            x       y       z     vdW  Elec       q    Type
REMARK                         _______ _______ _______ _____ _____    ______ ____
ROOT
ATOM      4  C   UNL     1      -3.580  -1.451  24.343  0.00  0.00    +0.277 C 
ATOM      5  O   UNL     1      -4.380  -1.340  24.510  0.00  0.00    -0.270 OA
ATOM      6  N   UNL     1      -3.063  -0.809  24.358  0.00  0.00    -0.152 NA
ATOM      7  C   UNL     1      -3.346  -0.055  24.539  0.00  0.00    +0.185 A 
ATOM      8  N   UNL     1      -2.896   0.635  24.574  0.00  0.00    -0.227 NA
ATOM      9  C   UNL     1      -3.401   1.257  24.774  0.00  0.00    +0.063 A 
ATOM     10  C   UNL     1      -4.161   0.951  24.862  0.00  0.00    +0.023 A 
ATOM     11  C   UNL     1      -4.786   1.450  25.063  0.00  0.00    +0.034 C 
ATOM     12  C   UNL     1      -4.651   2.256  25.175  0.00  0.00    +0.010 C 
ATOM     13  C   UNL     1      -5.276   2.755  25.376  0.00  0.00    +0.059 C 
ATOM     14  C   UNL     1      -5.677   2.035  25.327  0.00  0.00    +0.005 C 
ATOM     17  C   UNL     1      -5.142   3.561  25.489  0.00  0.00    +0.154 C 
ATOM     18  O   UNL     1      -5.767   4.061  25.690  0.00  0.00    -0.223 OA
ATOM     19  C   UNL     1      -4.381   3.868  25.401  0.00  0.00    +0.033 C 
ATOM     20  C   UNL     1      -3.755   3.368  25.200  0.00  0.00    +0.003 C 
ATOM     21  C   UNL     1      -3.891   2.563  25.088  0.00  0.00    +0.006 C 
ATOM     22  C   UNL     1      -3.130   2.869  25.000  0.00  0.00    +0.000 C 
ATOM     23  C   UNL     1      -3.265   2.064  24.887  0.00  0.00    +0.050 C 
ATOM     34  S   UNL     1      -4.127   0.139  24.717  0.00  0.00    -0.054 S 
ENDROOT
BRANCH  13  15
ATOM     15  C   UNL     1      -6.041   3.004  25.560  0.00  0.00    +0.184 C 
ATOM     16  O   UNL     1      -6.641   2.450  25.671  0.00  0.00    -0.220 OA
ENDBRANCH  13  15
BRANCH   4   3
ATOM      3  C   UNL     1      -3.297  -2.205  24.162  0.00  0.00    +0.229 C 
BRANCH   3   2
ATOM      1  C   UNL     1      -3.298  -3.609  24.422  0.00  0.00    +0.175 C 
ATOM      2  O   UNL     1      -3.658  -2.870  24.489  0.00  0.00    -0.342 OA
ENDBRANCH   3   2
ENDBRANCH   4   3
BRANCH  23  24
ATOM     24  C   UNL     1      -2.505   2.371  24.799  0.00  0.00    +0.093 C 
BRANCH  24  25
ATOM     25  C   UNL     1      -2.217   2.551  24.046  0.00  0.00    +0.246 C 
ATOM     26  O   UNL     1      -2.735   2.590  23.406  0.00  0.00    -0.273 OA
ATOM     27  N   UNL     1      -1.412   2.692  23.936  0.00  0.00    -0.179 NA
BRANCH  27  28
ATOM     28  C   UNL     1      -0.895   2.653  24.578  0.00  0.00    +0.073 A 
ATOM     29  C   UNL     1      -0.777   3.315  25.054  0.00  0.00    +0.017 A 
ATOM     30  C   UNL     1      -0.260   3.275  25.696  0.00  0.00    +0.001 A 
ATOM     31  C   UNL     1       0.139   2.572  25.860  0.00  0.00    +0.000 A 
ATOM     32  C   UNL     1       0.022   1.909  25.383  0.00  0.00    +0.001 A 
ATOM     33  C   UNL     1      -0.495   1.950  24.742  0.00  0.00    +0.017 A 
ENDBRANCH  27  28
ENDBRANCH  24  25
ENDBRANCH  23  24
TORSDOF 6
ENDMDL
MODEL 2
REMARK VINA RESULT:     -12.8      1.573      4.726
REMARK  Name = 
REMARK  6 active torsions:
REMARK  status: ('A' for Active; 'I' for Inactive)
REMARK    1  A    between atoms: O_2  and  C_3
REMARK    2  A    between atoms: C_3  and  C_4
REMARK    3  A    between atoms: C_13  and  C_15
REMARK    4  A    between atoms: C_23  and  C_24
REMARK    5  A    between atoms: C_24  and  C_25
REMARK    6  A    between atoms: N_27  and  C_28
REMARK                            x       y       z     vdW  Elec       q    Type
REMARK                         _______ _______ _______ _____ _____    ______ ____
ROOT
ATOM      4  C   UNL     1      -0.367   1.942  25.776  0.00  0.00    +0.277 C 
ATOM      5  O   UNL     1      -0.046   1.183  25.730  0.00  0.00    -0.270 OA
ATOM      6  N   UNL     1      -1.161   2.065  25.591  0.00  0.00    -0.152 NA
ATOM      7  C   UNL     1      -1.634   1.430  25.359  0.00  0.00    +0.185 A 
ATOM      8  N   UNL     1      -2.433   1.470  25.158  0.00  0.00    -0.227 NA
ATOM      9  C   UNL     1      -2.684   0.708  24.962  0.00  0.00    +0.063 A 
ATOM     10  C   UNL     1      -2.040   0.199  25.043  0.00  0.00    +0.023 A 
ATOM     11  C   UNL     1      -2.129  -0.606  24.882  0.00  0.00    +0.034 C 
ATOM     12  C   UNL     1      -2.860  -0.901  24.642  0.00  0.00    +0.010 C 
ATOM     13  C   UNL     1      -2.948  -1.705  24.482  0.00  0.00    +0.059 C 
ATOM     14  C   UNL     1      -2.150  -1.687  24.692  0.00  0.00    +0.005 C 
ATOM     17  C   UNL     1      -3.679  -2.001  24.241  0.00  0.00    +0.154 C 
ATOM     18  O   UNL     1      -3.768  -2.805  24.080  0.00  0.00    -0.223 OA
ATOM     19  C   UNL     1      -4.323  -1.492  24.160  0.00  0.00    +0.033 C 
ATOM     20  C   UNL     1      -4.236  -0.686  24.320  0.00  0.00    +0.003 C 
ATOM     21  C   UNL     1      -3.504  -0.392  24.561  0.00  0.00    +0.006 C 
ATOM     22  C   UNL     1      -4.148   0.118  24.480  0.00  0.00    +0.000 C 
ATOM     23  C   UNL     1      -3.417   0.413  24.721  0.00  0.00    +0.050 C 
ATOM     34  S   UNL     1      -1.391   0.645  25.288  0.00  0.00    -0.054 S 
ENDROOT
BRANCH  13  15
ATOM     15  C   UNL     1      -2.759  -2.504  24.394  0.00  0.00    +0.184 C 
ATOM     16  O   UNL     1      -1.972  -2.748  24.429  0.00  0.00    -0.220 OA
ENDBRANCH  13  15
BRANCH   4   3
ATOM      3  C   UNL     1       0.106   2.577  26.008  0.00  0.00    +0.229 C 
BRANCH   3   2
ATOM      1  C   UNL     1       0.861   2.879  27.182  0.00  0.00    +0.175 C 
ATOM      2  O   UNL     1       0.765   2.447  26.486  0.00  0.00    -0.342 OA
ENDBRANCH   3   2
ENDBRANCH   4   3
BRANCH  23  24
ATOM     24  C   UNL     1      -4.060   0.921  24.641  0.00  0.00    +0.093 C 
BRANCH  24  25
ATOM     25  C   UNL     1      -4.124   1.404  23.974  0.00  0.00    +0.246 C 
ATOM     26  O   UNL     1      -3.685   1.231  23.297  0.00  0.00    -0.273 OA
ATOM     27  N   UNL     1      -4.627   2.058  23.984  0.00  0.00    -0.179 NA
BRANCH  27  28
ATOM     28  C   UNL     1      -5.066   2.229  24.661  0.00  0.00    +0.073 A 
ATOM     29  C   UNL     1      -5.775   1.836  24.804  0.00  0.00    +0.017 A 
ATOM     30  C   UNL     1      -6.214   2.007  25.481  0.00  0.00    +0.001 A 
ATOM     31  C   UNL     1      -5.941   2.573  26.016  0.00  0.00    +0.000 A 
ATOM     32  C   UNL     1      -5.231   2.968  25.874  0.00  0.00    +0.001 A 
ATOM     33  C   UNL     1      -4.793   2.795  25.196  0.00  0.00    +0.017 A 
ENDBRANCH  27  28
ENDBRANCH  24  25
ENDBRANCH  23  24
TORSDOF 6
ENDMDL
MODEL 3
REMARK VINA RESULT:     -12.7      2.160      4.084
REMARK  Name = 
REMARK  6 active torsions:
REMARK  status: ('A' for Active; 'I' for Inactive)
REMARK    1  A    between atoms: O_2  and  C_3
REMARK    2  A    between atoms: C_3  and  C_4
REMARK    3  A    between atoms: C_13  and  C_15
REMARK    4  A    between atoms: C_23  and  C_24
REMARK    5  A    between atoms: C_24  and  C_25
REMARK    6  A    between atoms: N_27  and  C_28
REMARK                            x       y       z     vdW  Elec       q    Type
REMARK                         _______ _______ _______ _____ _____    ______ ____
ROOT
ATOM      4  C   UNL     1       1.078   0.703  23.385  0.00  0.00    +0.277 C 
ATOM      5  O   UNL     1       1.322   1.467  23.576  0.00  0.00    -0.270 OA
ATOM      6  N   UNL     1       0.298   0.473  23.523  0.00  0.00    -0.152 NA
ATOM      7  C   UNL     1      -0.238   1.008  23.851  0.00  0.00    +0.185 A 
ATOM      8  N   UNL     1      -1.031   0.857  24.019  0.00  0.00    -0.227 NA
ATOM      9  C   UNL     1      -1.358   1.543  24.341  0.00  0.00    +0.063 A 
ATOM     10  C   UNL     1      -0.766   2.117  24.372  0.00  0.00    +0.023 A 
ATOM     11  C   UNL     1      -0.935   2.867  24.672  0.00  0.00    +0.034 C 
ATOM     12  C   UNL     1      -1.694   3.043  24.941  0.00  0.00    +0.010 C 
ATOM     13  C   UNL     1      -1.862   3.792  25.241  0.00  0.00    +0.059 C 
ATOM     14  C   UNL     1      -1.065   3.888  25.054  0.00  0.00    +0.005 C 
ATOM     17  C   UNL     1      -2.622   3.968  25.511  0.00  0.00    +0.154 C 
ATOM     18  O   UNL     1      -2.791   4.718  25.811  0.00  0.00    -0.223 OA
ATOM     19  C   UNL     1      -3.214   3.394  25.480  0.00  0.00    +0.033 C 
ATOM     20  C   UNL     1      -3.046   2.644  25.180  0.00  0.00    +0.003 C 
ATOM     21  C   UNL     1      -2.286   2.469  24.911  0.00  0.00    +0.006 C 
ATOM     22  C   UNL     1      -2.877   1.894  24.880  0.00  0.00    +0.000 C 
ATOM     23  C   UNL     1      -2.118   1.719  24.611  0.00  0.00    +0.050 C 
ATOM     34  S   UNL     1      -0.074   1.786  24.069  0.00  0.00    -0.054 S 
ENDROOT
BRANCH  13  15
ATOM     15  C   UNL     1      -1.754   4.576  25.476  0.00  0.00    +0.184 C 
ATOM     16  O   UNL     1      -1.111   5.007  25.192  0.00  0.00    -0.220 OA
ENDBRANCH  13  15
BRANCH   4   3
ATOM      3  C   UNL     1       1.614   0.168  23.056  0.00  0.00    +0.229 C 
BRANCH   3   2
ATOM      1  C   UNL     1       2.844  -0.087  22.377  0.00  0.00    +0.175 C 
ATOM      2  O   UNL     1       2.336   0.436  22.763  0.00  0.00    -0.342 OA
ENDBRANCH   3   2
ENDBRANCH   4   3
BRANCH  23  24
ATOM     24  C   UNL     1      -2.709   1.145  24.580  0.00  0.00    +0.093 C 
BRANCH  24  25
ATOM     25  C   UNL     1      -3.149   1.041  23.889  0.00  0.00    +0.246 C 
ATOM     26  O   UNL     1      -3.145   1.626  23.307  0.00  0.00    -0.273 OA
ATOM     27  N   UNL     1      -3.590   0.353  23.780  0.00  0.00    -0.179 NA
BRANCH  27  28
ATOM     28  C   UNL     1      -3.593  -0.231  24.363  0.00  0.00    +0.073 A 
ATOM     29  C   UNL     1      -4.085  -0.156  25.021  0.00  0.00    +0.017 A 
ATOM     30  C   UNL     1      -4.087  -0.740  25.603  0.00  0.00    +0.001 A 
ATOM     31  C   UNL     1      -3.598  -1.399  25.527  0.00  0.00    +0.000 A 
ATOM     32  C   UNL     1      -3.106  -1.475  24.869  0.00  0.00    +0.001 A 
ATOM     33  C   UNL     1      -3.104  -0.891  24.287  0.00  0.00    +0.017 A 
ENDBRANCH  27  28
ENDBRANCH  24  25
ENDBRANCH  23  24
TORSDOF 6
ENDMDL
MODEL 4
REMARK VINA RESULT:     -12.6      1.681      3.999
REMARK  Name = 
REMARK  6 active torsions:
REMARK  status: ('A' for Active; 'I' for Inactive)
REMARK    1  A    between atoms: O_2  and  C_3
REMARK    2  A    between atoms: C_3  and  C_4
REMARK    3  A    between atoms: C_13  and  C_15
REMARK    4  A    between atoms: C_23  and  C_24
REMARK    5  A    between atoms: C_24  and  C_25
REMARK    6  A    between atoms: N_27  and  C_28
REMARK                            x       y       z     vdW  Elec       q    Type
REMARK                         _______ _______ _______ _____ _____    ______ ____
ROOT
ATOM      4  C   UNL     1       0.161   0.833  23.824  0.00  0.00    +0.277 C 
ATOM      5  O   UNL     1      -0.021   1.636  23.788  0.00  0.00    -0.270 OA
ATOM      6  N   UNL     1      -0.428   0.286  24.010  0.00  0.00    -0.152 NA
ATOM      7  C   UNL     1      -1.198   0.543  24.160  0.00  0.00    +0.185 A 
ATOM      8  N   UNL     1      -1.840   0.061  24.352  0.00  0.00    -0.227 NA
ATOM      9  C   UNL     1      -2.499   0.547  24.455  0.00  0.00    +0.063 A 
ATOM     10  C   UNL     1      -2.264   1.327  24.327  0.00  0.00    +0.023 A 
ATOM     11  C   UNL     1      -2.813   1.939  24.392  0.00  0.00    +0.034 C 
ATOM     12  C   UNL     1      -3.597   1.772  24.586  0.00  0.00    +0.010 C 
ATOM     13  C   UNL     1      -4.145   2.384  24.652  0.00  0.00    +0.059 C 
ATOM     14  C   UNL     1      -3.471   2.816  24.457  0.00  0.00    +0.005 C 
ATOM     17  C   UNL     1      -4.930   2.217  24.846  0.00  0.00    +0.154 C 
ATOM     18  O   UNL     1      -5.479   2.829  24.912  0.00  0.00    -0.223 OA
ATOM     19  C   UNL     1      -5.165   1.436  24.974  0.00  0.00    +0.033 C 
ATOM     20  C   UNL     1      -4.616   0.823  24.909  0.00  0.00    +0.003 C 
ATOM     21  C   UNL     1      -3.832   0.992  24.715  0.00  0.00    +0.006 C 
ATOM     22  C   UNL     1      -4.067   0.211  24.843  0.00  0.00    +0.000 C 
ATOM     23  C   UNL     1      -3.284   0.379  24.649  0.00  0.00    +0.050 C 
ATOM     34  S   UNL     1      -1.459   1.324  24.144  0.00  0.00    -0.054 S 
ENDROOT
BRANCH  13  15
ATOM     15  C   UNL     1      -4.461   3.147  24.650  0.00  0.00    +0.184 C 
ATOM     16  O   UNL     1      -3.970   3.796  24.518  0.00  0.00    -0.220 OA
ENDBRANCH  13  15
BRANCH   4   3
ATOM      3  C   UNL     1       0.930   0.576  23.674  0.00  0.00    +0.229 C 
BRANCH   3   2
ATOM      1  C   UNL     1       1.916   0.088  22.763  0.00  0.00    +0.175 C 
ATOM      2  O   UNL     1       1.147   0.346  22.913  0.00  0.00    -0.342 OA
ENDBRANCH   3   2
ENDBRANCH   4   3
BRANCH  23  24
ATOM     24  C   UNL     1      -3.519  -0.400  24.778  0.00  0.00    +0.093 C 
BRANCH  24  25
ATOM     25  C   UNL     1      -3.457  -0.732  25.531  0.00  0.00    +0.246 C 
ATOM     26  O   UNL     1      -3.372  -0.243  26.190  0.00  0.00    -0.273 OA
ATOM     27  N   UNL     1      -3.480  -1.551  25.625  0.00  0.00    -0.179 NA
BRANCH  27  28
ATOM     28  C   UNL     1      -3.565  -2.039  24.965  0.00  0.00    +0.073 A 
ATOM     29  C   UNL     1      -4.294  -2.097  24.585  0.00  0.00    +0.017 A 
ATOM     30  C   UNL     1      -4.378  -2.585  23.926  0.00  0.00    +0.001 A 
ATOM     31  C   UNL     1      -3.732  -3.015  23.646  0.00  0.00    +0.000 A 
ATOM     32  C   UNL     1      -3.002  -2.958  24.026  0.00  0.00    +0.001 A 
ATOM     33  C   UNL     1      -2.919  -2.470  24.686  0.00  0.00    +0.017 A 
ENDBRANCH  27  28
ENDBRANCH  24  25
ENDBRANCH  23  24
TORSDOF 6
ENDMDL
MODEL 5
REMARK VINA RESULT:     -12.5      2.139      4.091
REMARK  Name = 
REMARK  6 active torsions:
REMARK  status: ('A' for Active; 'I' for Inactive)
REMARK    1  A    between atoms: O_2  and  C_3
REMARK    2  A    between atoms: C_3  and  C_4
REMARK    3  A    between atoms: C_13  and  C_15
REMARK    4  A    between atoms: C_23  and  C_24
REMARK    5  A    between atoms: C_24  and  C_25
REMARK    6  A    between atoms: N_27  and  C_28
REMARK                            x       y       z     vdW  Elec       q    Type
REMARK                         _______ _______ _______ _____ _____    ______ ____
ROOT
ATOM      4  C   UNL     1       1.128   0.361  23.345  0.00  0.00    +0.277 C 
ATOM      5  O   UNL     1       1.006  -0.449  23.444  0.00  0.00    -0.270 OA
ATOM      6  N   UNL     1       0.524   0.893  23.527  0.00  0.00    -0.152 NA
ATOM      7  C   UNL     1      -0.201   0.616  23.807  0.00  0.00    +0.185 A 
ATOM      8  N   UNL     1      -0.851   1.080  24.010  0.00  0.00    -0.227 NA
ATOM      9  C   UNL     1      -1.454   0.577  24.262  0.00  0.00    +0.063 A 
ATOM     10  C   UNL     1      -1.176  -0.198  24.214  0.00  0.00    +0.023 A 
ATOM     11  C   UNL     1      -1.665  -0.826  24.434  0.00  0.00    +0.034 C 
ATOM     12  C   UNL     1      -2.431  -0.679  24.700  0.00  0.00    +0.010 C 
ATOM     13  C   UNL     1      -2.919  -1.306  24.919  0.00  0.00    +0.059 C 
ATOM     14  C   UNL     1      -2.241  -1.722  24.702  0.00  0.00    +0.005 C 
ATOM     17  C   UNL     1      -3.686  -1.159  25.186  0.00  0.00    +0.154 C 
ATOM     18  O   UNL     1      -4.175  -1.787  25.405  0.00  0.00    -0.223 OA
ATOM     19  C   UNL     1      -3.965  -0.384  25.234  0.00  0.00    +0.033 C 
ATOM     20  C   UNL     1      -3.476   0.244  25.014  0.00  0.00    +0.003 C 
ATOM     21  C   UNL     1      -2.709   0.096  24.748  0.00  0.00    +0.006 C 
ATOM     22  C   UNL     1      -2.988   0.872  24.796  0.00  0.00    +0.000 C 
ATOM     23  C   UNL     1      -2.222   0.725  24.529  0.00  0.00    +0.050 C 
ATOM     34  S   UNL     1      -0.401  -0.174  23.933  0.00  0.00    -0.054 S 
ENDROOT
BRANCH  13  15
ATOM     15  C   UNL     1      -3.173  -2.078  25.063  0.00  0.00    +0.184 C 
ATOM     16  O   UNL     1      -2.737  -2.716  24.775  0.00  0.00    -0.220 OA
ENDBRANCH  13  15
BRANCH   4   3
ATOM      3  C   UNL     1       1.852   0.638  23.064  0.00  0.00    +0.229 C 
BRANCH   3   2
ATOM      1  C   UNL     1       3.120   0.383  22.457  0.00  0.00    +0.175 C 
ATOM      2  O   UNL     1       2.366   0.126  22.673  0.00  0.00    -0.342 OA
ENDBRANCH   3   2
ENDBRANCH   4   3
BRANCH  23  24
ATOM     24  C   UNL     1      -2.500   1.499  24.577  0.00  0.00    +0.093 C 
BRANCH  24  25
ATOM     25  C   UNL     1      -2.793   1.874  23.903  0.00  0.00    +0.246 C 
ATOM     26  O   UNL     1      -2.961   1.434  23.226  0.00  0.00    -0.273 OA
ATOM     27  N   UNL     1      -2.919   2.690  23.906  0.00  0.00    -0.179 NA
BRANCH  27  28
ATOM     28  C   UNL     1      -2.751   3.130  24.584  0.00  0.00    +0.073 A 
ATOM     29  C   UNL     1      -1.998   3.445  24.695  0.00  0.00    +0.017 A 
ATOM     30  C   UNL     1      -1.831   3.885  25.373  0.00  0.00    +0.001 A 
ATOM     31  C   UNL     1      -2.417   4.008  25.939  0.00  0.00    +0.000 A 
ATOM     32  C   UNL     1      -3.171   3.692  25.829  0.00  0.00    +0.001 A 
ATOM     33  C   UNL     1      -3.338   3.253  25.151  0.00  0.00    +0.017 A 
ENDBRANCH  27  28
ENDBRANCH  24  25
ENDBRANCH  23  24
TORSDOF 6
ENDMDL
MODEL 6
REMARK VINA RESULT:     -12.3      1.677      3.638
REMARK  Name = 
REMARK  6 active torsions:
REMARK  status: ('A' for Active; 'I' for Inactive)
REMARK    1  A    between atoms: O_2  and  C_3
REMARK    2  A    between atoms: C_3  and  C_4
REMARK    3  A    between atoms: C_13  and  C_15
REMARK    4  A    between atoms: C_23  and  C_24
REMARK    5  A    between atoms: C_24  and  C_25
REMARK    6  A    between atoms: N_27  and  C_28
REMARK                            x       y       z     vdW  Elec       q    Type
REMARK                         _______ _______ _______ _____ _____    ______ ____
ROOT
ATOM      4  C   UNL     1      -1.477  -0.743  25.036  0.00  0.00    +0.277 C 
ATOM      5  O   UNL     1      -0.747  -0.361  25.087  0.00  0.00    -0.270 OA
ATOM      6  N   UNL     1      -2.171  -0.299  24.998  0.00  0.00    -0.152 NA
ATOM      7  C   UNL     1      -2.136   0.525  25.010  0.00  0.00    +0.185 A 
ATOM      8  N   UNL     1      -2.781   1.038  24.975  0.00  0.00    -0.227 NA
ATOM      9  C   UNL     1      -2.494   1.811  25.003  0.00  0.00    +0.063 A 
ATOM     10  C   UNL     1      -1.671   1.775  25.055  0.00  0.00    +0.023 A 
ATOM     11  C   UNL     1      -1.230   2.471  25.091  0.00  0.00    +0.034 C 
ATOM     12  C   UNL     1      -1.611   3.203  25.076  0.00  0.00    +0.010 C 
ATOM     13  C   UNL     1      -1.169   3.898  25.113  0.00  0.00    +0.059 C 
ATOM     14  C   UNL     1      -0.562   3.341  25.145  0.00  0.00    +0.005 C 
ATOM     17  C   UNL     1      -1.550   4.630  25.098  0.00  0.00    +0.154 C 
ATOM     18  O   UNL     1      -1.109   5.327  25.134  0.00  0.00    -0.223 OA
ATOM     19  C   UNL     1      -2.372   4.666  25.046  0.00  0.00    +0.033 C 
ATOM     20  C   UNL     1      -2.815   3.969  25.009  0.00  0.00    +0.003 C 
ATOM     21  C   UNL     1      -2.433   3.238  25.024  0.00  0.00    +0.006 C 
ATOM     22  C   UNL     1      -3.256   3.274  24.972  0.00  0.00    +0.000 C 
ATOM     23  C   UNL     1      -2.875   2.543  24.988  0.00  0.00    +0.050 C 
ATOM     34  S   UNL     1      -1.450   0.980  25.059  0.00  0.00    -0.054 S 
ENDROOT
BRANCH  13  15
ATOM     15  C   UNL     1      -0.517   4.401  25.160  0.00  0.00    +0.184 C 
ATOM     16  O   UNL     1       0.246   4.088  25.172  0.00  0.00    -0.220 OA
ENDBRANCH  13  15
BRANCH   4   3
ATOM      3  C   UNL     1      -1.512  -1.567  25.024  0.00  0.00    +0.229 C 
BRANCH   3   2
ATOM      1  C   UNL     1      -1.644  -2.756  24.244  0.00  0.00    +0.175 C 
ATOM      2  O   UNL     1      -1.393  -1.974  24.317  0.00  0.00    -0.342 OA
ENDBRANCH   3   2
ENDBRANCH   4   3
BRANCH  23  24
ATOM     24  C   UNL     1      -3.697   2.579  24.936  0.00  0.00    +0.093 C 
BRANCH  24  25
ATOM     25  C   UNL     1      -4.066   2.549  24.198  0.00  0.00    +0.246 C 
ATOM     26  O   UNL     1      -3.623   2.662  23.511  0.00  0.00    -0.273 OA
ATOM     27  N   UNL     1      -4.877   2.407  24.147  0.00  0.00    -0.179 NA
BRANCH  27  28
ATOM     28  C   UNL     1      -5.319   2.294  24.835  0.00  0.00    +0.073 A 
ATOM     29  C   UNL     1      -5.578   2.944  25.271  0.00  0.00    +0.017 A 
ATOM     30  C   UNL     1      -6.020   2.831  25.957  0.00  0.00    +0.001 A 
ATOM     31  C   UNL     1      -6.203   2.067  26.208  0.00  0.00    +0.000 A 
ATOM     32  C   UNL     1      -5.944   1.416  25.773  0.00  0.00    +0.001 A 
ATOM     33  C   UNL     1      -5.502   1.530  25.086  0.00  0.00    +0.017 A 
ENDBRANCH  27  28
ENDBRANCH  24  25
ENDBRANCH  23  24
TORSDOF 6
ENDMDL
MODEL 7
REMARK VINA RESULT:     -12.1      1.126      3.980
REMARK  Name = 
REMARK  6 active torsions:
REMARK  status: ('A' for Active; 'I' for Inactive)
REMARK    1  A    between atoms: O_2  and  C_3
REMARK    2  A    between atoms: C_3  and  C_4
REMARK    3  A    between atoms: C_13  and  C_15
REMARK    4  A    between atoms: C_23  and  C_24
REMARK    5  A    between atoms: C_24  and  C_25
REMARK    6  A    between atoms: N_27  and  C_28
REMARK                            x       y       z     vdW  Elec       q    Type
REMARK                         _______ _______ _______ _____ _____    ______ ____
ROOT
ATOM      4  C   UNL     1      -5.434   2.181  25.073  0.00  0.00    +0.277 C 
ATOM      5  O   UNL     1      -5.785   1.435  25.061  0.00  0.00    -0.270 OA
ATOM      6  N   UNL     1      -4.614   2.251  25.014  0.00  0.00    -0.152 NA
ATOM      7  C   UNL     1      -4.146   1.576  24.945  0.00  0.00    +0.185 A 
ATOM      8  N   UNL     1      -3.323   1.562  24.882  0.00  0.00    -0.227 NA
ATOM      9  C   UNL     1      -3.087   0.773  24.824  0.00  0.00    +0.063 A 
ATOM     10  C   UNL     1      -3.763   0.302  24.850  0.00  0.00    +0.023 A 
ATOM     11  C   UNL     1      -3.694  -0.519  24.803  0.00  0.00    +0.034 C 
ATOM     12  C   UNL     1      -2.951  -0.868  24.729  0.00  0.00    +0.010 C 
ATOM     13  C   UNL     1      -2.883  -1.688  24.682  0.00  0.00    +0.059 C 
ATOM     14  C   UNL     1      -3.702  -1.616  24.748  0.00  0.00    +0.005 C 
ATOM     17  C   UNL     1      -2.139  -2.038  24.608  0.00  0.00    +0.154 C 
ATOM     18  O   UNL     1      -2.071  -2.859  24.561  0.00  0.00    -0.223 OA
ATOM     19  C   UNL     1      -1.463  -1.566  24.582  0.00  0.00    +0.033 C 
ATOM     20  C   UNL     1      -1.531  -0.745  24.629  0.00  0.00    +0.003 C 
ATOM     21  C   UNL     1      -2.275  -0.396  24.703  0.00  0.00    +0.006 C 
ATOM     22  C   UNL     1      -1.599   0.076  24.676  0.00  0.00    +0.000 C 
ATOM     23  C   UNL     1      -2.342   0.424  24.750  0.00  0.00    +0.050 C 
ATOM     34  S   UNL     1      -4.418   0.798  24.925  0.00  0.00    -0.054 S 
ENDROOT
BRANCH  13  15
ATOM     15  C   UNL     1      -3.099  -2.485  24.658  0.00  0.00    +0.184 C 
ATOM     16  O   UNL     1      -3.882  -2.695  24.508  0.00  0.00    -0.220 OA
ENDBRANCH  13  15
BRANCH   4   3
ATOM      3  C   UNL     1      -5.903   2.857  25.143  0.00  0.00    +0.229 C 
BRANCH   3   2
ATOM      1  C   UNL     1      -6.045   4.153  25.724  0.00  0.00    +0.175 C 
ATOM      2  O   UNL     1      -5.794   3.369  25.779  0.00  0.00    -0.342 OA
ENDBRANCH   3   2
ENDBRANCH   4   3
BRANCH  23  24
ATOM     24  C   UNL     1      -1.667   0.896  24.723  0.00  0.00    +0.093 C 
BRANCH  24  25
ATOM     25  C   UNL     1      -1.424   1.230  24.008  0.00  0.00    +0.246 C 
ATOM     26  O   UNL     1      -1.704   0.924  23.295  0.00  0.00    -0.273 OA
ATOM     27  N   UNL     1      -0.903   1.869  24.007  0.00  0.00    -0.179 NA
BRANCH  27  28
ATOM     28  C   UNL     1      -0.624   2.174  24.721  0.00  0.00    +0.073 A 
ATOM     29  C   UNL     1       0.015   1.817  25.101  0.00  0.00    +0.017 A 
ATOM     30  C   UNL     1       0.293   2.123  25.815  0.00  0.00    +0.001 A 
ATOM     31  C   UNL     1      -0.067   2.786  26.148  0.00  0.00    +0.000 A 
ATOM     32  C   UNL     1      -0.706   3.144  25.768  0.00  0.00    +0.001 A 
ATOM     33  C   UNL     1      -0.984   2.837  25.054  0.00  0.00    +0.017 A 
ENDBRANCH  27  28
ENDBRANCH  24  25
ENDBRANCH  23  24
TORSDOF 6
ENDMDL
MODEL 8
REMARK VINA RESULT:     -11.8      1.661      5.116
REMARK  Name = 
REMARK  6 active torsions:
REMARK  status: ('A' for Active; 'I' for Inactive)
REMARK    1  A    between atoms: O_2  and  C_3
REMARK    2  A    between atoms: C_3  and  C_4
REMARK    3  A    between atoms: C_13  and  C_15
REMARK    4  A    between atoms: C_23  and  C_24
REMARK    5  A    between atoms: C_24  and  C_25
REMARK    6  A    between atoms: N_27  and  C_28
REMARK                            x       y       z     vdW  Elec       q    Type
REMARK                         _______ _______ _______ _____ _____    ______ ____
ROOT
ATOM      4  C   UNL     1      -4.406   2.963  25.212  0.00  0.00    +0.277 C 
ATOM      5  O   UNL     1      -3.767   3.453  25.034  0.00  0.00    -0.270 OA
ATOM      6  N   UNL     1      -4.313   2.144  25.197  0.00  0.00    -0.152 NA
ATOM      7  C   UNL     1      -3.582   1.814  25.003  0.00  0.00    +0.185 A 
ATOM      8  N   UNL     1      -3.409   1.009  24.965  0.00  0.00    -0.227 NA
ATOM      9  C   UNL     1      -2.615   0.929  24.752  0.00  0.00    +0.063 A 
ATOM     10  C   UNL     1      -2.300   1.685  24.657  0.00  0.00    +0.023 A 
ATOM     11  C   UNL     1      -1.508   1.778  24.442  0.00  0.00    +0.034 C 
ATOM     12  C   UNL     1      -1.033   1.115  24.321  0.00  0.00    +0.010 C 
ATOM     13  C   UNL     1      -0.243   1.208  24.107  0.00  0.00    +0.059 C 
ATOM     14  C   UNL     1      -0.471   1.999  24.159  0.00  0.00    +0.005 C 
ATOM     17  C   UNL     1       0.233   0.545  23.985  0.00  0.00    +0.154 C 
ATOM     18  O   UNL     1       1.024   0.637  23.770  0.00  0.00    -0.223 OA
ATOM     19  C   UNL     1      -0.083  -0.212  24.080  0.00  0.00    +0.033 C 
ATOM     20  C   UNL     1      -0.874  -0.305  24.295  0.00  0.00    +0.003 C 
ATOM     21  C   UNL     1      -1.349   0.359  24.416  0.00  0.00    +0.006 C 
ATOM     22  C   UNL     1      -1.665  -0.398  24.510  0.00  0.00    +0.000 C 
ATOM     23  C   UNL     1      -2.140   0.265  24.631  0.00  0.00    +0.050 C 
ATOM     34  S   UNL     1      -2.898   2.233  24.813  0.00  0.00    -0.054 S 
ENDROOT
BRANCH  13  15
ATOM     15  C   UNL     1       0.469   1.575  23.910  0.00  0.00    +0.184 C 
ATOM     16  O   UNL     1       0.606   2.357  24.132  0.00  0.00    -0.220 OA
ENDBRANCH  13  15
BRANCH   4   3
ATOM      3  C   UNL     1      -5.137   3.292  25.406  0.00  0.00    +0.229 C 
BRANCH   3   2
ATOM      1  C   UNL     1      -5.961   4.441  25.608  0.00  0.00    +0.175 C 
ATOM      2  O   UNL     1      -5.240   4.110  25.384  0.00  0.00    -0.342 OA
ENDBRANCH   3   2
ENDBRANCH   4   3
BRANCH  23  24
ATOM     24  C   UNL     1      -2.455  -0.490  24.725  0.00  0.00    +0.093 C 
BRANCH  24  25
ATOM     25  C   UNL     1      -2.527  -0.817  25.480  0.00  0.00    +0.246 C 
ATOM     26  O   UNL     1      -2.134  -0.470  26.117  0.00  0.00    -0.273 OA
ATOM     27  N   UNL     1      -2.991  -1.489  25.596  0.00  0.00    -0.179 NA
BRANCH  27  28
ATOM     28  C   UNL     1      -3.383  -1.835  24.958  0.00  0.00    +0.073 A 
ATOM     29  C   UNL     1      -4.095  -1.518  24.690  0.00  0.00    +0.017 A 
ATOM     30  C   UNL     1      -4.487  -1.864  24.052  0.00  0.00    +0.001 A 
ATOM     31  C   UNL     1      -4.165  -2.527  23.681  0.00  0.00    +0.000 A 
ATOM     32  C   UNL     1      -3.452  -2.844  23.948  0.00  0.00    +0.001 A 
ATOM     33  C   UNL     1      -3.061  -2.498  24.587  0.00  0.00    +0.017 A 
ENDBRANCH  27  28
ENDBRANCH  24  25
ENDBRANCH  23  24
TORSDOF 6
ENDMDL
MODEL 9
REMARK VINA RESULT:      -9.9     16.571     19.011
REMARK  Name = 
REMARK  6 active torsions:
REMARK  status: ('A' for Active; 'I' for Inactive)
REMARK    1  A    between atoms: O_2  and  C_3
REMARK    2  A    between atoms: C_3  and  C_4
REMARK    3  A    between atoms: C_13  and  C_15
REMARK    4  A    between atoms: C_23  and  C_24
REMARK    5  A    between atoms: C_24  and  C_25
REMARK    6  A    between atoms: N_27  and  C_28
REMARK                            x       y       z     vdW  Elec       q    Type
REMARK                         _______ _______ _______ _____ _____    ______ ____
ROOT
ATOM      4  C   UNL     1      16.056   6.575  19.896  0.00  0.00    +0.277 C 
ATOM      5  O   UNL     1      16.271   6.776  19.125  0.00  0.00    -0.270 OA
ATOM      6  N   UNL     1      15.287   6.716  20.158  0.00  0.00    -0.152 NA
ATOM      7  C   UNL     1      14.733   7.057  19.651  0.00  0.00    +0.185 A 
ATOM      8  N   UNL     1      13.948   7.229  19.836  0.00  0.00    -0.227 NA
ATOM      9  C   UNL     1      13.597   7.565  19.169  0.00  0.00    +0.063 A 
ATOM     10  C   UNL     1      14.165   7.599  18.572  0.00  0.00    +0.023 A 
ATOM     11  C   UNL     1      13.969   7.912  17.834  0.00  0.00    +0.034 C 
ATOM     12  C   UNL     1      13.206   8.190  17.693  0.00  0.00    +0.010 C 
ATOM     13  C   UNL     1      13.011   8.502  16.955  0.00  0.00    +0.059 C 
ATOM     14  C   UNL     1      13.802   8.310  16.824  0.00  0.00    +0.005 C 
ATOM     17  C   UNL     1      12.247   8.781  16.814  0.00  0.00    +0.154 C 
ATOM     18  O   UNL     1      12.051   9.094  16.076  0.00  0.00    -0.223 OA
ATOM     19  C   UNL     1      11.679   8.746  17.411  0.00  0.00    +0.033 C 
ATOM     20  C   UNL     1      11.874   8.433  18.149  0.00  0.00    +0.003 C 
ATOM     21  C   UNL     1      12.638   8.155  18.290  0.00  0.00    +0.006 C 
ATOM     22  C   UNL     1      12.070   8.121  18.887  0.00  0.00    +0.000 C 
ATOM     23  C   UNL     1      12.833   7.843  19.028  0.00  0.00    +0.050 C 
ATOM     34  S   UNL     1      14.868   7.285  18.870  0.00  0.00    -0.054 S 
ENDROOT
BRANCH  13  15
ATOM     15  C   UNL     1      13.090   8.748  16.171  0.00  0.00    +0.184 C 
ATOM     16  O   UNL     1      13.667   8.411  15.689  0.00  0.00    -0.220 OA
ENDBRANCH  13  15
BRANCH   4   3
ATOM      3  C   UNL     1      16.610   6.234  20.403  0.00  0.00    +0.229 C 
BRANCH   3   2
ATOM      1  C   UNL     1      17.405   6.423  21.574  0.00  0.00    +0.175 C 
ATOM      2  O   UNL     1      17.093   6.714  20.868  0.00  0.00    -0.342 OA
ENDBRANCH   3   2
ENDBRANCH   4   3
BRANCH  23  24
ATOM     24  C   UNL     1      12.265   7.808  19.624  0.00  0.00    +0.093 C 
BRANCH  24  25
ATOM     25  C   UNL     1      11.868   7.100  19.776  0.00  0.00    +0.246 C 
ATOM     26  O   UNL     1      11.923   6.475  19.241  0.00  0.00    -0.273 OA
ATOM     27  N   UNL     1      11.417   7.019  20.462  0.00  0.00    -0.179 NA
BRANCH  27  28
ATOM     28  C   UNL     1      11.363   7.646  20.996  0.00  0.00    +0.073 A 
ATOM     29  C   UNL     1      11.908   7.713  21.611  0.00  0.00    +0.017 A 
ATOM     30  C   UNL     1      11.853   8.340  22.144  0.00  0.00    +0.001 A 
ATOM     31  C   UNL     1      11.253   8.899  22.062  0.00  0.00    +0.000 A 
ATOM     32  C   UNL     1      10.707   8.833  21.448  0.00  0.00    +0.001 A 
ATOM     33  C   UNL     1      10.762   8.206  20.914  0.00  0.00    +0.017 A 
ENDBRANCH  27  28
ENDBRANCH  24  25
ENDBRANCH  23  24
TORSDOF 6
ENDMDL
MODEL 10
REMARK VINA RESULT:      -9.5     16.396     19.088
REMARK  Name = 
REMARK  6 active torsions:
REMARK  status: ('A' for Active; 'I' for Inactive)
REMARK    1  A    between atoms: O_2  and  C_3
REMARK    2  A    between atoms: C_3  and  C_4
REMARK    3  A    between atoms: C_13  and  C_15
REMARK    4  A    between atoms: C_23  and  C_24
REMARK    5  A    between atoms: C_24  and  C_25
REMARK    6  A    between atoms: N_27  and  C_28
REMARK                            x       y       z     vdW  Elec       q    Type
REMARK                         _______ _______ _______ _____ _____    ______ ____
ROOT
ATOM      4  C   UNL     1      12.343   8.724  16.888  0.00  0.00    +0.277 C 
ATOM      5  O   UNL     1      13.033   8.399  16.574  0.00  0.00    -0.270 OA
ATOM      6  N   UNL     1      12.200   8.680  17.700  0.00  0.00    -0.152 NA
ATOM      7  C   UNL     1      12.746   8.312  18.196  0.00  0.00    +0.185 A 
ATOM      8  N   UNL     1      12.678   8.227  19.014  0.00  0.00    -0.227 NA
ATOM      9  C   UNL     1      13.346   7.827  19.285  0.00  0.00    +0.063 A 
ATOM     10  C   UNL     1      13.828   7.665  18.635  0.00  0.00    +0.023 A 
ATOM     11  C   UNL     1      14.542   7.265  18.740  0.00  0.00    +0.034 C 
ATOM     12  C   UNL     1      14.774   7.027  19.494  0.00  0.00    +0.010 C 
ATOM     13  C   UNL     1      15.488   6.628  19.599  0.00  0.00    +0.059 C 
ATOM     14  C   UNL     1      15.505   6.740  18.782  0.00  0.00    +0.005 C 
ATOM     17  C   UNL     1      15.721   6.389  20.354  0.00  0.00    +0.154 C 
ATOM     18  O   UNL     1      16.435   5.989  20.459  0.00  0.00    -0.223 OA
ATOM     19  C   UNL     1      15.240   6.551  21.004  0.00  0.00    +0.033 C 
ATOM     20  C   UNL     1      14.525   6.952  20.899  0.00  0.00    +0.003 C 
ATOM     21  C   UNL     1      14.293   7.189  20.144  0.00  0.00    +0.006 C 
ATOM     22  C   UNL     1      13.812   7.351  20.795  0.00  0.00    +0.000 C 
ATOM     23  C   UNL     1      13.579   7.589  20.040  0.00  0.00    +0.050 C 
ATOM     34  S   UNL     1      13.456   7.965  17.961  0.00  0.00    -0.054 S 
ENDROOT
BRANCH  13  15
ATOM     15  C   UNL     1      16.208   6.266  19.420  0.00  0.00    +0.184 C 
ATOM     16  O   UNL     1      16.356   5.995  18.656  0.00  0.00    -0.220 OA
ENDBRANCH  13  15
BRANCH   4   3
ATOM      3  C   UNL     1      11.796   9.092  16.392  0.00  0.00    +0.229 C 
BRANCH   3   2
ATOM      1  C   UNL     1      10.687   9.003  15.496  0.00  0.00    +0.175 C 
ATOM      2  O   UNL     1      11.281   8.637  15.937  0.00  0.00    -0.342 OA
ENDBRANCH   3   2
ENDBRANCH   4   3
BRANCH  23  24
ATOM     24  C   UNL     1      13.099   7.751  20.690  0.00  0.00    +0.093 C 
BRANCH  24  25
ATOM     25  C   UNL     1      13.164   8.474  21.082  0.00  0.00    +0.246 C 
ATOM     26  O   UNL     1      13.843   8.934  20.987  0.00  0.00    -0.273 OA
ATOM     27  N   UNL     1      12.551   8.737  21.568  0.00  0.00    -0.179 NA
BRANCH  27  28
ATOM     28  C   UNL     1      11.873   8.277  21.662  0.00  0.00    +0.073 A 
ATOM     29  C   UNL     1      11.203   8.431  21.206  0.00  0.00    +0.017 A 
ATOM     30  C   UNL     1      10.526   7.970  21.300  0.00  0.00    +0.001 A 
ATOM     31  C   UNL     1      10.519   7.355  21.850  0.00  0.00    +0.000 A 
ATOM     32  C   UNL     1      11.188   7.201  22.306  0.00  0.00    +0.001 A 
ATOM     33  C   UNL     1      11.866   7.662  22.211  0.00  0.00    +0.017 A 
ENDBRANCH  27  28
ENDBRANCH  24  25
ENDBRANCH  23  24
TORSDOF 6
ENDMDL
