REMARK  Name = 
REMARK  7 active torsions:
REMARK  status: ('A' for Active; 'I' for Inactive)
REMARK    1  A    between atoms: N_4  and  C_5
REMARK    2  A    between atoms: C_8  and  S_11
REMARK    3  A    between atoms: S_11  and  N_14
REMARK    4  A    between atoms: N_14  and  C_15
REMARK    5  A    between atoms: C_19  and  O_23
REMARK    6  A    between atoms: O_23  and  C_24
REMARK    7  A    between atoms: C_24  and  C_25
REMARK                            x       y       z     vdW  Elec       q    Type
REMARK                         _______ _______ _______ _____ _____    ______ ____
ROOT
ATOM     14  N   UNL     1       1.015  -1.707   0.000  0.00  0.00    -0.074 NA
ENDROOT
BRANCH  14  15
ATOM     15  C   UNL     1       1.270  -0.922   0.000  0.00  0.00    +0.157 C 
ATOM     16  C   UNL     1       0.785  -0.255   0.000  0.00  0.00    +0.164 C 
ATOM     17  O   UNL     1       1.270   0.412   0.000  0.00  0.00    -0.350 OA
ATOM     18  C   UNL     1       2.054   0.158   0.000  0.00  0.00    +0.173 C 
ATOM     19  C   UNL     1       2.839   0.412   0.000  0.00  0.00    +0.175 C 
ATOM     20  C   UNL     1       3.324  -0.255   0.000  0.00  0.00    +0.174 C 
ATOM     21  O   UNL     1       2.839  -0.922   0.000  0.00  0.00    -0.349 OA
ATOM     22  C   UNL     1       2.054  -0.667   0.000  0.00  0.00    +0.165 C 
BRANCH  19  23
ATOM     23  O   UNL     1       3.094   1.197   0.000  0.00  0.00    -0.342 OA
BRANCH  23  24
ATOM     24  C   UNL     1       2.542   1.810   0.000  0.00  0.00    +0.230 C 
BRANCH  24  25
ATOM     25  C   UNL     1       2.797   2.595   0.000  0.00  0.00    +0.291 C 
ATOM     26  N   UNL     1       3.604   2.766   0.000  0.00  0.00    -0.086 NA
ATOM     27  O   UNL     1       2.245   3.208   0.000  0.00  0.00    -0.269 OA
ENDBRANCH  24  25
ENDBRANCH  23  24
ENDBRANCH  19  23
ENDBRANCH  14  15
BRANCH  14  11
ATOM     11  S   UNL     1       0.208  -1.879   0.000  0.00  0.00    +0.077 S 
ATOM     12  O   UNL     1       0.379  -2.686   0.000  0.00  0.00    -0.152 OA
ATOM     13  O   UNL     1       0.036  -1.072   0.000  0.00  0.00    -0.152 OA
BRANCH  11   8
ATOM      5  C   UNL     1      -2.213  -2.393   0.000  0.00  0.00    +0.073 A 
ATOM      6  C   UNL     1      -1.958  -1.609   0.000  0.00  0.00    +0.018 A 
ATOM      7  C   UNL     1      -1.151  -1.437   0.000  0.00  0.00    +0.021 A 
ATOM      8  C   UNL     1      -0.599  -2.050   0.000  0.00  0.00    +0.124 A 
ATOM      9  C   UNL     1      -0.854  -2.835   0.000  0.00  0.00    +0.021 A 
ATOM     10  C   UNL     1      -1.661  -3.006   0.000  0.00  0.00    +0.018 A 
BRANCH   5   4
ATOM      1  C   UNL     1      -4.082  -3.521   0.000  0.00  0.00    +0.097 C 
ATOM      2  C   UNL     1      -3.275  -3.349   0.000  0.00  0.00    +0.246 C 
ATOM      3  O   UNL     1      -2.723  -3.962   0.000  0.00  0.00    -0.273 OA
ATOM      4  N   UNL     1      -3.020  -2.565   0.000  0.00  0.00    -0.179 NA
ENDBRANCH   5   4
ENDBRANCH  11   8
ENDBRANCH  14  11
TORSDOF 7
