REMARK  Name = 
REMARK  9 active torsions:
REMARK  status: ('A' for Active; 'I' for Inactive)
REMARK    1  A    between atoms: C_2  and  C_3
REMARK    2  A    between atoms: C_3  and  C_4
REMARK    3  A    between atoms: C_7  and  C_8
REMARK    4  A    between atoms: C_8  and  C_9
REMARK    5  A    between atoms: C_11  and  C_12
REMARK    6  A    between atoms: C_15  and  C_16
REMARK    7  A    between atoms: C_16  and  N_17
REMARK    8  A    between atoms: N_20  and  C_21
REMARK    9  A    between atoms: C_21  and  C_22
REMARK                            x       y       z     vdW  Elec       q    Type
REMARK                         _______ _______ _______ _____ _____    ______ ____
ROOT
ATOM      9  C   UNL     1       3.177  -3.273   0.000  0.00  0.00    +0.027 C 
ATOM     10  C   UNL     1       2.692  -3.941   0.000  0.00  0.00    +0.005 C 
ATOM     11  C   UNL     1       1.871  -3.854   0.000  0.00  0.00    +0.006 C 
ATOM     15  C   UNL     1       1.536  -3.101   0.000  0.00  0.00    +0.037 C 
ATOM     26  C   UNL     1       2.021  -2.433   0.000  0.00  0.00    -0.034 C 
ATOM     27  C   UNL     1       2.841  -2.519   0.000  0.00  0.00    -0.048 C 
ATOM     28  C   UNL     1       3.326  -1.852   0.000  0.00  0.00    +0.026 C 
ENDROOT
BRANCH  11  12
ATOM     12  C   UNL     1       1.386  -4.522   0.000  0.00  0.00    +0.000 C 
ATOM     13  C   UNL     1       0.566  -4.436   0.000  0.00  0.00    +0.000 C 
ATOM     14  C   UNL     1       1.722  -5.275   0.000  0.00  0.00    +0.000 C 
ENDBRANCH  11  12
BRANCH   9   8
ATOM      8  C   UNL     1       3.997  -3.359   0.000  0.00  0.00    +0.091 C 
BRANCH   8   7
ATOM      4  C   UNL     1       4.895  -1.422   0.000  0.00  0.00    +0.226 A 
ATOM      5  N   UNL     1       5.562  -1.907   0.000  0.00  0.00    -0.112 NA
ATOM      6  N   UNL     1       5.307  -2.692   0.000  0.00  0.00    -0.112 NA
ATOM      7  C   UNL     1       4.482  -2.692   0.000  0.00  0.00    +0.226 A 
ATOM     29  O   UNL     1       4.227  -1.907   0.000  0.00  0.00    -0.423 OA
BRANCH   4   3
ATOM      3  C   UNL     1       4.895  -0.597   0.000  0.00  0.00    +0.087 C 
BRANCH   3   2
ATOM      1  C   UNL     1       5.609   0.640   0.000  0.00  0.00    +0.001 C 
ATOM      2  C   UNL     1       5.609  -0.185   0.000  0.00  0.00    +0.010 C 
ENDBRANCH   3   2
ENDBRANCH   4   3
ENDBRANCH   8   7
ENDBRANCH   9   8
BRANCH  15  16
ATOM     16  C   UNL     1       0.715  -3.014   0.000  0.00  0.00    +0.076 C 
BRANCH  16  17
ATOM     17  N   UNL     1       0.380  -2.261   0.000  0.00  0.00    -0.270 NA
ATOM     18  C   UNL     1      -0.441  -2.174   0.000  0.00  0.00    +0.090 C 
ATOM     19  C   UNL     1      -0.776  -1.421   0.000  0.00  0.00    +0.090 C 
ATOM     20  N   UNL     1      -0.291  -0.753   0.000  0.00  0.00    -0.268 NA
ATOM     24  C   UNL     1       0.529  -0.840   0.000  0.00  0.00    +0.090 C 
ATOM     25  C   UNL     1       0.865  -1.593   0.000  0.00  0.00    +0.090 C 
BRANCH  20  21
ATOM     21  C   UNL     1      -0.627   0.000   0.000  0.00  0.00    +0.108 C 
BRANCH  21  22
ATOM     22  C   UNL     1      -1.448   0.087   0.000  0.00  0.00    +0.199 C 
ATOM     23  O   UNL     1      -1.932  -0.581   0.000  0.00  0.00    -0.219 OA
ENDBRANCH  21  22
ENDBRANCH  20  21
ENDBRANCH  16  17
ENDBRANCH  15  16
TORSDOF 9
