MODEL 1
REMARK VINA RESULT:     -13.6      0.000      0.000
REMARK  Name = 
REMARK  5 active torsions:
REMARK  status: ('A' for Active; 'I' for Inactive)
REMARK    1  A    between atoms: C_2  and  C_3
REMARK    2  A    between atoms: C_6  and  C_7
REMARK    3  A    between atoms: C_7  and  N_8
REMARK    4  A    between atoms: C_17  and  C_22
REMARK    5  A    between atoms: C_24  and  C_28
REMARK                            x       y       z     vdW  Elec       q    Type
REMARK                         _______ _______ _______ _____ _____    ______ ____
ROOT
ATOM      8  N   UNL     1      -3.222   2.506  24.588  0.00  0.00    -0.266 NA
ATOM      9  C   UNL     1      -3.344   3.331  24.534  0.00  0.00    +0.074 C 
ATOM     10  C   UNL     1      -4.290   3.377  24.813  0.00  0.00    +0.039 C 
ATOM     11  C   UNL     1      -5.051   3.583  25.019  0.00  0.00    +0.011 C 
ATOM     12  C   UNL     1      -4.668   2.997  24.969  0.00  0.00    +0.054 C 
ATOM     13  C   UNL     1      -3.753   2.969  24.697  0.00  0.00    +0.078 C 
ATOM     14  C   UNL     1      -4.723   2.088  25.086  0.00  0.00    +0.041 A 
ATOM     15  C   UNL     1      -5.258   1.502  25.312  0.00  0.00    +0.013 A 
ATOM     16  C   UNL     1      -5.022   0.712  25.328  0.00  0.00    +0.006 A 
ATOM     17  C   UNL     1      -4.251   0.507  25.119  0.00  0.00    +0.056 A 
ATOM     18  C   UNL     1      -3.715   1.093  24.893  0.00  0.00    +0.261 A 
ATOM     19  O   UNL     1      -2.944   0.888  24.684  0.00  0.00    -0.267 OA
ATOM     20  N   UNL     1      -3.951   1.883  24.877  0.00  0.00    -0.299 N 
ATOM     21  C   UNL     1      -4.338   2.426  24.933  0.00  0.00    +0.110 C 
ENDROOT
BRANCH  17  22
ATOM     22  C   UNL     1      -4.015  -0.283  25.135  0.00  0.00    +0.005 A 
ATOM     23  C   UNL     1      -4.195  -0.780  24.501  0.00  0.00    +0.010 A 
ATOM     24  C   UNL     1      -3.960  -1.570  24.517  0.00  0.00    +0.068 A 
ATOM     25  C   UNL     1      -3.546  -1.864  25.167  0.00  0.00    +0.010 A 
ATOM     26  C   UNL     1      -3.365  -1.368  25.801  0.00  0.00    +0.001 A 
ATOM     27  C   UNL     1      -3.601  -0.577  25.785  0.00  0.00    +0.000 A 
BRANCH  24  28
ATOM     28  C   UNL     1      -4.140  -2.067  23.883  0.00  0.00    +0.100 C 
ATOM     29  N   UNL     1      -4.320  -2.564  23.250  0.00  0.00    -0.191 NA
ENDBRANCH  24  28
ENDBRANCH  17  22
BRANCH   8   7
ATOM      7  C   UNL     1      -2.828   1.782  24.550  0.00  0.00    +0.138 C 
BRANCH   7   6
ATOM      3  C   UNL     1      -0.697   1.792  24.436  0.00  0.00    +0.156 A 
ATOM      4  C   UNL     1      -0.897   1.650  23.649  0.00  0.00    +0.038 A 
ATOM      5  C   UNL     1      -1.720   1.629  23.595  0.00  0.00    +0.037 A 
ATOM      6  C   UNL     1      -2.028   1.758  24.351  0.00  0.00    +0.139 A 
ATOM     30  O   UNL     1      -1.396   1.858  24.870  0.00  0.00    -0.458 OA
BRANCH   3   2
ATOM      1  O   UNL     1       0.714   1.875  24.224  0.00  0.00    -0.212 OA
ATOM      2  C   UNL     1       0.069   1.855  24.737  0.00  0.00    +0.246 C 
ENDBRANCH   3   2
ENDBRANCH   7   6
ENDBRANCH   8   7
TORSDOF 5
ENDMDL
MODEL 2
REMARK VINA RESULT:     -13.4      1.349      3.540
REMARK  Name = 
REMARK  5 active torsions:
REMARK  status: ('A' for Active; 'I' for Inactive)
REMARK    1  A    between atoms: C_2  and  C_3
REMARK    2  A    between atoms: C_6  and  C_7
REMARK    3  A    between atoms: C_7  and  N_8
REMARK    4  A    between atoms: C_17  and  C_22
REMARK    5  A    between atoms: C_24  and  C_28
REMARK                            x       y       z     vdW  Elec       q    Type
REMARK                         _______ _______ _______ _____ _____    ______ ____
ROOT
ATOM      8  N   UNL     1      -2.022  -0.820  24.805  0.00  0.00    -0.266 NA
ATOM      9  C   UNL     1      -1.687  -1.584  24.845  0.00  0.00    +0.074 C 
ATOM     10  C   UNL     1      -2.494  -2.127  24.667  0.00  0.00    +0.039 C 
ATOM     11  C   UNL     1      -3.052  -2.706  24.537  0.00  0.00    +0.011 C 
ATOM     12  C   UNL     1      -3.028  -2.005  24.566  0.00  0.00    +0.054 C 
ATOM     13  C   UNL     1      -2.240  -1.494  24.739  0.00  0.00    +0.078 C 
ATOM     14  C   UNL     1      -3.563  -1.262  24.485  0.00  0.00    +0.041 A 
ATOM     15  C   UNL     1      -4.346  -1.049  24.337  0.00  0.00    +0.013 A 
ATOM     16  C   UNL     1      -4.561  -0.253  24.322  0.00  0.00    +0.006 A 
ATOM     17  C   UNL     1      -3.993   0.331  24.454  0.00  0.00    +0.056 A 
ATOM     18  C   UNL     1      -3.210   0.118  24.602  0.00  0.00    +0.261 A 
ATOM     19  O   UNL     1      -2.642   0.702  24.734  0.00  0.00    -0.267 OA
ATOM     20  N   UNL     1      -2.995  -0.678  24.617  0.00  0.00    -0.299 N 
ATOM     21  C   UNL     1      -3.044  -1.345  24.585  0.00  0.00    +0.110 C 
ENDROOT
BRANCH  17  22
ATOM     22  C   UNL     1      -4.209   1.126  24.438  0.00  0.00    +0.005 A 
ATOM     23  C   UNL     1      -4.635   1.450  25.067  0.00  0.00    +0.010 A 
ATOM     24  C   UNL     1      -4.851   2.246  25.052  0.00  0.00    +0.068 A 
ATOM     25  C   UNL     1      -4.642   2.718  24.408  0.00  0.00    +0.010 A 
ATOM     26  C   UNL     1      -4.217   2.395  23.780  0.00  0.00    +0.001 A 
ATOM     27  C   UNL     1      -4.000   1.598  23.795  0.00  0.00    +0.000 A 
BRANCH  24  28
ATOM     28  C   UNL     1      -5.277   2.570  25.680  0.00  0.00    +0.100 C 
ATOM     29  N   UNL     1      -5.702   2.894  26.308  0.00  0.00    -0.191 NA
ENDBRANCH  24  28
ENDBRANCH  17  22
BRANCH   8   7
ATOM      7  C   UNL     1      -2.063   0.005  24.825  0.00  0.00    +0.138 C 
BRANCH   7   6
ATOM      3  C   UNL     1      -0.249   1.113  24.635  0.00  0.00    +0.156 A 
ATOM      4  C   UNL     1      -0.377   1.157  25.448  0.00  0.00    +0.038 A 
ATOM      5  C   UNL     1      -1.072   0.747  25.619  0.00  0.00    +0.037 A 
ATOM      6  C   UNL     1      -1.374   0.450  24.910  0.00  0.00    +0.139 A 
ATOM     30  O   UNL     1      -0.864   0.676  24.302  0.00  0.00    -0.458 OA
BRANCH   3   2
ATOM      1  O   UNL     1       0.729   2.146  24.498  0.00  0.00    -0.212 OA
ATOM      2  C   UNL     1       0.385   1.448  24.226  0.00  0.00    +0.246 C 
ENDBRANCH   3   2
ENDBRANCH   7   6
ENDBRANCH   8   7
TORSDOF 5
ENDMDL
MODEL 3
REMARK VINA RESULT:     -13.3      1.337      3.645
REMARK  Name = 
REMARK  5 active torsions:
REMARK  status: ('A' for Active; 'I' for Inactive)
REMARK    1  A    between atoms: C_2  and  C_3
REMARK    2  A    between atoms: C_6  and  C_7
REMARK    3  A    between atoms: C_7  and  N_8
REMARK    4  A    between atoms: C_17  and  C_22
REMARK    5  A    between atoms: C_24  and  C_28
REMARK                            x       y       z     vdW  Elec       q    Type
REMARK                         _______ _______ _______ _____ _____    ______ ____
ROOT
ATOM      8  N   UNL     1      -4.676   1.557  25.100  0.00  0.00    -0.266 NA
ATOM      9  C   UNL     1      -5.500   1.574  25.237  0.00  0.00    +0.074 C 
ATOM     10  C   UNL     1      -5.620   2.540  25.406  0.00  0.00    +0.039 C 
ATOM     11  C   UNL     1      -5.882   3.294  25.566  0.00  0.00    +0.011 C 
ATOM     12  C   UNL     1      -5.274   2.977  25.417  0.00  0.00    +0.054 C 
ATOM     13  C   UNL     1      -5.174   2.041  25.256  0.00  0.00    +0.078 C 
ATOM     14  C   UNL     1      -4.380   3.153  25.299  0.00  0.00    +0.041 A 
ATOM     15  C   UNL     1      -3.843   3.780  25.308  0.00  0.00    +0.013 A 
ATOM     16  C   UNL     1      -3.044   3.641  25.156  0.00  0.00    +0.006 A 
ATOM     17  C   UNL     1      -2.782   2.875  24.995  0.00  0.00    +0.056 A 
ATOM     18  C   UNL     1      -3.318   2.249  24.985  0.00  0.00    +0.261 A 
ATOM     19  O   UNL     1      -3.056   1.483  24.824  0.00  0.00    -0.267 OA
ATOM     20  N   UNL     1      -4.117   2.388  25.137  0.00  0.00    -0.299 N 
ATOM     21  C   UNL     1      -4.684   2.714  25.280  0.00  0.00    +0.110 C 
ENDROOT
BRANCH  17  22
ATOM     22  C   UNL     1      -1.983   2.737  24.843  0.00  0.00    +0.005 A 
ATOM     23  C   UNL     1      -1.449   2.681  25.469  0.00  0.00    +0.010 A 
ATOM     24  C   UNL     1      -0.650   2.543  25.318  0.00  0.00    +0.068 A 
ATOM     25  C   UNL     1      -0.385   2.461  24.541  0.00  0.00    +0.010 A 
ATOM     26  C   UNL     1      -0.919   2.517  23.915  0.00  0.00    +0.001 A 
ATOM     27  C   UNL     1      -1.719   2.655  24.066  0.00  0.00    +0.000 A 
BRANCH  24  28
ATOM     28  C   UNL     1      -0.115   2.487  25.944  0.00  0.00    +0.100 C 
ATOM     29  N   UNL     1       0.420   2.431  26.570  0.00  0.00    -0.191 NA
ENDBRANCH  24  28
ENDBRANCH  17  22
BRANCH   8   7
ATOM      7  C   UNL     1      -3.930   1.247  24.930  0.00  0.00    +0.138 C 
BRANCH   7   6
ATOM      3  C   UNL     1      -3.619  -0.859  25.081  0.00  0.00    +0.156 A 
ATOM      4  C   UNL     1      -3.754  -0.776  24.272  0.00  0.00    +0.038 A 
ATOM      5  C   UNL     1      -3.887   0.023  24.116  0.00  0.00    +0.037 A 
ATOM      6  C   UNL     1      -3.834   0.434  24.831  0.00  0.00    +0.139 A 
ATOM     30  O   UNL     1      -3.668  -0.111  25.427  0.00  0.00    -0.458 OA
BRANCH   3   2
ATOM      1  O   UNL     1      -3.574  -2.287  25.092  0.00  0.00    -0.212 OA
ATOM      2  C   UNL     1      -3.462  -1.567  25.476  0.00  0.00    +0.246 C 
ENDBRANCH   3   2
ENDBRANCH   7   6
ENDBRANCH   8   7
TORSDOF 5
ENDMDL
MODEL 4
REMARK VINA RESULT:     -12.7      1.517      4.237
REMARK  Name = 
REMARK  5 active torsions:
REMARK  status: ('A' for Active; 'I' for Inactive)
REMARK    1  A    between atoms: C_2  and  C_3
REMARK    2  A    between atoms: C_6  and  C_7
REMARK    3  A    between atoms: C_7  and  N_8
REMARK    4  A    between atoms: C_17  and  C_22
REMARK    5  A    between atoms: C_24  and  C_28
REMARK                            x       y       z     vdW  Elec       q    Type
REMARK                         _______ _______ _______ _____ _____    ______ ____
ROOT
ATOM      8  N   UNL     1      -3.745   0.096  24.714  0.00  0.00    -0.266 NA
ATOM      9  C   UNL     1      -4.372  -0.456  24.735  0.00  0.00    +0.074 C 
ATOM     10  C   UNL     1      -3.853  -1.293  24.820  0.00  0.00    +0.039 C 
ATOM     11  C   UNL     1      -3.579  -2.057  24.890  0.00  0.00    +0.011 C 
ATOM     12  C   UNL     1      -3.309  -1.410  24.848  0.00  0.00    +0.054 C 
ATOM     13  C   UNL     1      -3.824  -0.610  24.767  0.00  0.00    +0.078 C 
ATOM     14  C   UNL     1      -2.506  -0.964  24.842  0.00  0.00    +0.041 A 
ATOM     15  C   UNL     1      -1.694  -1.105  24.881  0.00  0.00    +0.013 A 
ATOM     16  C   UNL     1      -1.164  -0.474  24.850  0.00  0.00    +0.006 A 
ATOM     17  C   UNL     1      -1.445   0.299  24.779  0.00  0.00    +0.056 A 
ATOM     18  C   UNL     1      -2.257   0.440  24.739  0.00  0.00    +0.261 A 
ATOM     19  O   UNL     1      -2.538   1.212  24.668  0.00  0.00    -0.267 OA
ATOM     20  N   UNL     1      -2.787  -0.191  24.771  0.00  0.00    -0.299 N 
ATOM     21  C   UNL     1      -3.019  -0.818  24.812  0.00  0.00    +0.110 C 
ENDROOT
BRANCH  17  22
ATOM     22  C   UNL     1      -0.915   0.929  24.748  0.00  0.00    +0.005 A 
ATOM     23  C   UNL     1      -0.669   1.295  25.445  0.00  0.00    +0.010 A 
ATOM     24  C   UNL     1      -0.138   1.926  25.415  0.00  0.00    +0.068 A 
ATOM     25  C   UNL     1       0.147   2.191  24.688  0.00  0.00    +0.010 A 
ATOM     26  C   UNL     1      -0.098   1.825  23.990  0.00  0.00    +0.001 A 
ATOM     27  C   UNL     1      -0.630   1.194  24.021  0.00  0.00    +0.000 A 
BRANCH  24  28
ATOM     28  C   UNL     1       0.108   2.292  26.113  0.00  0.00    +0.100 C 
ATOM     29  N   UNL     1       0.354   2.658  26.810  0.00  0.00    -0.191 NA
ENDBRANCH  24  28
ENDBRANCH  17  22
BRANCH   8   7
ATOM      7  C   UNL     1      -3.364   0.826  24.670  0.00  0.00    +0.138 C 
BRANCH   7   6
ATOM      3  C   UNL     1      -4.519   2.586  25.022  0.00  0.00    +0.156 A 
ATOM      4  C   UNL     1      -4.459   2.598  24.200  0.00  0.00    +0.038 A 
ATOM      5  C   UNL     1      -4.019   1.940  23.967  0.00  0.00    +0.037 A 
ATOM      6  C   UNL     1      -3.807   1.522  24.647  0.00  0.00    +0.139 A 
ATOM     30  O   UNL     1      -4.116   1.921  25.299  0.00  0.00    -0.458 OA
BRANCH   3   2
ATOM      1  O   UNL     1      -5.574   2.921  25.926  0.00  0.00    -0.212 OA
ATOM      2  C   UNL     1      -4.913   3.143  25.487  0.00  0.00    +0.246 C 
ENDBRANCH   3   2
ENDBRANCH   7   6
ENDBRANCH   8   7
TORSDOF 5
ENDMDL
MODEL 5
REMARK VINA RESULT:     -12.6      1.745      2.314
REMARK  Name = 
REMARK  5 active torsions:
REMARK  status: ('A' for Active; 'I' for Inactive)
REMARK    1  A    between atoms: C_2  and  C_3
REMARK    2  A    between atoms: C_6  and  C_7
REMARK    3  A    between atoms: C_7  and  N_8
REMARK    4  A    between atoms: C_17  and  C_22
REMARK    5  A    between atoms: C_24  and  C_28
REMARK                            x       y       z     vdW  Elec       q    Type
REMARK                         _______ _______ _______ _____ _____    ______ ____
ROOT
ATOM      8  N   UNL     1      -3.753   2.573  25.032  0.00  0.00    -0.266 NA
ATOM      9  C   UNL     1      -4.451   3.026  24.966  0.00  0.00    +0.074 C 
ATOM     10  C   UNL     1      -5.101   2.303  24.789  0.00  0.00    +0.039 C 
ATOM     11  C   UNL     1      -5.750   1.835  24.638  0.00  0.00    +0.011 C 
ATOM     12  C   UNL     1      -5.061   1.749  24.739  0.00  0.00    +0.054 C 
ATOM     13  C   UNL     1      -4.445   2.459  24.910  0.00  0.00    +0.078 C 
ATOM     14  C   UNL     1      -4.413   1.099  24.778  0.00  0.00    +0.041 A 
ATOM     15  C   UNL     1      -4.321   0.282  24.711  0.00  0.00    +0.013 A 
ATOM     16  C   UNL     1      -3.574  -0.057  24.796  0.00  0.00    +0.006 A 
ATOM     17  C   UNL     1      -2.919   0.421  24.949  0.00  0.00    +0.056 A 
ATOM     18  C   UNL     1      -3.011   1.237  25.017  0.00  0.00    +0.261 A 
ATOM     19  O   UNL     1      -2.356   1.715  25.170  0.00  0.00    -0.267 OA
ATOM     20  N   UNL     1      -3.758   1.576  24.931  0.00  0.00    -0.299 N 
ATOM     21  C   UNL     1      -4.418   1.631  24.831  0.00  0.00    +0.110 C 
ENDROOT
BRANCH  17  22
ATOM     22  C   UNL     1      -2.173   0.081  25.035  0.00  0.00    +0.005 A 
ATOM     23  C   UNL     1      -1.631   0.115  24.414  0.00  0.00    +0.010 A 
ATOM     24  C   UNL     1      -0.884  -0.224  24.499  0.00  0.00    +0.068 A 
ATOM     25  C   UNL     1      -0.679  -0.598  25.204  0.00  0.00    +0.010 A 
ATOM     26  C   UNL     1      -1.220  -0.633  25.826  0.00  0.00    +0.001 A 
ATOM     27  C   UNL     1      -1.968  -0.293  25.741  0.00  0.00    +0.000 A 
BRANCH  24  28
ATOM     28  C   UNL     1      -0.342  -0.190  23.877  0.00  0.00    +0.100 C 
ATOM     29  N   UNL     1       0.200  -0.156  23.256  0.00  0.00    -0.191 NA
ENDBRANCH  24  28
ENDBRANCH  17  22
BRANCH   8   7
ATOM      7  C   UNL     1      -2.953   2.404  25.144  0.00  0.00    +0.138 C 
BRANCH   7   6
ATOM      3  C   UNL     1      -1.522   3.986  25.087  0.00  0.00    +0.156 A 
ATOM      4  C   UNL     1      -1.664   3.929  25.898  0.00  0.00    +0.038 A 
ATOM      5  C   UNL     1      -2.217   3.330  26.018  0.00  0.00    +0.037 A 
ATOM      6  C   UNL     1      -2.417   3.015  25.281  0.00  0.00    +0.139 A 
ATOM     30  O   UNL     1      -1.987   3.422  24.706  0.00  0.00    -0.458 OA
BRANCH   3   2
ATOM      1  O   UNL     1      -0.966   5.298  24.978  0.00  0.00    -0.212 OA
ATOM      2  C   UNL     1      -1.004   4.516  24.722  0.00  0.00    +0.246 C 
ENDBRANCH   3   2
ENDBRANCH   7   6
ENDBRANCH   8   7
TORSDOF 5
ENDMDL
MODEL 6
REMARK VINA RESULT:     -12.5      1.290      3.083
REMARK  Name = 
REMARK  5 active torsions:
REMARK  status: ('A' for Active; 'I' for Inactive)
REMARK    1  A    between atoms: C_2  and  C_3
REMARK    2  A    between atoms: C_6  and  C_7
REMARK    3  A    between atoms: C_7  and  N_8
REMARK    4  A    between atoms: C_17  and  C_22
REMARK    5  A    between atoms: C_24  and  C_28
REMARK                            x       y       z     vdW  Elec       q    Type
REMARK                         _______ _______ _______ _____ _____    ______ ____
ROOT
ATOM      8  N   UNL     1      -1.799   2.134  24.506  0.00  0.00    -0.266 NA
ATOM      9  C   UNL     1      -1.272   2.756  24.324  0.00  0.00    +0.074 C 
ATOM     10  C   UNL     1      -0.417   2.259  24.345  0.00  0.00    +0.039 C 
ATOM     11  C   UNL     1       0.355   2.001  24.324  0.00  0.00    +0.011 C 
ATOM     12  C   UNL     1      -0.280   1.728  24.443  0.00  0.00    +0.054 C 
ATOM     13  C   UNL     1      -1.098   2.221  24.419  0.00  0.00    +0.078 C 
ATOM     14  C   UNL     1      -0.697   0.935  24.649  0.00  0.00    +0.041 A 
ATOM     15  C   UNL     1      -0.526   0.142  24.798  0.00  0.00    +0.013 A 
ATOM     16  C   UNL     1      -1.137  -0.386  24.967  0.00  0.00    +0.006 A 
ATOM     17  C   UNL     1      -1.918  -0.121  24.988  0.00  0.00    +0.056 A 
ATOM     18  C   UNL     1      -2.089   0.672  24.839  0.00  0.00    +0.261 A 
ATOM     19  O   UNL     1      -2.870   0.937  24.860  0.00  0.00    -0.267 OA
ATOM     20  N   UNL     1      -1.478   1.200  24.669  0.00  0.00    -0.299 N 
ATOM     21  C   UNL     1      -0.861   1.436  24.560  0.00  0.00    +0.110 C 
ENDROOT
BRANCH  17  22
ATOM     22  C   UNL     1      -2.528  -0.650  25.158  0.00  0.00    +0.005 A 
ATOM     23  C   UNL     1      -2.904  -1.055  24.546  0.00  0.00    +0.010 A 
ATOM     24  C   UNL     1      -3.514  -1.584  24.715  0.00  0.00    +0.068 A 
ATOM     25  C   UNL     1      -3.748  -1.708  25.496  0.00  0.00    +0.010 A 
ATOM     26  C   UNL     1      -3.373  -1.303  26.109  0.00  0.00    +0.001 A 
ATOM     27  C   UNL     1      -2.762  -0.773  25.939  0.00  0.00    +0.000 A 
BRANCH  24  28
ATOM     28  C   UNL     1      -3.890  -1.990  24.102  0.00  0.00    +0.100 C 
ATOM     29  N   UNL     1      -4.266  -2.396  23.490  0.00  0.00    -0.191 NA
ENDBRANCH  24  28
ENDBRANCH  17  22
BRANCH   8   7
ATOM      7  C   UNL     1      -2.515   1.751  24.655  0.00  0.00    +0.138 C 
BRANCH   7   6
ATOM      3  C   UNL     1      -4.248   2.927  25.065  0.00  0.00    +0.156 A 
ATOM      4  C   UNL     1      -4.360   2.752  24.267  0.00  0.00    +0.038 A 
ATOM      5  C   UNL     1      -3.725   2.290  24.016  0.00  0.00    +0.037 A 
ATOM      6  C   UNL     1      -3.219   2.179  24.660  0.00  0.00    +0.139 A 
ATOM     30  O   UNL     1      -3.543   2.574  25.308  0.00  0.00    -0.458 OA
BRANCH   3   2
ATOM      1  O   UNL     1      -5.483   3.073  25.769  0.00  0.00    -0.212 OA
ATOM      2  C   UNL     1      -4.753   3.378  25.538  0.00  0.00    +0.246 C 
ENDBRANCH   3   2
ENDBRANCH   7   6
ENDBRANCH   8   7
TORSDOF 5
ENDMDL
MODEL 7
REMARK VINA RESULT:     -12.3      2.055      3.594
REMARK  Name = 
REMARK  5 active torsions:
REMARK  status: ('A' for Active; 'I' for Inactive)
REMARK    1  A    between atoms: C_2  and  C_3
REMARK    2  A    between atoms: C_6  and  C_7
REMARK    3  A    between atoms: C_7  and  N_8
REMARK    4  A    between atoms: C_17  and  C_22
REMARK    5  A    between atoms: C_24  and  C_28
REMARK                            x       y       z     vdW  Elec       q    Type
REMARK                         _______ _______ _______ _____ _____    ______ ____
ROOT
ATOM      8  N   UNL     1      -2.658   3.539  24.949  0.00  0.00    -0.266 NA
ATOM      9  C   UNL     1      -2.841   4.354  24.948  0.00  0.00    +0.074 C 
ATOM     10  C   UNL     1      -1.945   4.725  25.140  0.00  0.00    +0.039 C 
ATOM     11  C   UNL     1      -1.287   5.181  25.289  0.00  0.00    +0.011 C 
ATOM     12  C   UNL     1      -1.443   4.499  25.229  0.00  0.00    +0.054 C 
ATOM     13  C   UNL     1      -2.315   4.156  25.043  0.00  0.00    +0.078 C 
ATOM     14  C   UNL     1      -1.059   3.666  25.268  0.00  0.00    +0.041 A 
ATOM     15  C   UNL     1      -0.330   3.302  25.396  0.00  0.00    +0.013 A 
ATOM     16  C   UNL     1      -0.270   2.479  25.372  0.00  0.00    +0.006 A 
ATOM     17  C   UNL     1      -0.939   2.021  25.220  0.00  0.00    +0.056 A 
ATOM     18  C   UNL     1      -1.668   2.385  25.093  0.00  0.00    +0.261 A 
ATOM     19  O   UNL     1      -2.337   1.926  24.941  0.00  0.00    -0.267 OA
ATOM     20  N   UNL     1      -1.728   3.207  25.117  0.00  0.00    -0.299 N 
ATOM     21  C   UNL     1      -1.553   3.850  25.179  0.00  0.00    +0.110 C 
ENDROOT
BRANCH  17  22
ATOM     22  C   UNL     1      -0.878   1.199  25.196  0.00  0.00    +0.005 A 
ATOM     23  C   UNL     1      -0.530   0.830  24.545  0.00  0.00    +0.010 A 
ATOM     24  C   UNL     1      -0.469   0.008  24.520  0.00  0.00    +0.068 A 
ATOM     25  C   UNL     1      -0.756  -0.446  25.147  0.00  0.00    +0.010 A 
ATOM     26  C   UNL     1      -1.103  -0.078  25.798  0.00  0.00    +0.001 A 
ATOM     27  C   UNL     1      -1.165   0.745  25.823  0.00  0.00    +0.000 A 
BRANCH  24  28
ATOM     28  C   UNL     1      -0.121  -0.361  23.869  0.00  0.00    +0.100 C 
ATOM     29  N   UNL     1       0.227  -0.730  23.218  0.00  0.00    -0.191 NA
ENDBRANCH  24  28
ENDBRANCH  17  22
BRANCH   8   7
ATOM      7  C   UNL     1      -2.774   2.724  24.890  0.00  0.00    +0.138 C 
BRANCH   7   6
ATOM      3  C   UNL     1      -4.773   1.981  24.966  0.00  0.00    +0.156 A 
ATOM      4  C   UNL     1      -4.621   1.943  24.157  0.00  0.00    +0.038 A 
ATOM      5  C   UNL     1      -3.853   2.217  24.029  0.00  0.00    +0.037 A 
ATOM      6  C   UNL     1      -3.531   2.424  24.761  0.00  0.00    +0.139 A 
ATOM     30  O   UNL     1      -4.100   2.278  25.340  0.00  0.00    -0.458 OA
BRANCH   3   2
ATOM      1  O   UNL     1      -6.201   1.940  24.989  0.00  0.00    -0.212 OA
ATOM      2  C   UNL     1      -5.477   1.760  25.337  0.00  0.00    +0.246 C 
ENDBRANCH   3   2
ENDBRANCH   7   6
ENDBRANCH   8   7
TORSDOF 5
ENDMDL
