MODEL 1
REMARK VINA RESULT:     -10.4      0.000      0.000
REMARK  Name = 
REMARK  5 active torsions:
REMARK  status: ('A' for Active; 'I' for Inactive)
REMARK    1  A    between atoms: C_2  and  C_4
REMARK    2  A    between atoms: C_4  and  N_5
REMARK    3  A    between atoms: N_5  and  C_6
REMARK    4  A    between atoms: C_12  and  C_13
REMARK    5  A    between atoms: C_16  and  N_19
REMARK                            x       y       z     vdW  Elec       q    Type
REMARK                         _______ _______ _______ _____ _____    ______ ____
ROOT
ATOM      6  C   UNL     1      -3.122  -1.341  24.536  0.00  0.00    +0.110 C 
ATOM      7  C   UNL     1      -3.207  -2.126  24.296  0.00  0.00    +0.198 C 
ATOM      8  O   UNL     1      -2.633  -2.716  24.353  0.00  0.00    -0.219 OA
ATOM      9  C   UNL     1      -3.967  -2.217  23.987  0.00  0.00    +0.184 C 
ATOM     10  O   UNL     1      -4.287  -2.913  23.683  0.00  0.00    -0.220 OA
ATOM     11  C   UNL     1      -4.352  -1.488  24.038  0.00  0.00    +0.041 C 
ATOM     12  C   UNL     1      -3.829  -0.947  24.377  0.00  0.00    +0.045 C 
ENDROOT
BRANCH  12  13
ATOM     13  C   UNL     1      -3.986  -0.151  24.530  0.00  0.00    -0.002 A 
ATOM     14  C   UNL     1      -4.330   0.071  25.247  0.00  0.00    +0.000 A 
ATOM     15  C   UNL     1      -4.487   0.865  25.399  0.00  0.00    +0.034 A 
ATOM     16  C   UNL     1      -4.301   1.439  24.836  0.00  0.00    +0.132 A 
ATOM     17  N   UNL     1      -3.958   1.216  24.119  0.00  0.00    -0.229 NA
ATOM     18  C   UNL     1      -3.800   0.421  23.966  0.00  0.00    +0.096 A 
BRANCH  16  19
ATOM     19  N   UNL     1      -4.458   2.234  24.988  0.00  0.00    -0.288 N 
ATOM     20  C   UNL     1      -5.214   2.467  25.223  0.00  0.00    +0.124 C 
ATOM     21  C   UNL     1      -5.371   3.263  25.375  0.00  0.00    +0.164 C 
ATOM     22  O   UNL     1      -4.773   3.825  25.293  0.00  0.00    -0.350 OA
ATOM     23  C   UNL     1      -4.017   3.592  25.059  0.00  0.00    +0.164 C 
ATOM     24  C   UNL     1      -3.860   2.796  24.906  0.00  0.00    +0.124 C 
ENDBRANCH  16  19
ENDBRANCH  12  13
BRANCH   6   5
ATOM      5  N   UNL     1      -2.448  -1.009  24.876  0.00  0.00    -0.216 NA
BRANCH   5   4
ATOM      4  C   UNL     1      -1.711  -1.360  24.759  0.00  0.00    +0.089 C 
BRANCH   4   2
ATOM      1  C   UNL     1      -0.920  -0.884  25.849  0.00  0.00    +0.001 C 
ATOM      2  C   UNL     1      -1.029  -0.991  25.039  0.00  0.00    +0.017 C 
ATOM      3  C   UNL     1      -0.455  -0.728  24.508  0.00  0.00    +0.001 C 
ENDBRANCH   4   2
ENDBRANCH   5   4
ENDBRANCH   6   5
TORSDOF 5
ENDMDL
MODEL 2
REMARK VINA RESULT:     -10.1      1.390      4.334
REMARK  Name = 
REMARK  5 active torsions:
REMARK  status: ('A' for Active; 'I' for Inactive)
REMARK    1  A    between atoms: C_2  and  C_4
REMARK    2  A    between atoms: C_4  and  N_5
REMARK    3  A    between atoms: N_5  and  C_6
REMARK    4  A    between atoms: C_12  and  C_13
REMARK    5  A    between atoms: C_16  and  N_19
REMARK                            x       y       z     vdW  Elec       q    Type
REMARK                         _______ _______ _______ _____ _____    ______ ____
ROOT
ATOM      6  C   UNL     1      -3.295   2.542  24.908  0.00  0.00    +0.110 C 
ATOM      7  C   UNL     1      -3.602   3.303  24.994  0.00  0.00    +0.198 C 
ATOM      8  O   UNL     1      -3.164   3.993  25.108  0.00  0.00    -0.219 OA
ATOM      9  C   UNL     1      -4.424   3.253  24.945  0.00  0.00    +0.184 C 
ATOM     10  O   UNL     1      -4.952   3.884  25.003  0.00  0.00    -0.220 OA
ATOM     11  C   UNL     1      -4.625   2.461  24.830  0.00  0.00    +0.041 C 
ATOM     12  C   UNL     1      -3.927   2.021  24.807  0.00  0.00    +0.045 C 
ENDROOT
BRANCH  12  13
ATOM     13  C   UNL     1      -3.871   1.205  24.700  0.00  0.00    -0.002 A 
ATOM     14  C   UNL     1      -4.037   0.695  25.329  0.00  0.00    +0.000 A 
ATOM     15  C   UNL     1      -3.981  -0.120  25.222  0.00  0.00    +0.034 A 
ATOM     16  C   UNL     1      -3.760  -0.427  24.489  0.00  0.00    +0.132 A 
ATOM     17  N   UNL     1      -3.594   0.082  23.862  0.00  0.00    -0.229 NA
ATOM     18  C   UNL     1      -3.650   0.899  23.967  0.00  0.00    +0.096 A 
BRANCH  16  19
ATOM     19  N   UNL     1      -3.704  -1.243  24.383  0.00  0.00    -0.288 N 
ATOM     20  C   UNL     1      -3.078  -1.661  24.720  0.00  0.00    +0.124 C 
ATOM     21  C   UNL     1      -3.021  -2.477  24.614  0.00  0.00    +0.164 C 
ATOM     22  O   UNL     1      -3.592  -2.876  24.170  0.00  0.00    -0.350 OA
ATOM     23  C   UNL     1      -4.218  -2.459  23.834  0.00  0.00    +0.164 C 
ATOM     24  C   UNL     1      -4.275  -1.642  23.940  0.00  0.00    +0.124 C 
ENDBRANCH  16  19
ENDBRANCH  12  13
BRANCH   6   5
ATOM      5  N   UNL     1      -2.497   2.338  24.922  0.00  0.00    -0.216 NA
BRANCH   5   4
ATOM      4  C   UNL     1      -1.940   2.864  25.229  0.00  0.00    +0.089 C 
BRANCH   4   2
ATOM      1  C   UNL     1      -0.811   2.388  25.963  0.00  0.00    +0.001 C 
ATOM      2  C   UNL     1      -1.143   2.653  25.256  0.00  0.00    +0.017 C 
ATOM      3  C   UNL     1      -0.679   2.707  24.577  0.00  0.00    +0.001 C 
ENDBRANCH   4   2
ENDBRANCH   5   4
ENDBRANCH   6   5
TORSDOF 5
ENDMDL
MODEL 3
REMARK VINA RESULT:      -9.8      1.105      4.420
REMARK  Name = 
REMARK  5 active torsions:
REMARK  status: ('A' for Active; 'I' for Inactive)
REMARK    1  A    between atoms: C_2  and  C_4
REMARK    2  A    between atoms: C_4  and  N_5
REMARK    3  A    between atoms: N_5  and  C_6
REMARK    4  A    between atoms: C_12  and  C_13
REMARK    5  A    between atoms: C_16  and  N_19
REMARK                            x       y       z     vdW  Elec       q    Type
REMARK                         _______ _______ _______ _____ _____    ______ ____
ROOT
ATOM      6  C   UNL     1      -4.538   2.145  25.020  0.00  0.00    +0.110 C 
ATOM      7  C   UNL     1      -5.262   2.537  25.062  0.00  0.00    +0.198 C 
ATOM      8  O   UNL     1      -5.369   3.349  25.166  0.00  0.00    -0.219 OA
ATOM      9  C   UNL     1      -5.861   1.975  24.982  0.00  0.00    +0.184 C 
ATOM     10  O   UNL     1      -6.672   2.127  24.992  0.00  0.00    -0.220 OA
ATOM     11  C   UNL     1      -5.507   1.235  24.891  0.00  0.00    +0.041 C 
ATOM     12  C   UNL     1      -4.689   1.340  24.915  0.00  0.00    +0.045 C 
ENDROOT
BRANCH  12  13
ATOM     13  C   UNL     1      -4.122   0.745  24.844  0.00  0.00    -0.002 A 
ATOM     14  C   UNL     1      -3.957   0.254  25.488  0.00  0.00    +0.000 A 
ATOM     15  C   UNL     1      -3.390  -0.340  25.418  0.00  0.00    +0.034 A 
ATOM     16  C   UNL     1      -2.988  -0.446  24.705  0.00  0.00    +0.132 A 
ATOM     17  N   UNL     1      -3.153   0.045  24.062  0.00  0.00    -0.229 NA
ATOM     18  C   UNL     1      -3.720   0.640  24.131  0.00  0.00    +0.096 A 
BRANCH  16  19
ATOM     19  N   UNL     1      -2.421  -1.040  24.635  0.00  0.00    -0.288 N 
ATOM     20  C   UNL     1      -2.657  -1.823  24.520  0.00  0.00    +0.124 C 
ATOM     21  C   UNL     1      -2.090  -2.418  24.450  0.00  0.00    +0.164 C 
ATOM     22  O   UNL     1      -1.287  -2.231  24.494  0.00  0.00    -0.350 OA
ATOM     23  C   UNL     1      -1.052  -1.449  24.608  0.00  0.00    +0.164 C 
ATOM     24  C   UNL     1      -1.619  -0.854  24.679  0.00  0.00    +0.124 C 
ENDBRANCH  16  19
ENDBRANCH  12  13
BRANCH   6   5
ATOM      5  N   UNL     1      -3.793   2.494  25.074  0.00  0.00    -0.216 NA
BRANCH   5   4
ATOM      4  C   UNL     1      -3.720   3.268  25.350  0.00  0.00    +0.089 C 
BRANCH   4   2
ATOM      1  C   UNL     1      -2.662   3.732  26.189  0.00  0.00    +0.001 C 
ATOM      2  C   UNL     1      -2.972   3.607  25.436  0.00  0.00    +0.017 C 
ATOM      3  C   UNL     1      -2.537   3.819  24.770  0.00  0.00    +0.001 C 
ENDBRANCH   4   2
ENDBRANCH   5   4
ENDBRANCH   6   5
TORSDOF 5
ENDMDL
MODEL 4
REMARK VINA RESULT:      -9.5      1.304      2.296
REMARK  Name = 
REMARK  5 active torsions:
REMARK  status: ('A' for Active; 'I' for Inactive)
REMARK    1  A    between atoms: C_2  and  C_4
REMARK    2  A    between atoms: C_4  and  N_5
REMARK    3  A    between atoms: N_5  and  C_6
REMARK    4  A    between atoms: C_12  and  C_13
REMARK    5  A    between atoms: C_16  and  N_19
REMARK                            x       y       z     vdW  Elec       q    Type
REMARK                         _______ _______ _______ _____ _____    ______ ____
ROOT
ATOM      6  C   UNL     1      -1.811  -0.529  24.516  0.00  0.00    +0.110 C 
ATOM      7  C   UNL     1      -1.070  -0.823  24.302  0.00  0.00    +0.198 C 
ATOM      8  O   UNL     1      -0.843  -1.616  24.311  0.00  0.00    -0.219 OA
ATOM      9  C   UNL     1      -0.597  -0.185  24.079  0.00  0.00    +0.184 C 
ATOM     10  O   UNL     1       0.187  -0.228  23.825  0.00  0.00    -0.220 OA
ATOM     11  C   UNL     1      -1.045   0.504  24.154  0.00  0.00    +0.041 C 
ATOM     12  C   UNL     1      -1.796   0.291  24.424  0.00  0.00    +0.045 C 
ENDROOT
BRANCH  12  13
ATOM     13  C   UNL     1      -2.421   0.808  24.576  0.00  0.00    -0.002 A 
ATOM     14  C   UNL     1      -2.927   1.034  23.964  0.00  0.00    +0.000 A 
ATOM     15  C   UNL     1      -3.552   1.550  24.115  0.00  0.00    +0.034 A 
ATOM     16  C   UNL     1      -3.671   1.842  24.878  0.00  0.00    +0.132 A 
ATOM     17  N   UNL     1      -3.164   1.616  25.489  0.00  0.00    -0.229 NA
ATOM     18  C   UNL     1      -2.539   1.099  25.338  0.00  0.00    +0.096 A 
BRANCH  16  19
ATOM     19  N   UNL     1      -4.295   2.358  25.030  0.00  0.00    -0.288 N 
ATOM     20  C   UNL     1      -5.059   2.063  25.127  0.00  0.00    +0.124 C 
ATOM     21  C   UNL     1      -5.685   2.580  25.279  0.00  0.00    +0.164 C 
ATOM     22  O   UNL     1      -5.546   3.392  25.334  0.00  0.00    -0.350 OA
ATOM     23  C   UNL     1      -4.782   3.686  25.236  0.00  0.00    +0.164 C 
ATOM     24  C   UNL     1      -4.156   3.170  25.084  0.00  0.00    +0.124 C 
ENDBRANCH  16  19
ENDBRANCH  12  13
BRANCH   6   5
ATOM      5  N   UNL     1      -2.453  -0.975  24.775  0.00  0.00    -0.216 NA
BRANCH   5   4
ATOM      4  C   UNL     1      -2.553  -1.749  24.507  0.00  0.00    +0.089 C 
BRANCH   4   2
ATOM      1  C   UNL     1      -3.360  -2.386  25.498  0.00  0.00    +0.001 C 
ATOM      2  C   UNL     1      -3.230  -2.173  24.713  0.00  0.00    +0.017 C 
ATOM      3  C   UNL     1      -3.777  -2.383  24.133  0.00  0.00    +0.001 C 
ENDBRANCH   4   2
ENDBRANCH   5   4
ENDBRANCH   6   5
TORSDOF 5
ENDMDL
