REMARK  Name = 
REMARK  7 active torsions:
REMARK  status: ('A' for Active; 'I' for Inactive)
REMARK    1  A    between atoms: C_2  and  N_3
REMARK    2  A    between atoms: N_3  and  C_4
REMARK    3  A    between atoms: C_6  and  C_8
REMARK    4  A    between atoms: C_8  and  C_10
REMARK    5  A    between atoms: C_17  and  N_18
REMARK    6  A    between atoms: C_19  and  C_21
REMARK    7  A    between atoms: C_24  and  C_27
REMARK                            x       y       z     vdW  Elec       q    Type
REMARK                         _______ _______ _______ _____ _____    ______ ____
ROOT
ATOM     10  C   UNL     1       5.716  -2.475   0.000  0.00  0.00    +0.039 C 
ATOM     11  C   UNL     1       5.716  -1.650   0.000  0.00  0.00    +0.003 C 
ATOM     12  C   UNL     1       6.430  -1.238   0.000  0.00  0.00    +0.000 C 
ATOM     13  C   UNL     1       7.145  -1.650   0.000  0.00  0.00    +0.002 C 
ATOM     14  C   UNL     1       7.145  -0.825   0.000  0.00  0.00    +0.000 C 
ATOM     15  C   UNL     1       7.859  -1.238   0.000  0.00  0.00    +0.002 C 
ATOM     16  C   UNL     1       8.574  -1.650   0.000  0.00  0.00    +0.022 C 
ATOM     17  C   UNL     1       8.574  -2.475   0.000  0.00  0.00    +0.096 C 
ATOM     29  C   UNL     1       7.859  -2.888   0.000  0.00  0.00    +0.022 C 
ATOM     30  C   UNL     1       7.859  -3.712   0.000  0.00  0.00    +0.002 C 
ATOM     31  C   UNL     1       7.145  -2.475   0.000  0.00  0.00    +0.032 C 
ATOM     32  C   UNL     1       6.430  -2.888   0.000  0.00  0.00    +0.152 C 
ATOM     33  O   UNL     1       6.430  -3.712   0.000  0.00  0.00    -0.223 OA
ENDROOT
BRANCH  17  18
ATOM     18  N   UNL     1       9.288  -2.888   0.000  0.00  0.00    -0.203 NA
ATOM     19  C   UNL     1      10.003  -2.475   0.000  0.00  0.00    +0.265 C 
ATOM     20  O   UNL     1      10.003  -1.650   0.000  0.00  0.00    -0.268 OA
BRANCH  19  21
ATOM     21  C   UNL     1      10.717  -2.888   0.000  0.00  0.00    +0.055 A 
ATOM     22  C   UNL     1      11.431  -2.475   0.000  0.00  0.00    +0.005 A 
ATOM     23  C   UNL     1      12.146  -2.888   0.000  0.00  0.00    +0.010 A 
ATOM     24  C   UNL     1      12.146  -3.712   0.000  0.00  0.00    +0.068 A 
ATOM     25  C   UNL     1      11.431  -4.125   0.000  0.00  0.00    +0.010 A 
ATOM     26  C   UNL     1      10.717  -3.712   0.000  0.00  0.00    +0.005 A 
BRANCH  24  27
ATOM     27  C   UNL     1      12.861  -4.125   0.000  0.00  0.00    +0.100 C 
ATOM     28  N   UNL     1      13.575  -4.537   0.000  0.00  0.00    -0.191 NA
ENDBRANCH  24  27
ENDBRANCH  19  21
ENDBRANCH  17  18
BRANCH  10   8
ATOM      8  C   UNL     1       5.001  -2.888   0.000  0.00  0.00    +0.079 C 
ATOM      9  C   UNL     1       5.001  -3.712   0.000  0.00  0.00    +0.010 C 
BRANCH   8   6
ATOM      3  N   UNL     1       3.572  -2.888   0.000  0.00  0.00    -0.280 N 
ATOM      6  C   UNL     1       4.287  -2.475   0.000  0.00  0.00    +0.225 C 
ATOM      7  O   UNL     1       4.287  -1.650   0.000  0.00  0.00    -0.275 OA
BRANCH   3   2
ATOM      1  C   UNL     1       2.143  -2.888   0.000  0.00  0.00    +0.023 C 
ATOM      2  C   UNL     1       2.858  -2.475   0.000  0.00  0.00    +0.093 C 
ENDBRANCH   3   2
BRANCH   3   4
ATOM      4  C   UNL     1       3.572  -3.712   0.000  0.00  0.00    +0.093 C 
ATOM      5  C   UNL     1       2.858  -4.125   0.000  0.00  0.00    +0.023 C 
ENDBRANCH   3   4
ENDBRANCH   8   6
ENDBRANCH  10   8
TORSDOF 7
