REMARK  Name = 
REMARK  6 active torsions:
REMARK  status: ('A' for Active; 'I' for Inactive)
REMARK    1  A    between atoms: C_3  and  C_4
REMARK    2  A    between atoms: C_4  and  O_5
REMARK    3  A    between atoms: O_5  and  C_6
REMARK    4  A    between atoms: C_9  and  C_12
REMARK    5  A    between atoms: N_14  and  C_15
REMARK    6  A    between atoms: N_25  and  C_26
REMARK                            x       y       z     vdW  Elec       q    Type
REMARK                         _______ _______ _______ _____ _____    ______ ____
ROOT
ATOM     12  C   UNL     1       5.359  -4.848   0.000  0.00  0.00    +0.265 C 
ATOM     13  O   UNL     1       5.972  -5.400   0.000  0.00  0.00    -0.268 OA
ATOM     14  N   UNL     1       5.530  -4.041   0.000  0.00  0.00    -0.199 NA
ENDROOT
BRANCH  14  15
ATOM     15  C   UNL     1       6.315  -3.786   0.000  0.00  0.00    +0.146 C 
ATOM     16  C   UNL     1       6.426  -2.969   0.000  0.00  0.00    +0.119 C 
ATOM     17  N   UNL     1       7.134  -2.546   0.000  0.00  0.00    -0.261 N 
ATOM     18  C   UNL     1       7.907  -2.836   0.000  0.00  0.00    +0.095 C 
ATOM     19  C   UNL     1       8.161  -3.620   0.000  0.00  0.00    +0.024 C 
ATOM     20  C   UNL     1       7.707  -4.309   0.000  0.00  0.00    +0.037 C 
ATOM     21  C   UNL     1       6.885  -4.383   0.000  0.00  0.00    +0.174 C 
ATOM     22  O   UNL     1       6.595  -5.155   0.000  0.00  0.00    -0.221 OA
ATOM     23  C   UNL     1       7.060  -1.724   0.000  0.00  0.00    +0.328 C 
ATOM     24  O   UNL     1       6.312  -1.377   0.000  0.00  0.00    -0.250 OA
ATOM     25  N   UNL     1       7.735  -1.249   0.000  0.00  0.00    -0.162 NA
BRANCH  25  26
ATOM     26  C   UNL     1       8.483  -1.596   0.000  0.00  0.00    +0.075 A 
ATOM     27  C   UNL     1       9.158  -1.121   0.000  0.00  0.00    +0.019 A 
ATOM     28  C   UNL     1       9.906  -1.468   0.000  0.00  0.00    +0.031 A 
ATOM     29  C   UNL     1       9.980  -2.289   0.000  0.00  0.00    +0.140 A 
ATOM     30  F   UNL     1      10.729  -2.636   0.000  0.00  0.00    -0.204 F 
ATOM     31  C   UNL     1       9.306  -2.764   0.000  0.00  0.00    +0.031 A 
ATOM     32  C   UNL     1       8.557  -2.417   0.000  0.00  0.00    +0.019 A 
ENDBRANCH  25  26
ENDBRANCH  14  15
BRANCH  12   9
ATOM      6  C   UNL     1       3.005  -5.613   0.000  0.00  0.00    +0.139 A 
ATOM      7  C   UNL     1       3.177  -4.806   0.000  0.00  0.00    +0.037 A 
ATOM      8  C   UNL     1       3.961  -4.551   0.000  0.00  0.00    +0.008 A 
ATOM      9  C   UNL     1       4.574  -5.103   0.000  0.00  0.00    +0.055 A 
ATOM     10  C   UNL     1       4.403  -5.910   0.000  0.00  0.00    +0.008 A 
ATOM     11  C   UNL     1       3.618  -6.165   0.000  0.00  0.00    +0.037 A 
BRANCH   6   5
ATOM      5  O   UNL     1       2.220  -5.868   0.000  0.00  0.00    -0.470 OA
BRANCH   5   4
ATOM      4  C   UNL     1       2.049  -6.675   0.000  0.00  0.00    +0.236 C 
BRANCH   4   3
ATOM      1  C   UNL     1       0.597  -5.620   0.000  0.00  0.00    +0.075 C 
ATOM      2  C   UNL     1       0.597  -6.445   0.000  0.00  0.00    +0.154 A 
ATOM      3  C   UNL     1       1.264  -6.930   0.000  0.00  0.00    +0.071 A 
ATOM     33  C   UNL     1       1.009  -7.715   0.000  0.00  0.00    +0.100 A 
ATOM     34  C   UNL     1       1.494  -8.382   0.000  0.00  0.00    +0.055 C 
ATOM     35  N   UNL     1       0.184  -7.715   0.000  0.00  0.00    -0.082 NA
ATOM     36  O   UNL     1      -0.070  -6.930   0.000  0.00  0.00    -0.358 OA
ENDBRANCH   4   3
ENDBRANCH   5   4
ENDBRANCH   6   5
ENDBRANCH  12   9
TORSDOF 6
