MODEL 1
REMARK VINA RESULT:      -9.0      0.000      0.000
REMARK  Name = 
REMARK  7 active torsions:
REMARK  status: ('A' for Active; 'I' for Inactive)
REMARK    1  A    between atoms: O_2  and  C_3
REMARK    2  A    between atoms: C_6  and  C_9
REMARK    3  A    between atoms: N_14  and  C_15
REMARK    4  A    between atoms: C_19  and  O_23
REMARK    5  A    between atoms: O_23  and  C_24
REMARK    6  A    between atoms: N_26  and  C_27
REMARK    7  A    between atoms: C_31  and  O_32
REMARK                            x       y       z     vdW  Elec       q    Type
REMARK                         _______ _______ _______ _____ _____    ______ ____
ROOT
ATOM     15  C   UNL     1      -1.094   0.684  24.468  0.00  0.00    +0.155 C 
ATOM     16  C   UNL     1      -1.106  -0.139  24.413  0.00  0.00    +0.166 C 
ATOM     17  O   UNL     1      -0.428  -0.377  24.008  0.00  0.00    -0.348 OA
ATOM     18  C   UNL     1       0.004   0.298  23.814  0.00  0.00    +0.186 C 
ATOM     19  C   UNL     1       0.689   0.570  23.444  0.00  0.00    +0.229 C 
ATOM     20  C   UNL     1       0.702   1.392  23.499  0.00  0.00    +0.188 C 
ATOM     21  O   UNL     1       0.023   1.630  23.903  0.00  0.00    -0.348 OA
ATOM     22  C   UNL     1      -0.408   0.954  24.098  0.00  0.00    +0.168 C 
ENDROOT
BRANCH  15  14
ATOM      9  C   UNL     1      -3.766   1.694  24.567  0.00  0.00    +0.086 A 
ATOM     10  C   UNL     1      -3.956   1.259  23.892  0.00  0.00    +0.040 A 
ATOM     11  C   UNL     1      -3.382   0.788  23.530  0.00  0.00    +0.103 A 
ATOM     12  N   UNL     1      -2.619   0.753  23.842  0.00  0.00    -0.211 NA
ATOM     13  C   UNL     1      -2.430   1.189  24.518  0.00  0.00    +0.237 A 
ATOM     14  N   UNL     1      -1.667   1.154  24.830  0.00  0.00    -0.200 NA
ATOM     35  N   UNL     1      -3.003   1.659  24.879  0.00  0.00    -0.212 NA
BRANCH   9   6
ATOM      3  C   UNL     1      -5.487   3.104  25.652  0.00  0.00    +0.139 A 
ATOM      4  C   UNL     1      -4.812   3.452  25.329  0.00  0.00    +0.037 A 
ATOM      5  C   UNL     1      -4.238   2.982  24.967  0.00  0.00    +0.005 A 
ATOM      6  C   UNL     1      -4.339   2.164  24.928  0.00  0.00    +0.018 A 
ATOM      7  C   UNL     1      -5.014   1.816  25.251  0.00  0.00    +0.005 A 
ATOM      8  C   UNL     1      -5.588   2.286  25.613  0.00  0.00    +0.037 A 
BRANCH   3   2
ATOM      1  C   UNL     1      -6.191   4.343  25.747  0.00  0.00    +0.252 C 
ATOM      2  O   UNL     1      -6.060   3.574  26.014  0.00  0.00    -0.471 OA
ENDBRANCH   3   2
ENDBRANCH   9   6
ENDBRANCH  15  14
BRANCH  19  23
ATOM     23  O   UNL     1       1.263   0.099  23.082  0.00  0.00    -0.432 OA
BRANCH  23  24
ATOM     24  C   UNL     1       2.062   0.287  23.164  0.00  0.00    +0.425 C 
ATOM     25  O   UNL     1       2.288   0.954  23.592  0.00  0.00    -0.224 OA
ATOM     26  N   UNL     1       2.636  -0.194  22.816  0.00  0.00    -0.142 NA
BRANCH  26  27
ATOM     27  C   UNL     1       3.435  -0.006  22.898  0.00  0.00    +0.080 A 
ATOM     28  C   UNL     1       3.744   0.658  22.518  0.00  0.00    +0.017 A 
ATOM     29  C   UNL     1       4.544   0.846  22.601  0.00  0.00    +0.004 A 
ATOM     30  C   UNL     1       5.034   0.369  23.062  0.00  0.00    +0.037 A 
ATOM     31  C   UNL     1       4.725  -0.295  23.441  0.00  0.00    +0.140 A 
ATOM     34  C   UNL     1       3.927  -0.482  23.359  0.00  0.00    +0.054 A 
BRANCH  31  32
ATOM     32  O   UNL     1       5.216  -0.771  23.902  0.00  0.00    -0.471 OA
ATOM     33  C   UNL     1       5.736  -0.427  24.442  0.00  0.00    +0.252 C 
ENDBRANCH  31  32
ENDBRANCH  26  27
ENDBRANCH  23  24
ENDBRANCH  19  23
TORSDOF 7
ENDMDL
MODEL 2
REMARK VINA RESULT:      -8.8      1.229      7.792
REMARK  Name = 
REMARK  7 active torsions:
REMARK  status: ('A' for Active; 'I' for Inactive)
REMARK    1  A    between atoms: O_2  and  C_3
REMARK    2  A    between atoms: C_6  and  C_9
REMARK    3  A    between atoms: N_14  and  C_15
REMARK    4  A    between atoms: C_19  and  O_23
REMARK    5  A    between atoms: O_23  and  C_24
REMARK    6  A    between atoms: N_26  and  C_27
REMARK    7  A    between atoms: C_31  and  O_32
REMARK                            x       y       z     vdW  Elec       q    Type
REMARK                         _______ _______ _______ _____ _____    ______ ____
ROOT
ATOM     15  C   UNL     1      -0.205   0.707  23.810  0.00  0.00    +0.155 C 
ATOM     16  C   UNL     1      -0.637   0.015  23.682  0.00  0.00    +0.166 C 
ATOM     17  O   UNL     1      -1.433   0.220  23.623  0.00  0.00    -0.348 OA
ATOM     18  C   UNL     1      -1.495   1.037  23.714  0.00  0.00    +0.186 C 
ATOM     19  C   UNL     1      -2.024   1.669  23.733  0.00  0.00    +0.229 C 
ATOM     20  C   UNL     1      -1.593   2.361  23.861  0.00  0.00    +0.188 C 
ATOM     21  O   UNL     1      -0.796   2.156  23.920  0.00  0.00    -0.348 OA
ATOM     22  C   UNL     1      -0.735   1.338  23.829  0.00  0.00    +0.168 C 
ENDROOT
BRANCH  15  14
ATOM      9  C   UNL     1       2.432   0.151  22.858  0.00  0.00    +0.086 A 
ATOM     10  C   UNL     1       2.114  -0.229  22.198  0.00  0.00    +0.040 A 
ATOM     11  C   UNL     1       1.295  -0.279  22.106  0.00  0.00    +0.103 A 
ATOM     12  N   UNL     1       0.795   0.049  22.674  0.00  0.00    -0.211 NA
ATOM     13  C   UNL     1       1.114   0.429  23.334  0.00  0.00    +0.237 A 
ATOM     14  N   UNL     1       0.613   0.757  23.902  0.00  0.00    -0.200 NA
ATOM     35  N   UNL     1       1.932   0.479  23.426  0.00  0.00    -0.212 NA
BRANCH   9   6
ATOM      3  C   UNL     1       4.887   0.303  23.133  0.00  0.00    +0.139 A 
ATOM      4  C   UNL     1       4.486  -0.379  23.370  0.00  0.00    +0.037 A 
ATOM      5  C   UNL     1       3.668  -0.429  23.278  0.00  0.00    +0.005 A 
ATOM      6  C   UNL     1       3.250   0.201  22.950  0.00  0.00    +0.018 A 
ATOM      7  C   UNL     1       3.650   0.883  22.713  0.00  0.00    +0.005 A 
ATOM      8  C   UNL     1       4.469   0.934  22.805  0.00  0.00    +0.037 A 
BRANCH   3   2
ATOM      1  C   UNL     1       6.094  -0.156  23.744  0.00  0.00    +0.252 C 
ATOM      2  O   UNL     1       5.705   0.353  23.225  0.00  0.00    -0.471 OA
ENDBRANCH   3   2
ENDBRANCH   9   6
ENDBRANCH  15  14
BRANCH  19  23
ATOM     23  O   UNL     1      -2.843   1.619  23.641  0.00  0.00    -0.432 OA
BRANCH  23  24
ATOM     24  C   UNL     1      -3.343   1.952  24.206  0.00  0.00    +0.425 C 
ATOM     25  O   UNL     1      -3.117   1.968  24.999  0.00  0.00    -0.224 OA
ATOM     26  N   UNL     1      -4.070   2.269  23.978  0.00  0.00    -0.142 NA
BRANCH  26  27
ATOM     27  C   UNL     1      -4.570   2.603  24.543  0.00  0.00    +0.080 A 
ATOM     28  C   UNL     1      -4.450   3.380  24.793  0.00  0.00    +0.017 A 
ATOM     29  C   UNL     1      -4.951   3.713  25.359  0.00  0.00    +0.004 A 
ATOM     30  C   UNL     1      -5.570   3.269  25.673  0.00  0.00    +0.037 A 
ATOM     31  C   UNL     1      -5.690   2.492  25.424  0.00  0.00    +0.140 A 
ATOM     34  C   UNL     1      -5.190   2.159  24.859  0.00  0.00    +0.054 A 
BRANCH  31  32
ATOM     32  O   UNL     1      -6.310   2.049  25.739  0.00  0.00    -0.471 OA
ATOM     33  C   UNL     1      -6.313   1.856  26.541  0.00  0.00    +0.252 C 
ENDBRANCH  31  32
ENDBRANCH  26  27
ENDBRANCH  23  24
ENDBRANCH  19  23
TORSDOF 7
ENDMDL
MODEL 3
REMARK VINA RESULT:      -7.2      1.821      7.442
REMARK  Name = 
REMARK  7 active torsions:
REMARK  status: ('A' for Active; 'I' for Inactive)
REMARK    1  A    between atoms: O_2  and  C_3
REMARK    2  A    between atoms: C_6  and  C_9
REMARK    3  A    between atoms: N_14  and  C_15
REMARK    4  A    between atoms: C_19  and  O_23
REMARK    5  A    between atoms: O_23  and  C_24
REMARK    6  A    between atoms: N_26  and  C_27
REMARK    7  A    between atoms: C_31  and  O_32
REMARK                            x       y       z     vdW  Elec       q    Type
REMARK                         _______ _______ _______ _____ _____    ______ ____
ROOT
ATOM     15  C   UNL     1      -0.277   2.652  25.318  0.00  0.00    +0.155 C 
ATOM     16  C   UNL     1      -0.616   2.212  25.927  0.00  0.00    +0.166 C 
ATOM     17  O   UNL     1      -1.325   2.576  26.139  0.00  0.00    -0.348 OA
ATOM     18  C   UNL     1      -1.424   3.241  25.662  0.00  0.00    +0.186 C 
ATOM     19  C   UNL     1      -1.922   3.878  25.498  0.00  0.00    +0.229 C 
ATOM     20  C   UNL     1      -1.582   4.318  24.889  0.00  0.00    +0.188 C 
ATOM     21  O   UNL     1      -0.874   3.954  24.676  0.00  0.00    -0.348 OA
ATOM     22  C   UNL     1      -0.775   3.288  25.154  0.00  0.00    +0.168 C 
ENDROOT
BRANCH  15  14
ATOM      9  C   UNL     1       1.289   0.971  23.617  0.00  0.00    +0.086 A 
ATOM     10  C   UNL     1       0.645   0.464  23.525  0.00  0.00    +0.040 A 
ATOM     11  C   UNL     1      -0.069   0.631  23.904  0.00  0.00    +0.103 A 
ATOM     12  N   UNL     1      -0.139   1.305  24.375  0.00  0.00    -0.211 NA
ATOM     13  C   UNL     1       0.507   1.812  24.467  0.00  0.00    +0.237 A 
ATOM     14  N   UNL     1       0.437   2.485  24.938  0.00  0.00    -0.200 NA
ATOM     35  N   UNL     1       1.220   1.645  24.088  0.00  0.00    -0.212 NA
BRANCH   9   6
ATOM      3  C   UNL     1       3.429   0.469  22.479  0.00  0.00    +0.139 A 
ATOM      4  C   UNL     1       3.325   1.193  22.862  0.00  0.00    +0.037 A 
ATOM      5  C   UNL     1       2.612   1.360  23.241  0.00  0.00    +0.005 A 
ATOM      6  C   UNL     1       2.002   0.804  23.238  0.00  0.00    +0.018 A 
ATOM      7  C   UNL     1       2.106   0.081  22.855  0.00  0.00    +0.005 A 
ATOM      8  C   UNL     1       2.819  -0.086  22.475  0.00  0.00    +0.037 A 
BRANCH   3   2
ATOM      1  C   UNL     1       4.829   0.195  22.543  0.00  0.00    +0.252 C 
ATOM      2  O   UNL     1       4.142   0.303  22.100  0.00  0.00    -0.471 OA
ENDBRANCH   3   2
ENDBRANCH   9   6
ENDBRANCH  15  14
BRANCH  19  23
ATOM     23  O   UNL     1      -2.636   4.045  25.877  0.00  0.00    -0.432 OA
BRANCH  23  24
ATOM     24  C   UNL     1      -3.345   3.766  25.562  0.00  0.00    +0.425 C 
ATOM     25  O   UNL     1      -3.559   3.960  24.789  0.00  0.00    -0.224 OA
ATOM     26  N   UNL     1      -3.842   3.292  26.020  0.00  0.00    -0.142 NA
BRANCH  26  27
ATOM     27  C   UNL     1      -4.552   3.013  25.705  0.00  0.00    +0.080 A 
ATOM     28  C   UNL     1      -5.234   3.475  25.753  0.00  0.00    +0.017 A 
ATOM     29  C   UNL     1      -5.943   3.195  25.437  0.00  0.00    +0.004 A 
ATOM     30  C   UNL     1      -5.971   2.455  25.075  0.00  0.00    +0.037 A 
ATOM     31  C   UNL     1      -5.289   1.993  25.027  0.00  0.00    +0.140 A 
ATOM     34  C   UNL     1      -4.580   2.272  25.342  0.00  0.00    +0.054 A 
BRANCH  31  32
ATOM     32  O   UNL     1      -5.317   1.253  24.665  0.00  0.00    -0.471 OA
ATOM     33  C   UNL     1      -4.887   0.623  24.979  0.00  0.00    +0.252 C 
ENDBRANCH  31  32
ENDBRANCH  26  27
ENDBRANCH  23  24
ENDBRANCH  19  23
TORSDOF 7
ENDMDL
MODEL 4
REMARK VINA RESULT:      -7.0      2.062      7.296
REMARK  Name = 
REMARK  7 active torsions:
REMARK  status: ('A' for Active; 'I' for Inactive)
REMARK    1  A    between atoms: O_2  and  C_3
REMARK    2  A    between atoms: C_6  and  C_9
REMARK    3  A    between atoms: N_14  and  C_15
REMARK    4  A    between atoms: C_19  and  O_23
REMARK    5  A    between atoms: O_23  and  C_24
REMARK    6  A    between atoms: N_26  and  C_27
REMARK    7  A    between atoms: C_31  and  O_32
REMARK                            x       y       z     vdW  Elec       q    Type
REMARK                         _______ _______ _______ _____ _____    ______ ____
ROOT
ATOM     15  C   UNL     1       0.203   1.522  24.038  0.00  0.00    +0.155 C 
ATOM     16  C   UNL     1      -0.235   1.854  23.423  0.00  0.00    +0.166 C 
ATOM     17  O   UNL     1      -1.034   1.802  23.623  0.00  0.00    -0.348 OA
ATOM     18  C   UNL     1      -1.089   1.439  24.361  0.00  0.00    +0.186 C 
ATOM     19  C   UNL     1      -1.616   1.182  24.941  0.00  0.00    +0.229 C 
ATOM     20  C   UNL     1      -1.178   0.850  25.556  0.00  0.00    +0.188 C 
ATOM     21  O   UNL     1      -0.380   0.901  25.356  0.00  0.00    -0.348 OA
ATOM     22  C   UNL     1      -0.325   1.265  24.617  0.00  0.00    +0.168 C 
ENDROOT
BRANCH  15  14
ATOM      9  C   UNL     1       2.636   0.393  23.048  0.00  0.00    +0.086 A 
ATOM     10  C   UNL     1       2.208  -0.043  22.494  0.00  0.00    +0.040 A 
ATOM     11  C   UNL     1       1.385   0.021  22.464  0.00  0.00    +0.103 A 
ATOM     12  N   UNL     1       0.991   0.521  22.988  0.00  0.00    -0.211 NA
ATOM     13  C   UNL     1       1.420   0.958  23.543  0.00  0.00    +0.237 A 
ATOM     14  N   UNL     1       1.025   1.458  24.067  0.00  0.00    -0.200 NA
ATOM     35  N   UNL     1       2.241   0.893  23.572  0.00  0.00    -0.212 NA
BRANCH   9   6
ATOM      3  C   UNL     1       5.102   0.200  23.137  0.00  0.00    +0.139 A 
ATOM      4  C   UNL     1       4.751   0.874  22.813  0.00  0.00    +0.037 A 
ATOM      5  C   UNL     1       3.930   0.938  22.784  0.00  0.00    +0.005 A 
ATOM      6  C   UNL     1       3.457   0.329  23.077  0.00  0.00    +0.018 A 
ATOM      7  C   UNL     1       3.806  -0.345  23.401  0.00  0.00    +0.005 A 
ATOM      8  C   UNL     1       4.629  -0.409  23.430  0.00  0.00    +0.037 A 
BRANCH   3   2
ATOM      1  C   UNL     1       6.278  -0.353  23.728  0.00  0.00    +0.252 C 
ATOM      2  O   UNL     1       5.923   0.136  23.166  0.00  0.00    -0.471 OA
ENDBRANCH   3   2
ENDBRANCH   9   6
ENDBRANCH  15  14
BRANCH  19  23
ATOM     23  O   UNL     1      -2.439   1.246  24.911  0.00  0.00    -0.432 OA
BRANCH  23  24
ATOM     24  C   UNL     1      -2.905   0.566  24.902  0.00  0.00    +0.425 C 
ATOM     25  O   UNL     1      -3.116   0.199  25.610  0.00  0.00    -0.224 OA
ATOM     26  N   UNL     1      -3.161   0.251  24.183  0.00  0.00    -0.142 NA
BRANCH  26  27
ATOM     27  C   UNL     1      -3.628  -0.429  24.173  0.00  0.00    +0.080 A 
ATOM     28  C   UNL     1      -4.448  -0.367  24.236  0.00  0.00    +0.017 A 
ATOM     29  C   UNL     1      -4.915  -1.048  24.227  0.00  0.00    +0.004 A 
ATOM     30  C   UNL     1      -4.561  -1.789  24.154  0.00  0.00    +0.037 A 
ATOM     31  C   UNL     1      -3.741  -1.851  24.090  0.00  0.00    +0.140 A 
ATOM     34  C   UNL     1      -3.275  -1.171  24.100  0.00  0.00    +0.054 A 
BRANCH  31  32
ATOM     32  O   UNL     1      -3.388  -2.593  24.017  0.00  0.00    -0.471 OA
ATOM     33  C   UNL     1      -3.385  -3.113  24.657  0.00  0.00    +0.252 C 
ENDBRANCH  31  32
ENDBRANCH  26  27
ENDBRANCH  23  24
ENDBRANCH  19  23
TORSDOF 7
ENDMDL
MODEL 5
REMARK VINA RESULT:      -7.0      1.600      7.421
REMARK  Name = 
REMARK  7 active torsions:
REMARK  status: ('A' for Active; 'I' for Inactive)
REMARK    1  A    between atoms: O_2  and  C_3
REMARK    2  A    between atoms: C_6  and  C_9
REMARK    3  A    between atoms: N_14  and  C_15
REMARK    4  A    between atoms: C_19  and  O_23
REMARK    5  A    between atoms: O_23  and  C_24
REMARK    6  A    between atoms: N_26  and  C_27
REMARK    7  A    between atoms: C_31  and  O_32
REMARK                            x       y       z     vdW  Elec       q    Type
REMARK                         _______ _______ _______ _____ _____    ______ ____
ROOT
ATOM     15  C   UNL     1      -1.213  -0.543  24.830  0.00  0.00    +0.155 C 
ATOM     16  C   UNL     1      -1.302  -0.299  25.613  0.00  0.00    +0.166 C 
ATOM     17  O   UNL     1      -2.108  -0.294  25.788  0.00  0.00    -0.348 OA
ATOM     18  C   UNL     1      -2.517  -0.536  25.115  0.00  0.00    +0.186 C 
ATOM     19  C   UNL     1      -3.268  -0.683  24.805  0.00  0.00    +0.229 C 
ATOM     20  C   UNL     1      -3.179  -0.927  24.023  0.00  0.00    +0.188 C 
ATOM     21  O   UNL     1      -2.373  -0.931  23.848  0.00  0.00    -0.348 OA
ATOM     22  C   UNL     1      -1.964  -0.689  24.522  0.00  0.00    +0.168 C 
ENDROOT
BRANCH  15  14
ATOM      9  C   UNL     1       1.081   0.629  23.591  0.00  0.00    +0.086 A 
ATOM     10  C   UNL     1       0.798   1.380  23.779  0.00  0.00    +0.040 A 
ATOM     11  C   UNL     1       0.083   1.464  24.183  0.00  0.00    +0.103 A 
ATOM     12  N   UNL     1      -0.349   0.795  24.399  0.00  0.00    -0.211 NA
ATOM     13  C   UNL     1      -0.066   0.043  24.211  0.00  0.00    +0.237 A 
ATOM     14  N   UNL     1      -0.498  -0.626  24.427  0.00  0.00    -0.200 NA
ATOM     35  N   UNL     1       0.649  -0.040  23.807  0.00  0.00    -0.212 NA
BRANCH   9   6
ATOM      3  C   UNL     1       3.225   0.380  22.380  0.00  0.00    +0.139 A 
ATOM      4  C   UNL     1       3.170   0.897  23.021  0.00  0.00    +0.037 A 
ATOM      5  C   UNL     1       2.456   0.980  23.424  0.00  0.00    +0.005 A 
ATOM      6  C   UNL     1       1.795   0.546  23.188  0.00  0.00    +0.018 A 
ATOM      7  C   UNL     1       1.849   0.029  22.548  0.00  0.00    +0.005 A 
ATOM      8  C   UNL     1       2.564  -0.055  22.144  0.00  0.00    +0.037 A 
BRANCH   3   2
ATOM      1  C   UNL     1       4.653   0.424  22.371  0.00  0.00    +0.252 C 
ATOM      2  O   UNL     1       3.939   0.297  21.976  0.00  0.00    -0.471 OA
ENDBRANCH   3   2
ENDBRANCH   9   6
ENDBRANCH  15  14
BRANCH  19  23
ATOM     23  O   UNL     1      -3.983  -0.599  25.209  0.00  0.00    -0.432 OA
BRANCH  23  24
ATOM     24  C   UNL     1      -4.482   0.034  25.037  0.00  0.00    +0.425 C 
ATOM     25  O   UNL     1      -4.866   0.071  24.308  0.00  0.00    -0.224 OA
ATOM     26  N   UNL     1      -4.598   0.632  25.595  0.00  0.00    -0.142 NA
BRANCH  26  27
ATOM     27  C   UNL     1      -5.097   1.265  25.423  0.00  0.00    +0.080 A 
ATOM     28  C   UNL     1      -5.915   1.160  25.434  0.00  0.00    +0.017 A 
ATOM     29  C   UNL     1      -6.415   1.794  25.262  0.00  0.00    +0.004 A 
ATOM     30  C   UNL     1      -6.096   2.533  25.080  0.00  0.00    +0.037 A 
ATOM     31  C   UNL     1      -5.278   2.638  25.070  0.00  0.00    +0.140 A 
ATOM     34  C   UNL     1      -4.779   2.005  25.242  0.00  0.00    +0.054 A 
BRANCH  31  32
ATOM     32  O   UNL     1      -4.960   3.377  24.888  0.00  0.00    -0.471 OA
ATOM     33  C   UNL     1      -4.571   3.814  25.470  0.00  0.00    +0.252 C 
ENDBRANCH  31  32
ENDBRANCH  26  27
ENDBRANCH  23  24
ENDBRANCH  19  23
TORSDOF 7
ENDMDL
MODEL 6
REMARK VINA RESULT:      -6.8     15.160     16.444
REMARK  Name = 
REMARK  7 active torsions:
REMARK  status: ('A' for Active; 'I' for Inactive)
REMARK    1  A    between atoms: O_2  and  C_3
REMARK    2  A    between atoms: C_6  and  C_9
REMARK    3  A    between atoms: N_14  and  C_15
REMARK    4  A    between atoms: C_19  and  O_23
REMARK    5  A    between atoms: O_23  and  C_24
REMARK    6  A    between atoms: N_26  and  C_27
REMARK    7  A    between atoms: C_31  and  O_32
REMARK                            x       y       z     vdW  Elec       q    Type
REMARK                         _______ _______ _______ _____ _____    ______ ____
ROOT
ATOM     15  C   UNL     1      -6.297 -10.542  14.874  0.00  0.00    +0.155 C 
ATOM     16  C   UNL     1      -5.523 -10.625  15.148  0.00  0.00    +0.166 C 
ATOM     17  O   UNL     1      -5.013 -10.471  14.518  0.00  0.00    -0.348 OA
ATOM     18  C   UNL     1      -5.471 -10.294  13.856  0.00  0.00    +0.186 C 
ATOM     19  C   UNL     1      -5.440 -10.089  13.057  0.00  0.00    +0.229 C 
ATOM     20  C   UNL     1      -6.214 -10.006  12.784  0.00  0.00    +0.188 C 
ATOM     21  O   UNL     1      -6.724 -10.160  13.414  0.00  0.00    -0.348 OA
ATOM     22  C   UNL     1      -6.265 -10.337  14.076  0.00  0.00    +0.168 C 
ENDROOT
BRANCH  15  14
ATOM      9  C   UNL     1      -7.853  -9.944  17.196  0.00  0.00    +0.086 A 
ATOM     10  C   UNL     1      -7.260  -9.437  17.464  0.00  0.00    +0.040 A 
ATOM     11  C   UNL     1      -6.574  -9.333  17.017  0.00  0.00    +0.103 A 
ATOM     12  N   UNL     1      -6.481  -9.736  16.302  0.00  0.00    -0.211 NA
ATOM     13  C   UNL     1      -7.076 -10.243  16.036  0.00  0.00    +0.237 A 
ATOM     14  N   UNL     1      -6.983 -10.646  15.321  0.00  0.00    -0.200 NA
ATOM     35  N   UNL     1      -7.761 -10.347  16.482  0.00  0.00    -0.212 NA
BRANCH   9   6
ATOM      3  C   UNL     1      -9.911 -10.254  18.537  0.00  0.00    +0.139 A 
ATOM      4  C   UNL     1      -9.250 -10.730  18.677  0.00  0.00    +0.037 A 
ATOM      5  C   UNL     1      -8.565 -10.626  18.230  0.00  0.00    +0.005 A 
ATOM      6  C   UNL     1      -8.538 -10.048  17.643  0.00  0.00    +0.018 A 
ATOM      7  C   UNL     1      -9.198  -9.572  17.503  0.00  0.00    +0.005 A 
ATOM      8  C   UNL     1      -9.884  -9.676  17.950  0.00  0.00    +0.037 A 
BRANCH   3   2
ATOM      1  C   UNL     1     -10.543 -10.463  19.800  0.00  0.00    +0.252 C 
ATOM      2  O   UNL     1     -10.596 -10.358  18.984  0.00  0.00    -0.471 OA
ENDBRANCH   3   2
ENDBRANCH   9   6
ENDBRANCH  15  14
BRANCH  19  23
ATOM     23  O   UNL     1      -4.754  -9.985  12.611  0.00  0.00    -0.432 OA
BRANCH  23  24
ATOM     24  C   UNL     1      -4.799  -9.949  11.788  0.00  0.00    +0.425 C 
ATOM     25  O   UNL     1      -5.140 -10.570  11.365  0.00  0.00    -0.224 OA
ATOM     26  N   UNL     1      -4.504  -9.291  11.386  0.00  0.00    -0.142 NA
BRANCH  26  27
ATOM     27  C   UNL     1      -4.549  -9.255  10.563  0.00  0.00    +0.080 A 
ATOM     28  C   UNL     1      -3.965  -9.611  10.103  0.00  0.00    +0.017 A 
ATOM     29  C   UNL     1      -4.011  -9.575   9.279  0.00  0.00    +0.004 A 
ATOM     30  C   UNL     1      -4.640  -9.183   8.918  0.00  0.00    +0.037 A 
ATOM     31  C   UNL     1      -5.224  -8.826   9.379  0.00  0.00    +0.140 A 
ATOM     34  C   UNL     1      -5.178  -8.863  10.201  0.00  0.00    +0.054 A 
BRANCH  31  32
ATOM     32  O   UNL     1      -5.852  -8.435   9.017  0.00  0.00    -0.471 OA
ATOM     33  C   UNL     1      -6.401  -8.858   8.570  0.00  0.00    +0.252 C 
ENDBRANCH  31  32
ENDBRANCH  26  27
ENDBRANCH  23  24
ENDBRANCH  19  23
TORSDOF 7
ENDMDL
MODEL 7
REMARK VINA RESULT:      -6.6     17.431     19.576
REMARK  Name = 
REMARK  7 active torsions:
REMARK  status: ('A' for Active; 'I' for Inactive)
REMARK    1  A    between atoms: O_2  and  C_3
REMARK    2  A    between atoms: C_6  and  C_9
REMARK    3  A    between atoms: N_14  and  C_15
REMARK    4  A    between atoms: C_19  and  O_23
REMARK    5  A    between atoms: O_23  and  C_24
REMARK    6  A    between atoms: N_26  and  C_27
REMARK    7  A    between atoms: C_31  and  O_32
REMARK                            x       y       z     vdW  Elec       q    Type
REMARK                         _______ _______ _______ _____ _____    ______ ____
ROOT
ATOM     15  C   UNL     1      -6.479  -9.622   9.504  0.00  0.00    +0.155 C 
ATOM     16  C   UNL     1      -6.495  -9.712   8.684  0.00  0.00    +0.166 C 
ATOM     17  O   UNL     1      -7.204  -9.396   8.407  0.00  0.00    -0.348 OA
ATOM     18  C   UNL     1      -7.627  -9.111   9.055  0.00  0.00    +0.186 C 
ATOM     19  C   UNL     1      -8.327  -8.739   9.285  0.00  0.00    +0.229 C 
ATOM     20  C   UNL     1      -8.311  -8.648  10.105  0.00  0.00    +0.188 C 
ATOM     21  O   UNL     1      -7.601  -8.964  10.382  0.00  0.00    -0.348 OA
ATOM     22  C   UNL     1      -7.178  -9.250   9.733  0.00  0.00    +0.168 C 
ENDROOT
BRANCH  15  14
ATOM      9  C   UNL     1      -3.716  -9.589  10.235  0.00  0.00    +0.086 A 
ATOM     10  C   UNL     1      -3.552  -9.094   9.596  0.00  0.00    +0.040 A 
ATOM     11  C   UNL     1      -4.162  -8.854   9.093  0.00  0.00    +0.103 A 
ATOM     12  N   UNL     1      -4.934  -9.110   9.230  0.00  0.00    -0.211 NA
ATOM     13  C   UNL     1      -5.097  -9.606   9.870  0.00  0.00    +0.237 A 
ATOM     14  N   UNL     1      -5.870  -9.861  10.006  0.00  0.00    -0.200 NA
ATOM     35  N   UNL     1      -4.488  -9.845  10.371  0.00  0.00    -0.212 NA
BRANCH   9   6
ATOM      3  C   UNL     1      -1.888 -10.308  11.742  0.00  0.00    +0.139 A 
ATOM      4  C   UNL     1      -1.812  -9.614  11.301  0.00  0.00    +0.037 A 
ATOM      5  C   UNL     1      -2.420  -9.375  10.799  0.00  0.00    +0.005 A 
ATOM      6  C   UNL     1      -3.107  -9.829  10.737  0.00  0.00    +0.018 A 
ATOM      7  C   UNL     1      -3.184 -10.522  11.177  0.00  0.00    +0.005 A 
ATOM      8  C   UNL     1      -2.574 -10.762  11.679  0.00  0.00    +0.037 A 
BRANCH   3   2
ATOM      1  C   UNL     1      -1.447 -10.761  13.022  0.00  0.00    +0.252 C 
ATOM      2  O   UNL     1      -1.279 -10.547  12.243  0.00  0.00    -0.471 OA
ENDBRANCH   3   2
ENDBRANCH   9   6
ENDBRANCH  15  14
BRANCH  19  23
ATOM     23  O   UNL     1      -8.936  -8.499   8.783  0.00  0.00    -0.432 OA
BRANCH  23  24
ATOM     24  C   UNL     1      -9.276  -7.753   8.874  0.00  0.00    +0.425 C 
ATOM     25  O   UNL     1      -9.673  -7.563   9.572  0.00  0.00    -0.224 OA
ATOM     26  N   UNL     1      -9.221  -7.197   8.266  0.00  0.00    -0.142 NA
BRANCH  26  27
ATOM     27  C   UNL     1      -9.561  -6.451   8.357  0.00  0.00    +0.080 A 
ATOM     28  C   UNL     1     -10.379  -6.379   8.440  0.00  0.00    +0.017 A 
ATOM     29  C   UNL     1     -10.719  -5.632   8.531  0.00  0.00    +0.004 A 
ATOM     30  C   UNL     1     -10.242  -4.960   8.539  0.00  0.00    +0.037 A 
ATOM     31  C   UNL     1      -9.424  -5.032   8.457  0.00  0.00    +0.140 A 
ATOM     34  C   UNL     1      -9.085  -5.778   8.366  0.00  0.00    +0.054 A 
BRANCH  31  32
ATOM     32  O   UNL     1      -8.948  -4.360   8.466  0.00  0.00    -0.471 OA
ATOM     33  C   UNL     1      -8.141  -4.427   8.623  0.00  0.00    +0.252 C 
ENDBRANCH  31  32
ENDBRANCH  26  27
ENDBRANCH  23  24
ENDBRANCH  19  23
TORSDOF 7
ENDMDL
MODEL 8
REMARK VINA RESULT:      -6.1     17.043     18.068
REMARK  Name = 
REMARK  7 active torsions:
REMARK  status: ('A' for Active; 'I' for Inactive)
REMARK    1  A    between atoms: O_2  and  C_3
REMARK    2  A    between atoms: C_6  and  C_9
REMARK    3  A    between atoms: N_14  and  C_15
REMARK    4  A    between atoms: C_19  and  O_23
REMARK    5  A    between atoms: O_23  and  C_24
REMARK    6  A    between atoms: N_26  and  C_27
REMARK    7  A    between atoms: C_31  and  O_32
REMARK                            x       y       z     vdW  Elec       q    Type
REMARK                         _______ _______ _______ _____ _____    ______ ____
ROOT
ATOM     15  C   UNL     1      -7.060  -9.591  10.412  0.00  0.00    +0.155 C 
ATOM     16  C   UNL     1      -6.960 -10.286   9.980  0.00  0.00    +0.166 C 
ATOM     17  O   UNL     1      -6.304 -10.682  10.284  0.00  0.00    -0.348 OA
ATOM     18  C   UNL     1      -5.998 -10.233  10.903  0.00  0.00    +0.186 C 
ATOM     19  C   UNL     1      -5.403 -10.199  11.474  0.00  0.00    +0.229 C 
ATOM     20  C   UNL     1      -5.503  -9.503  11.906  0.00  0.00    +0.188 C 
ATOM     21  O   UNL     1      -6.159  -9.107  11.602  0.00  0.00    -0.348 OA
ATOM     22  C   UNL     1      -6.465  -9.558  10.982  0.00  0.00    +0.168 C 
ENDROOT
BRANCH  15  14
ATOM      9  C   UNL     1      -8.356  -7.679   8.729  0.00  0.00    +0.086 A 
ATOM     10  C   UNL     1      -7.823  -7.850   8.123  0.00  0.00    +0.040 A 
ATOM     11  C   UNL     1      -7.232  -8.414   8.242  0.00  0.00    +0.103 A 
ATOM     12  N   UNL     1      -7.174  -8.806   8.965  0.00  0.00    -0.211 NA
ATOM     13  C   UNL     1      -7.708  -8.634   9.571  0.00  0.00    +0.237 A 
ATOM     14  N   UNL     1      -7.651  -9.027  10.294  0.00  0.00    -0.200 NA
ATOM     35  N   UNL     1      -8.299  -8.071   9.452  0.00  0.00    -0.212 NA
BRANCH   9   6
ATOM      3  C   UNL     1     -10.129  -5.988   8.374  0.00  0.00    +0.139 A 
ATOM      4  C   UNL     1      -9.341  -5.752   8.444  0.00  0.00    +0.037 A 
ATOM      5  C   UNL     1      -8.751  -6.315   8.562  0.00  0.00    +0.005 A 
ATOM      6  C   UNL     1      -8.947  -7.115   8.611  0.00  0.00    +0.018 A 
ATOM      7  C   UNL     1      -9.734  -7.352   8.541  0.00  0.00    +0.005 A 
ATOM      8  C   UNL     1     -10.325  -6.788   8.423  0.00  0.00    +0.037 A 
BRANCH   3   2
ATOM      1  C   UNL     1     -10.583  -4.636   8.455  0.00  0.00    +0.252 C 
ATOM      2  O   UNL     1     -10.719  -5.425   8.256  0.00  0.00    -0.471 OA
ENDBRANCH   3   2
ENDBRANCH   9   6
ENDBRANCH  15  14
BRANCH  19  23
ATOM     23  O   UNL     1      -4.812 -10.762  11.592  0.00  0.00    -0.432 OA
BRANCH  23  24
ATOM     24  C   UNL     1      -4.062 -10.527  11.841  0.00  0.00    +0.425 C 
ATOM     25  O   UNL     1      -3.965 -10.162  12.575  0.00  0.00    -0.224 OA
ATOM     26  N   UNL     1      -3.406 -10.657  11.356  0.00  0.00    -0.142 NA
BRANCH  26  27
ATOM     27  C   UNL     1      -2.656 -10.422  11.605  0.00  0.00    +0.080 A 
ATOM     28  C   UNL     1      -2.330 -10.743  12.292  0.00  0.00    +0.017 A 
ATOM     29  C   UNL     1      -1.579 -10.507  12.541  0.00  0.00    +0.004 A 
ATOM     30  C   UNL     1      -1.155  -9.952  12.103  0.00  0.00    +0.037 A 
ATOM     31  C   UNL     1      -1.481  -9.631  11.416  0.00  0.00    +0.140 A 
ATOM     34  C   UNL     1      -2.231  -9.866  11.168  0.00  0.00    +0.054 A 
BRANCH  31  32
ATOM     32  O   UNL     1      -1.056  -9.076  10.979  0.00  0.00    -0.471 OA
ATOM     33  C   UNL     1      -0.322  -8.813  11.248  0.00  0.00    +0.252 C 
ENDBRANCH  31  32
ENDBRANCH  26  27
ENDBRANCH  23  24
ENDBRANCH  19  23
TORSDOF 7
ENDMDL
MODEL 9
REMARK VINA RESULT:      -5.7     15.494     17.177
REMARK  Name = 
REMARK  7 active torsions:
REMARK  status: ('A' for Active; 'I' for Inactive)
REMARK    1  A    between atoms: O_2  and  C_3
REMARK    2  A    between atoms: C_6  and  C_9
REMARK    3  A    between atoms: N_14  and  C_15
REMARK    4  A    between atoms: C_19  and  O_23
REMARK    5  A    between atoms: O_23  and  C_24
REMARK    6  A    between atoms: N_26  and  C_27
REMARK    7  A    between atoms: C_31  and  O_32
REMARK                            x       y       z     vdW  Elec       q    Type
REMARK                         _______ _______ _______ _____ _____    ______ ____
ROOT
ATOM     15  C   UNL     1      -5.468 -10.346  13.599  0.00  0.00    +0.155 C 
ATOM     16  C   UNL     1      -4.837 -10.775  13.287  0.00  0.00    +0.166 C 
ATOM     17  O   UNL     1      -4.752 -10.562  12.495  0.00  0.00    -0.348 OA
ATOM     18  C   UNL     1      -5.330 -10.002  12.317  0.00  0.00    +0.186 C 
ATOM     19  C   UNL     1      -5.635  -9.523  11.719  0.00  0.00    +0.229 C 
ATOM     20  C   UNL     1      -6.266  -9.094  12.031  0.00  0.00    +0.188 C 
ATOM     21  O   UNL     1      -6.351  -9.307  12.823  0.00  0.00    -0.348 OA
ATOM     22  C   UNL     1      -5.773  -9.868  13.000  0.00  0.00    +0.168 C 
ENDROOT
BRANCH  15  14
ATOM      9  C   UNL     1      -4.957 -10.487  16.408  0.00  0.00    +0.086 A 
ATOM     10  C   UNL     1      -4.145 -10.474  16.261  0.00  0.00    +0.040 A 
ATOM     11  C   UNL     1      -3.867 -10.433  15.485  0.00  0.00    +0.103 A 
ATOM     12  N   UNL     1      -4.401 -10.404  14.856  0.00  0.00    -0.211 NA
ATOM     13  C   UNL     1      -5.213 -10.416  15.004  0.00  0.00    +0.237 A 
ATOM     14  N   UNL     1      -5.747 -10.387  14.375  0.00  0.00    -0.200 NA
ATOM     35  N   UNL     1      -5.491 -10.458  15.779  0.00  0.00    -0.212 NA
BRANCH   9   6
ATOM      3  C   UNL     1      -5.791 -10.611  18.735  0.00  0.00    +0.139 A 
ATOM      4  C   UNL     1      -4.997 -10.769  18.572  0.00  0.00    +0.037 A 
ATOM      5  C   UNL     1      -4.719 -10.727  17.796  0.00  0.00    +0.005 A 
ATOM      6  C   UNL     1      -5.235 -10.528  17.183  0.00  0.00    +0.018 A 
ATOM      7  C   UNL     1      -6.028 -10.370  17.346  0.00  0.00    +0.005 A 
ATOM      8  C   UNL     1      -6.306 -10.412  18.122  0.00  0.00    +0.037 A 
BRANCH   3   2
ATOM      1  C   UNL     1      -6.879 -10.630  19.660  0.00  0.00    +0.252 C 
ATOM      2  O   UNL     1      -6.068 -10.653  19.511  0.00  0.00    -0.471 OA
ENDBRANCH   3   2
ENDBRANCH   9   6
ENDBRANCH  15  14
BRANCH  19  23
ATOM     23  O   UNL     1      -5.357  -9.481  10.943  0.00  0.00    -0.432 OA
BRANCH  23  24
ATOM     24  C   UNL     1      -5.890  -9.462  10.314  0.00  0.00    +0.425 C 
ATOM     25  O   UNL     1      -6.171 -10.165   9.988  0.00  0.00    -0.224 OA
ATOM     26  N   UNL     1      -6.144  -8.737  10.010  0.00  0.00    -0.142 NA
BRANCH  26  27
ATOM     27  C   UNL     1      -6.677  -8.717   9.381  0.00  0.00    +0.080 A 
ATOM     28  C   UNL     1      -6.600  -9.252   8.758  0.00  0.00    +0.017 A 
ATOM     29  C   UNL     1      -7.134  -9.232   8.129  0.00  0.00    +0.004 A 
ATOM     30  C   UNL     1      -7.744  -8.677   8.124  0.00  0.00    +0.037 A 
ATOM     31  C   UNL     1      -7.822  -8.142   8.747  0.00  0.00    +0.140 A 
ATOM     34  C   UNL     1      -7.288  -8.162   9.375  0.00  0.00    +0.054 A 
BRANCH  31  32
ATOM     32  O   UNL     1      -8.431  -7.588   8.740  0.00  0.00    -0.471 OA
ATOM     33  C   UNL     1      -9.084  -7.687   9.235  0.00  0.00    +0.252 C 
ENDBRANCH  31  32
ENDBRANCH  26  27
ENDBRANCH  23  24
ENDBRANCH  19  23
TORSDOF 7
ENDMDL
MODEL 10
REMARK VINA RESULT:      -5.2     16.573     18.841
REMARK  Name = 
REMARK  7 active torsions:
REMARK  status: ('A' for Active; 'I' for Inactive)
REMARK    1  A    between atoms: O_2  and  C_3
REMARK    2  A    between atoms: C_6  and  C_9
REMARK    3  A    between atoms: N_14  and  C_15
REMARK    4  A    between atoms: C_19  and  O_23
REMARK    5  A    between atoms: O_23  and  C_24
REMARK    6  A    between atoms: N_26  and  C_27
REMARK    7  A    between atoms: C_31  and  O_32
REMARK                            x       y       z     vdW  Elec       q    Type
REMARK                         _______ _______ _______ _____ _____    ______ ____
ROOT
ATOM     15  C   UNL     1      -4.044  -9.401   9.707  0.00  0.00    +0.155 C 
ATOM     16  C   UNL     1      -4.139 -10.190   9.488  0.00  0.00    +0.166 C 
ATOM     17  O   UNL     1      -4.944 -10.327   9.372  0.00  0.00    -0.348 OA
ATOM     18  C   UNL     1      -5.347  -9.623   9.519  0.00  0.00    +0.186 C 
ATOM     19  C   UNL     1      -6.093  -9.271   9.538  0.00  0.00    +0.229 C 
ATOM     20  C   UNL     1      -5.998  -8.482   9.756  0.00  0.00    +0.188 C 
ATOM     21  O   UNL     1      -5.193  -8.345   9.872  0.00  0.00    -0.348 OA
ATOM     22  C   UNL     1      -4.790  -9.050   9.725  0.00  0.00    +0.168 C 
ENDROOT
BRANCH  15  14
ATOM      9  C   UNL     1      -1.583  -9.309  11.157  0.00  0.00    +0.086 A 
ATOM     10  C   UNL     1      -1.784 -10.011  11.542  0.00  0.00    +0.040 A 
ATOM     11  C   UNL     1      -2.500 -10.384  11.372  0.00  0.00    +0.103 A 
ATOM     12  N   UNL     1      -3.015 -10.057  10.817  0.00  0.00    -0.211 NA
ATOM     13  C   UNL     1      -2.813  -9.355  10.432  0.00  0.00    +0.237 A 
ATOM     14  N   UNL     1      -3.328  -9.027   9.877  0.00  0.00    -0.200 NA
ATOM     35  N   UNL     1      -2.098  -8.982  10.601  0.00  0.00    -0.212 NA
BRANCH   9   6
ATOM      3  C   UNL     1       0.565  -8.190  11.667  0.00  0.00    +0.139 A 
ATOM      4  C   UNL     1       0.484  -8.633  10.975  0.00  0.00    +0.037 A 
ATOM      5  C   UNL     1      -0.231  -9.005  10.805  0.00  0.00    +0.005 A 
ATOM      6  C   UNL     1      -0.867  -8.937  11.326  0.00  0.00    +0.018 A 
ATOM      7  C   UNL     1      -0.787  -8.494  12.018  0.00  0.00    +0.005 A 
ATOM      8  C   UNL     1      -0.071  -8.121  12.188  0.00  0.00    +0.037 A 
BRANCH   3   2
ATOM      1  C   UNL     1       1.283  -7.078  12.205  0.00  0.00    +0.252 C 
ATOM      2  O   UNL     1       1.280  -7.817  11.837  0.00  0.00    -0.471 OA
ENDBRANCH   3   2
ENDBRANCH   9   6
ENDBRANCH  15  14
BRANCH  19  23
ATOM     23  O   UNL     1      -6.809  -9.645   9.368  0.00  0.00    -0.432 OA
BRANCH  23  24
ATOM     24  C   UNL     1      -7.468  -9.512   9.847  0.00  0.00    +0.425 C 
ATOM     25  O   UNL     1      -7.682  -8.741  10.049  0.00  0.00    -0.224 OA
ATOM     26  N   UNL     1      -7.912 -10.149  10.124  0.00  0.00    -0.142 NA
BRANCH  26  27
ATOM     27  C   UNL     1      -8.571 -10.016  10.602  0.00  0.00    +0.080 A 
ATOM     28  C   UNL     1      -9.274  -9.741  10.269  0.00  0.00    +0.017 A 
ATOM     29  C   UNL     1      -9.932  -9.608  10.749  0.00  0.00    +0.004 A 
ATOM     30  C   UNL     1      -9.888  -9.750  11.560  0.00  0.00    +0.037 A 
ATOM     31  C   UNL     1      -9.185 -10.025  11.893  0.00  0.00    +0.140 A 
ATOM     34  C   UNL     1      -8.527 -10.158  11.414  0.00  0.00    +0.054 A 
BRANCH  31  32
ATOM     32  O   UNL     1      -9.141 -10.167  12.703  0.00  0.00    -0.471 OA
ATOM     33  C   UNL     1      -9.589  -9.713  13.227  0.00  0.00    +0.252 C 
ENDBRANCH  31  32
ENDBRANCH  26  27
ENDBRANCH  23  24
ENDBRANCH  19  23
TORSDOF 7
ENDMDL
