MODEL 1
REMARK VINA RESULT:     -10.9      0.000      0.000
REMARK  Name = 
REMARK  5 active torsions:
REMARK  status: ('A' for Active; 'I' for Inactive)
REMARK    1  A    between atoms: C_3  and  C_4
REMARK    2  A    between atoms: C_4  and  N_5
REMARK    3  A    between atoms: C_6  and  C_8
REMARK    4  A    between atoms: C_17  and  N_18
REMARK    5  A    between atoms: N_18  and  C_19
REMARK                            x       y       z     vdW  Elec       q    Type
REMARK                         _______ _______ _______ _____ _____    ______ ____
ROOT
ATOM      1  O   UNL     1      -4.977   1.040  25.407  0.00  0.00    -0.219 OA
ATOM      2  C   UNL     1      -4.312   0.925  24.932  0.00  0.00    +0.199 C 
ATOM      3  C   UNL     1      -3.729   1.485  24.770  0.00  0.00    +0.169 C 
ATOM     15  O   UNL     1      -3.170   1.135  24.273  0.00  0.00    -0.350 OA
ATOM     16  C   UNL     1      -3.409   0.358  24.128  0.00  0.00    +0.162 C 
ATOM     17  C   UNL     1      -4.115   0.228  24.535  0.00  0.00    +0.135 C 
ENDROOT
BRANCH   3   4
ATOM      4  C   UNL     1      -3.707   2.259  25.054  0.00  0.00    +0.148 C 
BRANCH   4   5
ATOM      5  N   UNL     1      -3.030   2.718  24.952  0.00  0.00    -0.199 NA
ATOM      6  C   UNL     1      -2.957   3.440  25.343  0.00  0.00    +0.265 C 
ATOM      7  O   UNL     1      -3.563   3.704  25.837  0.00  0.00    -0.268 OA
BRANCH   6   8
ATOM      8  C   UNL     1      -2.279   3.899  25.240  0.00  0.00    +0.055 A 
ATOM      9  C   UNL     1      -2.344   4.716  25.149  0.00  0.00    +0.007 A 
ATOM     10  C   UNL     1      -1.666   5.175  25.046  0.00  0.00    +0.030 A 
ATOM     11  C   UNL     1      -0.923   4.816  25.035  0.00  0.00    +0.140 A 
ATOM     12  F   UNL     1      -0.245   5.275  24.933  0.00  0.00    -0.204 F 
ATOM     13  C   UNL     1      -0.858   3.999  25.127  0.00  0.00    +0.030 A 
ATOM     14  C   UNL     1      -1.536   3.540  25.229  0.00  0.00    +0.007 A 
ENDBRANCH   6   8
ENDBRANCH   4   5
ENDBRANCH   3   4
BRANCH  17  18
ATOM     18  N   UNL     1      -4.547  -0.474  24.544  0.00  0.00    -0.215 NA
BRANCH  18  19
ATOM     19  C   UNL     1      -4.155  -1.200  24.560  0.00  0.00    +0.078 C 
ATOM     20  C   UNL     1      -3.765  -1.444  25.244  0.00  0.00    +0.050 C 
ATOM     21  C   UNL     1      -3.373  -2.170  25.260  0.00  0.00    +0.144 C 
ATOM     22  O   UNL     1      -3.372  -2.652  24.590  0.00  0.00    -0.354 OA
ATOM     23  C   UNL     1      -3.762  -2.408  23.905  0.00  0.00    +0.144 C 
ATOM     24  C   UNL     1      -4.154  -1.682  23.891  0.00  0.00    +0.050 C 
ENDBRANCH  18  19
ENDBRANCH  17  18
TORSDOF 5
ENDMDL
MODEL 2
REMARK VINA RESULT:     -10.5      1.609      2.031
REMARK  Name = 
REMARK  5 active torsions:
REMARK  status: ('A' for Active; 'I' for Inactive)
REMARK    1  A    between atoms: C_3  and  C_4
REMARK    2  A    between atoms: C_4  and  N_5
REMARK    3  A    between atoms: C_6  and  C_8
REMARK    4  A    between atoms: C_17  and  N_18
REMARK    5  A    between atoms: N_18  and  C_19
REMARK                            x       y       z     vdW  Elec       q    Type
REMARK                         _______ _______ _______ _____ _____    ______ ____
ROOT
ATOM      1  O   UNL     1      -0.564  -0.278  24.730  0.00  0.00    -0.219 OA
ATOM      2  C   UNL     1      -1.341  -0.050  24.888  0.00  0.00    +0.199 C 
ATOM      3  C   UNL     1      -1.578   0.665  25.224  0.00  0.00    +0.169 C 
ATOM     15  O   UNL     1      -2.402   0.659  25.282  0.00  0.00    -0.350 OA
ATOM     16  C   UNL     1      -2.673  -0.060  24.982  0.00  0.00    +0.162 C 
ATOM     17  C   UNL     1      -2.018  -0.499  24.739  0.00  0.00    +0.135 C 
ENDROOT
BRANCH   3   4
ATOM      4  C   UNL     1      -1.080   1.278  25.461  0.00  0.00    +0.148 C 
BRANCH   4   5
ATOM      5  N   UNL     1      -1.283   2.061  25.298  0.00  0.00    -0.199 NA
ATOM      6  C   UNL     1      -0.849   2.677  25.631  0.00  0.00    +0.265 C 
ATOM      7  O   UNL     1      -0.211   2.512  26.128  0.00  0.00    -0.268 OA
BRANCH   6   8
ATOM      8  C   UNL     1      -1.052   3.461  25.469  0.00  0.00    +0.055 A 
ATOM      9  C   UNL     1      -0.556   3.927  25.003  0.00  0.00    +0.007 A 
ATOM     10  C   UNL     1      -0.760   4.710  24.841  0.00  0.00    +0.030 A 
ATOM     11  C   UNL     1      -1.458   5.027  25.144  0.00  0.00    +0.140 A 
ATOM     12  F   UNL     1      -1.662   5.809  24.982  0.00  0.00    -0.204 F 
ATOM     13  C   UNL     1      -1.954   4.560  25.611  0.00  0.00    +0.030 A 
ATOM     14  C   UNL     1      -1.751   3.777  25.773  0.00  0.00    +0.007 A 
ENDBRANCH   6   8
ENDBRANCH   4   5
ENDBRANCH   3   4
BRANCH  17  18
ATOM     18  N   UNL     1      -2.036  -1.252  24.404  0.00  0.00    -0.215 NA
BRANCH  18  19
ATOM     19  C   UNL     1      -2.728  -1.701  24.433  0.00  0.00    +0.078 C 
ATOM     20  C   UNL     1      -2.807  -2.302  24.991  0.00  0.00    +0.050 C 
ATOM     21  C   UNL     1      -3.499  -2.751  25.019  0.00  0.00    +0.144 C 
ATOM     22  O   UNL     1      -4.112  -2.597  24.489  0.00  0.00    -0.354 OA
ATOM     23  C   UNL     1      -4.033  -1.994  23.930  0.00  0.00    +0.144 C 
ATOM     24  C   UNL     1      -3.341  -1.547  23.902  0.00  0.00    +0.050 C 
ENDBRANCH  18  19
ENDBRANCH  17  18
TORSDOF 5
ENDMDL
MODEL 3
REMARK VINA RESULT:     -10.4      2.086      5.480
REMARK  Name = 
REMARK  5 active torsions:
REMARK  status: ('A' for Active; 'I' for Inactive)
REMARK    1  A    between atoms: C_3  and  C_4
REMARK    2  A    between atoms: C_4  and  N_5
REMARK    3  A    between atoms: C_6  and  C_8
REMARK    4  A    between atoms: C_17  and  N_18
REMARK    5  A    between atoms: N_18  and  C_19
REMARK                            x       y       z     vdW  Elec       q    Type
REMARK                         _______ _______ _______ _____ _____    ______ ____
ROOT
ATOM      1  O   UNL     1      -4.141   2.721  25.744  0.00  0.00    -0.219 OA
ATOM      2  C   UNL     1      -3.539   2.567  25.201  0.00  0.00    +0.199 C 
ATOM      3  C   UNL     1      -3.496   1.916  24.696  0.00  0.00    +0.169 C 
ATOM     15  O   UNL     1      -2.805   1.984  24.251  0.00  0.00    -0.350 OA
ATOM     16  C   UNL     1      -2.420   2.676  24.481  0.00  0.00    +0.162 C 
ATOM     17  C   UNL     1      -2.874   3.037  25.069  0.00  0.00    +0.135 C 
ENDROOT
BRANCH   3   4
ATOM      4  C   UNL     1      -4.048   1.305  24.645  0.00  0.00    +0.148 C 
BRANCH   4   5
ATOM      5  N   UNL     1      -3.795   0.520  24.639  0.00  0.00    -0.199 NA
ATOM      6  C   UNL     1      -4.348  -0.092  24.627  0.00  0.00    +0.265 C 
ATOM      7  O   UNL     1      -5.155   0.081  24.622  0.00  0.00    -0.268 OA
BRANCH   6   8
ATOM      8  C   UNL     1      -4.095  -0.878  24.620  0.00  0.00    +0.055 A 
ATOM      9  C   UNL     1      -3.699  -1.189  25.273  0.00  0.00    +0.007 A 
ATOM     10  C   UNL     1      -3.447  -1.974  25.266  0.00  0.00    +0.030 A 
ATOM     11  C   UNL     1      -3.590  -2.448  24.606  0.00  0.00    +0.140 A 
ATOM     12  F   UNL     1      -3.337  -3.234  24.599  0.00  0.00    -0.204 F 
ATOM     13  C   UNL     1      -3.986  -2.136  23.953  0.00  0.00    +0.030 A 
ATOM     14  C   UNL     1      -4.239  -1.351  23.960  0.00  0.00    +0.007 A 
ENDBRANCH   6   8
ENDBRANCH   4   5
ENDBRANCH   3   4
BRANCH  17  18
ATOM     18  N   UNL     1      -2.694   3.743  25.455  0.00  0.00    -0.215 NA
BRANCH  18  19
ATOM     19  C   UNL     1      -1.975   4.121  25.312  0.00  0.00    +0.078 C 
ATOM     20  C   UNL     1      -1.266   3.739  25.488  0.00  0.00    +0.050 C 
ATOM     21  C   UNL     1      -0.547   4.117  25.345  0.00  0.00    +0.144 C 
ATOM     22  O   UNL     1      -0.537   4.877  25.026  0.00  0.00    -0.354 OA
ATOM     23  C   UNL     1      -1.247   5.260  24.849  0.00  0.00    +0.144 C 
ATOM     24  C   UNL     1      -1.966   4.881  24.993  0.00  0.00    +0.050 C 
ENDBRANCH  18  19
ENDBRANCH  17  18
TORSDOF 5
ENDMDL
MODEL 4
REMARK VINA RESULT:     -10.3      2.507      5.738
REMARK  Name = 
REMARK  5 active torsions:
REMARK  status: ('A' for Active; 'I' for Inactive)
REMARK    1  A    between atoms: C_3  and  C_4
REMARK    2  A    between atoms: C_4  and  N_5
REMARK    3  A    between atoms: C_6  and  C_8
REMARK    4  A    between atoms: C_17  and  N_18
REMARK    5  A    between atoms: N_18  and  C_19
REMARK                            x       y       z     vdW  Elec       q    Type
REMARK                         _______ _______ _______ _____ _____    ______ ____
ROOT
ATOM      1  O   UNL     1      -0.598   1.225  26.207  0.00  0.00    -0.219 OA
ATOM      2  C   UNL     1      -0.901   1.428  25.467  0.00  0.00    +0.199 C 
ATOM      3  C   UNL     1      -1.244   0.910  24.925  0.00  0.00    +0.169 C 
ATOM     15  O   UNL     1      -1.470   1.347  24.262  0.00  0.00    -0.350 OA
ATOM     16  C   UNL     1      -1.267   2.136  24.395  0.00  0.00    +0.162 C 
ATOM     17  C   UNL     1      -0.915   2.186  25.140  0.00  0.00    +0.135 C 
ENDROOT
BRANCH   3   4
ATOM      4  C   UNL     1      -1.344   0.097  25.027  0.00  0.00    +0.148 C 
BRANCH   4   5
ATOM      5  N   UNL     1      -2.021  -0.275  24.739  0.00  0.00    -0.199 NA
ATOM      6  C   UNL     1      -2.136  -1.081  24.870  0.00  0.00    +0.265 C 
ATOM      7  O   UNL     1      -1.574  -1.515  25.289  0.00  0.00    -0.268 OA
BRANCH   6   8
ATOM      8  C   UNL     1      -2.814  -1.454  24.581  0.00  0.00    +0.055 A 
ATOM      9  C   UNL     1      -3.481  -1.008  24.391  0.00  0.00    +0.007 A 
ATOM     10  C   UNL     1      -4.158  -1.381  24.103  0.00  0.00    +0.030 A 
ATOM     11  C   UNL     1      -4.167  -2.200  24.005  0.00  0.00    +0.140 A 
ATOM     12  F   UNL     1      -4.844  -2.573  23.716  0.00  0.00    -0.204 F 
ATOM     13  C   UNL     1      -3.499  -2.646  24.195  0.00  0.00    +0.030 A 
ATOM     14  C   UNL     1      -2.822  -2.273  24.483  0.00  0.00    +0.007 A 
ENDBRANCH   6   8
ENDBRANCH   4   5
ENDBRANCH   3   4
BRANCH  17  18
ATOM     18  N   UNL     1      -0.628   2.873  25.495  0.00  0.00    -0.215 NA
BRANCH  18  19
ATOM     19  C   UNL     1      -1.037   3.584  25.409  0.00  0.00    +0.078 C 
ATOM     20  C   UNL     1      -1.758   3.695  25.792  0.00  0.00    +0.050 C 
ATOM     21  C   UNL     1      -2.167   4.407  25.705  0.00  0.00    +0.144 C 
ATOM     22  O   UNL     1      -1.853   5.008  25.235  0.00  0.00    -0.354 OA
ATOM     23  C   UNL     1      -1.131   4.897  24.851  0.00  0.00    +0.144 C 
ATOM     24  C   UNL     1      -0.723   4.185  24.938  0.00  0.00    +0.050 C 
ENDBRANCH  18  19
ENDBRANCH  17  18
TORSDOF 5
ENDMDL
MODEL 5
REMARK VINA RESULT:      -7.7     16.302     18.616
REMARK  Name = 
REMARK  5 active torsions:
REMARK  status: ('A' for Active; 'I' for Inactive)
REMARK    1  A    between atoms: C_3  and  C_4
REMARK    2  A    between atoms: C_4  and  N_5
REMARK    3  A    between atoms: C_6  and  C_8
REMARK    4  A    between atoms: C_17  and  N_18
REMARK    5  A    between atoms: N_18  and  C_19
REMARK                            x       y       z     vdW  Elec       q    Type
REMARK                         _______ _______ _______ _____ _____    ______ ____
ROOT
ATOM      1  O   UNL     1      14.028   8.420  18.726  0.00  0.00    -0.219 OA
ATOM      2  C   UNL     1      14.041   7.711  19.147  0.00  0.00    +0.199 C 
ATOM      3  C   UNL     1      13.393   7.347  19.505  0.00  0.00    +0.169 C 
ATOM     15  O   UNL     1      13.656   6.652  19.863  0.00  0.00    -0.350 OA
ATOM     16  C   UNL     1      14.467   6.586  19.727  0.00  0.00    +0.162 C 
ATOM     17  C   UNL     1      14.705   7.241  19.284  0.00  0.00    +0.135 C 
ENDROOT
BRANCH   3   4
ATOM      4  C   UNL     1      12.617   7.629  19.504  0.00  0.00    +0.148 C 
BRANCH   4   5
ATOM      5  N   UNL     1      12.236   7.788  20.218  0.00  0.00    -0.199 NA
ATOM      6  C   UNL     1      11.441   8.007  20.220  0.00  0.00    +0.265 C 
ATOM      7  O   UNL     1      11.027   8.067  19.509  0.00  0.00    -0.268 OA
BRANCH   6   8
ATOM      8  C   UNL     1      11.058   8.166  20.935  0.00  0.00    +0.055 A 
ATOM      9  C   UNL     1      11.044   8.935  21.232  0.00  0.00    +0.007 A 
ATOM     10  C   UNL     1      10.661   9.093  21.946  0.00  0.00    +0.030 A 
ATOM     11  C   UNL     1      10.294   8.483  22.362  0.00  0.00    +0.140 A 
ATOM     12  F   UNL     1       9.911   8.641  23.075  0.00  0.00    -0.204 F 
ATOM     13  C   UNL     1      10.308   7.713  22.063  0.00  0.00    +0.030 A 
ATOM     14  C   UNL     1      10.691   7.555  21.350  0.00  0.00    +0.007 A 
ENDBRANCH   6   8
ENDBRANCH   4   5
ENDBRANCH   3   4
BRANCH  17  18
ATOM     18  N   UNL     1      15.472   7.397  19.024  0.00  0.00    -0.215 NA
BRANCH  18  19
ATOM     19  C   UNL     1      16.116   7.053  19.408  0.00  0.00    +0.078 C 
ATOM     20  C   UNL     1      16.441   6.352  19.120  0.00  0.00    +0.050 C 
ATOM     21  C   UNL     1      17.086   6.008  19.504  0.00  0.00    +0.144 C 
ATOM     22  O   UNL     1      17.405   6.366  20.175  0.00  0.00    -0.354 OA
ATOM     23  C   UNL     1      17.080   7.068  20.463  0.00  0.00    +0.144 C 
ATOM     24  C   UNL     1      16.436   7.411  20.079  0.00  0.00    +0.050 C 
ENDBRANCH  18  19
ENDBRANCH  17  18
TORSDOF 5
ENDMDL
MODEL 6
REMARK VINA RESULT:      -7.7     17.483     19.076
REMARK  Name = 
REMARK  5 active torsions:
REMARK  status: ('A' for Active; 'I' for Inactive)
REMARK    1  A    between atoms: C_3  and  C_4
REMARK    2  A    between atoms: C_4  and  N_5
REMARK    3  A    between atoms: C_6  and  C_8
REMARK    4  A    between atoms: C_17  and  N_18
REMARK    5  A    between atoms: N_18  and  C_19
REMARK                            x       y       z     vdW  Elec       q    Type
REMARK                         _______ _______ _______ _____ _____    ______ ____
ROOT
ATOM      1  O   UNL     1      13.026   6.476  20.112  0.00  0.00    -0.219 OA
ATOM      2  C   UNL     1      13.531   7.068  19.837  0.00  0.00    +0.199 C 
ATOM      3  C   UNL     1      13.305   7.746  19.426  0.00  0.00    +0.169 C 
ATOM     15  O   UNL     1      13.985   8.183  19.259  0.00  0.00    -0.350 OA
ATOM     16  C   UNL     1      14.632   7.775  19.568  0.00  0.00    +0.162 C 
ATOM     17  C   UNL     1      14.352   7.085  19.925  0.00  0.00    +0.135 C 
ENDROOT
BRANCH   3   4
ATOM      4  C   UNL     1      12.533   7.952  19.218  0.00  0.00    +0.148 C 
BRANCH   4   5
ATOM      5  N   UNL     1      12.352   8.137  18.434  0.00  0.00    -0.199 NA
ATOM      6  C   UNL     1      11.584   8.354  18.229  0.00  0.00    +0.265 C 
ATOM      7  O   UNL     1      10.995   8.387  18.806  0.00  0.00    -0.268 OA
BRANCH   6   8
ATOM      8  C   UNL     1      11.403   8.539  17.445  0.00  0.00    +0.055 A 
ATOM      9  C   UNL     1      11.973   8.884  16.960  0.00  0.00    +0.007 A 
ATOM     10  C   UNL     1      11.791   9.068  16.177  0.00  0.00    +0.030 A 
ATOM     11  C   UNL     1      11.039   8.909  15.879  0.00  0.00    +0.140 A 
ATOM     12  F   UNL     1      10.857   9.093  15.096  0.00  0.00    -0.204 F 
ATOM     13  C   UNL     1      10.468   8.564  16.365  0.00  0.00    +0.030 A 
ATOM     14  C   UNL     1      10.650   8.379  17.148  0.00  0.00    +0.007 A 
ENDBRANCH   6   8
ENDBRANCH   4   5
ENDBRANCH   3   4
BRANCH  17  18
ATOM     18  N   UNL     1      14.811   6.514  20.302  0.00  0.00    -0.215 NA
BRANCH  18  19
ATOM     19  C   UNL     1      15.628   6.502  20.192  0.00  0.00    +0.078 C 
ATOM     20  C   UNL     1      15.945   6.252  19.473  0.00  0.00    +0.050 C 
ATOM     21  C   UNL     1      16.762   6.240  19.363  0.00  0.00    +0.144 C 
ATOM     22  O   UNL     1      17.264   6.478  19.974  0.00  0.00    -0.354 OA
ATOM     23  C   UNL     1      16.947   6.729  20.694  0.00  0.00    +0.144 C 
ATOM     24  C   UNL     1      16.130   6.740  20.803  0.00  0.00    +0.050 C 
ENDBRANCH  18  19
ENDBRANCH  17  18
TORSDOF 5
ENDMDL
MODEL 7
REMARK VINA RESULT:      -7.1     17.873     19.747
REMARK  Name = 
REMARK  5 active torsions:
REMARK  status: ('A' for Active; 'I' for Inactive)
REMARK    1  A    between atoms: C_3  and  C_4
REMARK    2  A    between atoms: C_4  and  N_5
REMARK    3  A    between atoms: C_6  and  C_8
REMARK    4  A    between atoms: C_17  and  N_18
REMARK    5  A    between atoms: N_18  and  C_19
REMARK                            x       y       z     vdW  Elec       q    Type
REMARK                         _______ _______ _______ _____ _____    ______ ____
ROOT
ATOM      1  O   UNL     1      14.279   8.611  17.042  0.00  0.00    -0.219 OA
ATOM      2  C   UNL     1      13.741   8.253  17.555  0.00  0.00    +0.199 C 
ATOM      3  C   UNL     1      13.896   7.610  18.049  0.00  0.00    +0.169 C 
ATOM     15  O   UNL     1      13.204   7.434  18.463  0.00  0.00    -0.350 OA
ATOM     16  C   UNL     1      12.621   7.968  18.225  0.00  0.00    +0.162 C 
ATOM     17  C   UNL     1      12.953   8.474  17.664  0.00  0.00    +0.135 C 
ENDROOT
BRANCH   3   4
ATOM      4  C   UNL     1      14.616   7.213  18.117  0.00  0.00    +0.148 C 
BRANCH   4   5
ATOM      5  N   UNL     1      14.998   7.174  18.847  0.00  0.00    -0.199 NA
ATOM      6  C   UNL     1      15.642   6.669  18.948  0.00  0.00    +0.265 C 
ATOM      7  O   UNL     1      15.904   6.203  18.320  0.00  0.00    -0.268 OA
BRANCH   6   8
ATOM      8  C   UNL     1      16.024   6.629  19.679  0.00  0.00    +0.055 A 
ATOM      9  C   UNL     1      15.596   6.445  20.359  0.00  0.00    +0.007 A 
ATOM     10  C   UNL     1      15.979   6.405  21.089  0.00  0.00    +0.030 A 
ATOM     11  C   UNL     1      16.790   6.549  21.138  0.00  0.00    +0.140 A 
ATOM     12  F   UNL     1      17.173   6.509  21.868  0.00  0.00    -0.204 F 
ATOM     13  C   UNL     1      17.218   6.733  20.457  0.00  0.00    +0.030 A 
ATOM     14  C   UNL     1      16.835   6.773  19.727  0.00  0.00    +0.007 A 
ENDBRANCH   6   8
ENDBRANCH   4   5
ENDBRANCH   3   4
BRANCH  17  18
ATOM     18  N   UNL     1      12.566   9.092  17.279  0.00  0.00    -0.215 NA
BRANCH  18  19
ATOM     19  C   UNL     1      11.871   8.946  16.859  0.00  0.00    +0.078 C 
ATOM     20  C   UNL     1      11.840   9.092  16.048  0.00  0.00    +0.050 C 
ATOM     21  C   UNL     1      11.145   8.947  15.628  0.00  0.00    +0.144 C 
ATOM     22  O   UNL     1      10.480   8.654  16.020  0.00  0.00    -0.354 OA
ATOM     23  C   UNL     1      10.511   8.508  16.832  0.00  0.00    +0.144 C 
ATOM     24  C   UNL     1      11.206   8.654  17.251  0.00  0.00    +0.050 C 
ENDBRANCH  18  19
ENDBRANCH  17  18
TORSDOF 5
ENDMDL
MODEL 8
REMARK VINA RESULT:      -7.1     16.080     18.496
REMARK  Name = 
REMARK  5 active torsions:
REMARK  status: ('A' for Active; 'I' for Inactive)
REMARK    1  A    between atoms: C_3  and  C_4
REMARK    2  A    between atoms: C_4  and  N_5
REMARK    3  A    between atoms: C_6  and  C_8
REMARK    4  A    between atoms: C_17  and  N_18
REMARK    5  A    between atoms: N_18  and  C_19
REMARK                            x       y       z     vdW  Elec       q    Type
REMARK                         _______ _______ _______ _____ _____    ______ ____
ROOT
ATOM      1  O   UNL     1      14.153   9.049  19.340  0.00  0.00    -0.219 OA
ATOM      2  C   UNL     1      13.801   8.427  18.927  0.00  0.00    +0.199 C 
ATOM      3  C   UNL     1      13.425   7.774  19.262  0.00  0.00    +0.169 C 
ATOM     15  O   UNL     1      13.155   7.292  18.649  0.00  0.00    -0.350 OA
ATOM     16  C   UNL     1      13.364   7.648  17.935  0.00  0.00    +0.162 C 
ATOM     17  C   UNL     1      13.763   8.349  18.106  0.00  0.00    +0.135 C 
ENDROOT
BRANCH   3   4
ATOM      4  C   UNL     1      13.335   7.627  20.070  0.00  0.00    +0.148 C 
BRANCH   4   5
ATOM      5  N   UNL     1      12.591   7.442  20.375  0.00  0.00    -0.199 NA
ATOM      6  C   UNL     1      12.502   7.291  21.180  0.00  0.00    +0.265 C 
ATOM      7  O   UNL     1      13.157   7.325  21.682  0.00  0.00    -0.268 OA
BRANCH   6   8
ATOM      8  C   UNL     1      11.758   7.105  21.486  0.00  0.00    +0.055 A 
ATOM      9  C   UNL     1      11.277   7.701  21.792  0.00  0.00    +0.007 A 
ATOM     10  C   UNL     1      10.534   7.515  22.097  0.00  0.00    +0.030 A 
ATOM     11  C   UNL     1      10.272   6.733  22.098  0.00  0.00    +0.140 A 
ATOM     12  F   UNL     1       9.529   6.547  22.403  0.00  0.00    -0.204 F 
ATOM     13  C   UNL     1      10.754   6.137  21.792  0.00  0.00    +0.030 A 
ATOM     14  C   UNL     1      11.497   6.323  21.486  0.00  0.00    +0.007 A 
ENDBRANCH   6   8
ENDBRANCH   4   5
ENDBRANCH   3   4
BRANCH  17  18
ATOM     18  N   UNL     1      14.071   8.880  17.555  0.00  0.00    -0.215 NA
BRANCH  18  19
ATOM     19  C   UNL     1      13.850   8.825  16.762  0.00  0.00    +0.078 C 
ATOM     20  C   UNL     1      14.371   8.502  16.210  0.00  0.00    +0.050 C 
ATOM     21  C   UNL     1      14.150   8.448  15.417  0.00  0.00    +0.144 C 
ATOM     22  O   UNL     1      13.408   8.716  15.176  0.00  0.00    -0.354 OA
ATOM     23  C   UNL     1      12.887   9.040  15.728  0.00  0.00    +0.144 C 
ATOM     24  C   UNL     1      13.108   9.094  16.521  0.00  0.00    +0.050 C 
ENDBRANCH  18  19
ENDBRANCH  17  18
TORSDOF 5
ENDMDL
