MODEL 1
REMARK VINA RESULT:     -14.6      0.000      0.000
REMARK  Name = 
REMARK  6 active torsions:
REMARK  status: ('A' for Active; 'I' for Inactive)
REMARK    1  A    between atoms: O_2  and  C_3
REMARK    2  A    between atoms: C_6  and  S_9
REMARK    3  A    between atoms: S_9  and  N_12
REMARK    4  A    between atoms: N_12  and  C_13
REMARK    5  A    between atoms: C_23  and  C_25
REMARK    6  A    between atoms: C_27  and  C_31
REMARK                            x       y       z     vdW  Elec       q    Type
REMARK                         _______ _______ _______ _____ _____    ______ ____
ROOT
ATOM     13  C   UNL     1      -3.644   1.334  24.505  0.00  0.00    +0.147 A 
ATOM     14  C   UNL     1      -4.455   1.188  24.530  0.00  0.00    +0.024 A 
ATOM     15  C   UNL     1      -4.966   1.752  24.849  0.00  0.00    +0.014 A 
ATOM     16  C   UNL     1      -4.665   2.462  25.143  0.00  0.00    +0.041 A 
ATOM     17  C   UNL     1      -4.941   3.245  25.536  0.00  0.00    +0.058 C 
ATOM     18  C   UNL     1      -5.519   3.577  25.756  0.00  0.00    +0.011 C 
ATOM     19  C   UNL     1      -4.717   3.718  25.729  0.00  0.00    +0.043 C 
ATOM     20  C   UNL     1      -3.794   4.068  25.785  0.00  0.00    +0.096 C 
ATOM     21  N   UNL     1      -3.381   3.428  25.442  0.00  0.00    -0.276 N 
ATOM     22  C   UNL     1      -4.055   3.597  25.598  0.00  0.00    +0.099 C 
ATOM     23  C   UNL     1      -2.743   2.985  25.164  0.00  0.00    +0.249 C 
ATOM     24  O   UNL     1      -2.871   2.239  24.834  0.00  0.00    -0.270 OA
ATOM     34  C   UNL     1      -4.420   2.903  25.318  0.00  0.00    +0.110 C 
ATOM     35  N   UNL     1      -3.854   2.607  25.117  0.00  0.00    -0.298 N 
ATOM     36  C   UNL     1      -3.343   2.044  24.798  0.00  0.00    +0.277 A 
ATOM     37  O   UNL     1      -2.534   1.955  24.664  0.00  0.00    -0.266 OA
ENDROOT
BRANCH  23  25
ATOM     25  C   UNL     1      -1.977   3.286  25.216  0.00  0.00    +0.054 A 
ATOM     26  C   UNL     1      -1.397   2.871  25.629  0.00  0.00    +0.011 A 
ATOM     27  C   UNL     1      -0.630   3.174  25.681  0.00  0.00    +0.080 A 
ATOM     28  C   UNL     1      -0.445   3.891  25.319  0.00  0.00    +0.007 A 
ATOM     29  C   UNL     1      -1.025   4.307  24.905  0.00  0.00    +0.000 A 
ATOM     30  C   UNL     1      -1.791   4.005  24.854  0.00  0.00    +0.005 A 
BRANCH  27  31
ATOM     31  C   UNL     1      -0.050   2.758  26.094  0.00  0.00    +0.388 C 
ATOM     32  O   UNL     1       0.588   2.426  25.690  0.00  0.00    -0.241 OA
ATOM     33  O   UNL     1      -0.108   2.674  26.913  0.00  0.00    -0.241 OA
ENDBRANCH  27  31
ENDBRANCH  23  25
BRANCH  13  12
ATOM     12  N   UNL     1      -3.134   0.770  24.185  0.00  0.00    -0.092 NA
BRANCH  12   9
ATOM      9  S   UNL     1      -3.314  -0.032  24.248  0.00  0.00    +0.093 S 
ATOM     10  O   UNL     1      -2.953  -0.055  24.990  0.00  0.00    -0.148 OA
ATOM     11  O   UNL     1      -3.675  -0.009  23.507  0.00  0.00    -0.148 OA
BRANCH   9   6
ATOM      3  C   UNL     1      -3.854  -2.440  24.440  0.00  0.00    +0.139 A 
ATOM      4  C   UNL     1      -3.381  -2.077  25.010  0.00  0.00    +0.038 A 
ATOM      5  C   UNL     1      -3.201  -1.275  24.946  0.00  0.00    +0.023 A 
ATOM      6  C   UNL     1      -3.495  -0.835  24.312  0.00  0.00    +0.127 A 
ATOM      7  C   UNL     1      -3.968  -1.199  23.743  0.00  0.00    +0.023 A 
ATOM      8  C   UNL     1      -4.148  -2.001  23.807  0.00  0.00    +0.038 A 
BRANCH   3   2
ATOM      1  C   UNL     1      -3.577  -3.801  24.105  0.00  0.00    +0.252 C 
ATOM      2  O   UNL     1      -4.034  -3.243  24.505  0.00  0.00    -0.471 OA
ENDBRANCH   3   2
ENDBRANCH   9   6
ENDBRANCH  12   9
ENDBRANCH  13  12
TORSDOF 6
ENDMDL
MODEL 2
REMARK VINA RESULT:     -13.5      2.425      4.390
REMARK  Name = 
REMARK  6 active torsions:
REMARK  status: ('A' for Active; 'I' for Inactive)
REMARK    1  A    between atoms: O_2  and  C_3
REMARK    2  A    between atoms: C_6  and  S_9
REMARK    3  A    between atoms: S_9  and  N_12
REMARK    4  A    between atoms: N_12  and  C_13
REMARK    5  A    between atoms: C_23  and  C_25
REMARK    6  A    between atoms: C_27  and  C_31
REMARK                            x       y       z     vdW  Elec       q    Type
REMARK                         _______ _______ _______ _____ _____    ______ ____
ROOT
ATOM     13  C   UNL     1      -1.418   0.428  24.525  0.00  0.00    +0.147 A 
ATOM     14  C   UNL     1      -1.122  -0.325  24.684  0.00  0.00    +0.024 A 
ATOM     15  C   UNL     1      -1.626  -0.919  24.956  0.00  0.00    +0.014 A 
ATOM     16  C   UNL     1      -2.427  -0.758  25.070  0.00  0.00    +0.041 A 
ATOM     17  C   UNL     1      -3.205  -1.165  25.343  0.00  0.00    +0.058 C 
ATOM     18  C   UNL     1      -3.453  -1.781  25.571  0.00  0.00    +0.011 C 
ATOM     19  C   UNL     1      -3.743  -1.036  25.413  0.00  0.00    +0.043 C 
ATOM     20  C   UNL     1      -4.274  -0.213  25.281  0.00  0.00    +0.096 C 
ATOM     21  N   UNL     1      -3.672   0.300  25.012  0.00  0.00    -0.276 N 
ATOM     22  C   UNL     1      -3.732  -0.378  25.221  0.00  0.00    +0.099 C 
ATOM     23  C   UNL     1      -3.317   0.994  24.740  0.00  0.00    +0.249 C 
ATOM     24  O   UNL     1      -2.508   1.006  24.575  0.00  0.00    -0.270 OA
ATOM     34  C   UNL     1      -2.935  -0.602  25.126  0.00  0.00    +0.110 C 
ATOM     35  N   UNL     1      -2.724  -0.005  24.911  0.00  0.00    -0.298 N 
ATOM     36  C   UNL     1      -2.219   0.588  24.638  0.00  0.00    +0.277 A 
ATOM     37  O   UNL     1      -2.269   1.382  24.419  0.00  0.00    -0.266 OA
ENDROOT
BRANCH  23  25
ATOM     25  C   UNL     1      -3.770   1.675  24.634  0.00  0.00    +0.054 A 
ATOM     26  C   UNL     1      -3.932   2.167  25.275  0.00  0.00    +0.011 A 
ATOM     27  C   UNL     1      -4.385   2.849  25.168  0.00  0.00    +0.080 A 
ATOM     28  C   UNL     1      -4.676   3.037  24.419  0.00  0.00    +0.007 A 
ATOM     29  C   UNL     1      -4.514   2.545  23.778  0.00  0.00    +0.000 A 
ATOM     30  C   UNL     1      -4.061   1.863  23.885  0.00  0.00    +0.005 A 
BRANCH  27  31
ATOM     31  C   UNL     1      -4.547   3.341  25.809  0.00  0.00    +0.388 C 
ATOM     32  O   UNL     1      -5.282   3.305  26.182  0.00  0.00    -0.241 OA
ATOM     33  O   UNL     1      -3.973   3.870  26.078  0.00  0.00    -0.241 OA
ENDBRANCH  27  31
ENDBRANCH  23  25
BRANCH  13  12
ATOM     12  N   UNL     1      -0.913   1.020  24.252  0.00  0.00    -0.092 NA
BRANCH  12   9
ATOM      9  S   UNL     1      -0.192   0.821  23.906  0.00  0.00    +0.093 S 
ATOM     10  O   UNL     1      -0.549   0.825  23.162  0.00  0.00    -0.148 OA
ATOM     11  O   UNL     1       0.164   0.816  24.649  0.00  0.00    -0.148 OA
BRANCH   9   6
ATOM      3  C   UNL     1       1.972   0.223  22.864  0.00  0.00    +0.139 A 
ATOM      4  C   UNL     1       1.928   0.859  23.387  0.00  0.00    +0.038 A 
ATOM      5  C   UNL     1       1.207   1.058  23.734  0.00  0.00    +0.023 A 
ATOM      6  C   UNL     1       0.530   0.621  23.558  0.00  0.00    +0.127 A 
ATOM      7  C   UNL     1       0.574  -0.016  23.035  0.00  0.00    +0.023 A 
ATOM      8  C   UNL     1       1.295  -0.215  22.688  0.00  0.00    +0.038 A 
BRANCH   3   2
ATOM      1  C   UNL     1       3.322   0.558  22.537  0.00  0.00    +0.252 C 
ATOM      2  O   UNL     1       2.693   0.024  22.517  0.00  0.00    -0.471 OA
ENDBRANCH   3   2
ENDBRANCH   9   6
ENDBRANCH  12   9
ENDBRANCH  13  12
TORSDOF 6
ENDMDL
MODEL 3
REMARK VINA RESULT:     -13.1      2.643      4.971
REMARK  Name = 
REMARK  6 active torsions:
REMARK  status: ('A' for Active; 'I' for Inactive)
REMARK    1  A    between atoms: O_2  and  C_3
REMARK    2  A    between atoms: C_6  and  S_9
REMARK    3  A    between atoms: S_9  and  N_12
REMARK    4  A    between atoms: N_12  and  C_13
REMARK    5  A    between atoms: C_23  and  C_25
REMARK    6  A    between atoms: C_27  and  C_31
REMARK                            x       y       z     vdW  Elec       q    Type
REMARK                         _______ _______ _______ _____ _____    ______ ____
ROOT
ATOM     13  C   UNL     1      -0.941   0.721  23.947  0.00  0.00    +0.147 A 
ATOM     14  C   UNL     1      -0.773   1.450  23.599  0.00  0.00    +0.024 A 
ATOM     15  C   UNL     1      -1.383   1.981  23.438  0.00  0.00    +0.014 A 
ATOM     16  C   UNL     1      -2.161   1.784  23.627  0.00  0.00    +0.041 A 
ATOM     17  C   UNL     1      -3.014   2.123  23.584  0.00  0.00    +0.058 C 
ATOM     18  C   UNL     1      -3.371   2.691  23.375  0.00  0.00    +0.011 C 
ATOM     19  C   UNL     1      -3.533   1.970  23.719  0.00  0.00    +0.043 C 
ATOM     20  C   UNL     1      -3.925   1.163  24.132  0.00  0.00    +0.096 C 
ATOM     21  N   UNL     1      -3.231   0.712  24.245  0.00  0.00    -0.276 N 
ATOM     22  C   UNL     1      -3.408   1.350  23.981  0.00  0.00    +0.099 C 
ATOM     23  C   UNL     1      -2.753   0.077  24.468  0.00  0.00    +0.249 C 
ATOM     24  O   UNL     1      -1.937   0.112  24.348  0.00  0.00    -0.270 OA
ATOM     34  C   UNL     1      -2.646   1.607  23.768  0.00  0.00    +0.110 C 
ATOM     35  N   UNL     1      -2.329   1.055  23.975  0.00  0.00    -0.298 N 
ATOM     36  C   UNL     1      -1.719   0.524  24.136  0.00  0.00    +0.277 A 
ATOM     37  O   UNL     1      -1.631  -0.229  24.462  0.00  0.00    -0.266 OA
ENDROOT
BRANCH  23  25
ATOM     25  C   UNL     1      -3.091  -0.592  24.812  0.00  0.00    +0.054 A 
ATOM     26  C   UNL     1      -3.345  -1.216  24.337  0.00  0.00    +0.011 A 
ATOM     27  C   UNL     1      -3.683  -1.886  24.681  0.00  0.00    +0.080 A 
ATOM     28  C   UNL     1      -3.767  -1.930  25.501  0.00  0.00    +0.007 A 
ATOM     29  C   UNL     1      -3.514  -1.306  25.976  0.00  0.00    +0.000 A 
ATOM     30  C   UNL     1      -3.175  -0.637  25.632  0.00  0.00    +0.005 A 
BRANCH  27  31
ATOM     31  C   UNL     1      -3.936  -2.510  24.206  0.00  0.00    +0.388 C 
ATOM     32  O   UNL     1      -4.528  -2.388  23.644  0.00  0.00    -0.241 OA
ATOM     33  O   UNL     1      -3.598  -3.258  24.292  0.00  0.00    -0.241 OA
ENDBRANCH  27  31
ENDBRANCH  23  25
BRANCH  13  12
ATOM     12  N   UNL     1      -0.330   0.190  24.107  0.00  0.00    -0.092 NA
BRANCH  12   9
ATOM      9  S   UNL     1       0.395   0.267  23.721  0.00  0.00    +0.093 S 
ATOM     10  O   UNL     1       0.146  -0.271  23.147  0.00  0.00    -0.148 OA
ATOM     11  O   UNL     1       0.644   0.805  24.294  0.00  0.00    -0.148 OA
BRANCH   9   6
ATOM      3  C   UNL     1       2.569   0.495  22.561  0.00  0.00    +0.139 A 
ATOM      4  C   UNL     1       2.391   0.982  23.203  0.00  0.00    +0.038 A 
ATOM      5  C   UNL     1       1.666   0.906  23.589  0.00  0.00    +0.023 A 
ATOM      6  C   UNL     1       1.120   0.343  23.334  0.00  0.00    +0.127 A 
ATOM      7  C   UNL     1       1.298  -0.144  22.692  0.00  0.00    +0.023 A 
ATOM      8  C   UNL     1       2.023  -0.068  22.306  0.00  0.00    +0.038 A 
BRANCH   3   2
ATOM      1  C   UNL     1       3.977   0.732  22.608  0.00  0.00    +0.252 C 
ATOM      2  O   UNL     1       3.294   0.571  22.175  0.00  0.00    -0.471 OA
ENDBRANCH   3   2
ENDBRANCH   9   6
ENDBRANCH  12   9
ENDBRANCH  13  12
TORSDOF 6
ENDMDL
MODEL 4
REMARK VINA RESULT:     -13.1      1.319      4.913
REMARK  Name = 
REMARK  6 active torsions:
REMARK  status: ('A' for Active; 'I' for Inactive)
REMARK    1  A    between atoms: O_2  and  C_3
REMARK    2  A    between atoms: C_6  and  S_9
REMARK    3  A    between atoms: S_9  and  N_12
REMARK    4  A    between atoms: N_12  and  C_13
REMARK    5  A    between atoms: C_23  and  C_25
REMARK    6  A    between atoms: C_27  and  C_31
REMARK                            x       y       z     vdW  Elec       q    Type
REMARK                         _______ _______ _______ _____ _____    ______ ____
ROOT
ATOM     13  C   UNL     1      -3.228   1.985  24.684  0.00  0.00    +0.147 A 
ATOM     14  C   UNL     1      -3.620   2.705  24.594  0.00  0.00    +0.024 A 
ATOM     15  C   UNL     1      -4.442   2.740  24.658  0.00  0.00    +0.014 A 
ATOM     16  C   UNL     1      -4.872   2.053  24.812  0.00  0.00    +0.041 A 
ATOM     17  C   UNL     1      -5.736   1.765  24.935  0.00  0.00    +0.058 C 
ATOM     18  C   UNL     1      -6.397   1.999  24.951  0.00  0.00    +0.011 C 
ATOM     19  C   UNL     1      -6.008   1.289  25.039  0.00  0.00    +0.043 C 
ATOM     20  C   UNL     1      -5.725   0.353  25.176  0.00  0.00    +0.096 C 
ATOM     21  N   UNL     1      -4.898   0.442  25.090  0.00  0.00    -0.276 N 
ATOM     22  C   UNL     1      -5.478   0.855  25.069  0.00  0.00    +0.099 C 
ATOM     23  C   UNL     1      -4.101   0.233  25.058  0.00  0.00    +0.249 C 
ATOM     24  O   UNL     1      -3.528   0.809  24.911  0.00  0.00    -0.270 OA
ATOM     34  C   UNL     1      -5.102   1.581  24.912  0.00  0.00    +0.110 C 
ATOM     35  N   UNL     1      -4.481   1.332  24.902  0.00  0.00    -0.298 N 
ATOM     36  C   UNL     1      -3.659   1.298  24.838  0.00  0.00    +0.277 A 
ATOM     37  O   UNL     1      -3.064   0.729  24.885  0.00  0.00    -0.266 OA
ENDROOT
BRANCH  23  25
ATOM     25  C   UNL     1      -3.876  -0.552  25.174  0.00  0.00    +0.054 A 
ATOM     26  C   UNL     1      -3.923  -1.091  24.551  0.00  0.00    +0.011 A 
ATOM     27  C   UNL     1      -3.698  -1.877  24.667  0.00  0.00    +0.080 A 
ATOM     28  C   UNL     1      -3.426  -2.123  25.406  0.00  0.00    +0.007 A 
ATOM     29  C   UNL     1      -3.378  -1.585  26.028  0.00  0.00    +0.000 A 
ATOM     30  C   UNL     1      -3.603  -0.799  25.913  0.00  0.00    +0.005 A 
BRANCH  27  31
ATOM     31  C   UNL     1      -3.746  -2.415  24.044  0.00  0.00    +0.388 C 
ATOM     32  O   UNL     1      -4.437  -2.471  23.598  0.00  0.00    -0.241 OA
ATOM     33  O   UNL     1      -3.100  -2.898  23.867  0.00  0.00    -0.241 OA
ENDBRANCH  27  31
ENDBRANCH  23  25
BRANCH  13  12
ATOM     12  N   UNL     1      -2.407   1.951  24.620  0.00  0.00    -0.092 NA
BRANCH  12   9
ATOM      9  S   UNL     1      -1.962   2.645  24.654  0.00  0.00    +0.093 S 
ATOM     10  O   UNL     1      -1.886   2.556  25.470  0.00  0.00    -0.148 OA
ATOM     11  O   UNL     1      -2.038   2.733  23.837  0.00  0.00    -0.148 OA
BRANCH   9   6
ATOM      3  C   UNL     1      -0.625   4.725  24.756  0.00  0.00    +0.139 A 
ATOM      4  C   UNL     1      -0.444   4.146  24.197  0.00  0.00    +0.038 A 
ATOM      5  C   UNL     1      -0.890   3.453  24.163  0.00  0.00    +0.023 A 
ATOM      6  C   UNL     1      -1.516   3.339  24.688  0.00  0.00    +0.127 A 
ATOM      7  C   UNL     1      -1.697   3.918  25.247  0.00  0.00    +0.023 A 
ATOM      8  C   UNL     1      -1.251   4.611  25.281  0.00  0.00    +0.038 A 
BRANCH   3   2
ATOM      1  C   UNL     1      -0.549   6.151  24.702  0.00  0.00    +0.252 C 
ATOM      2  O   UNL     1      -0.179   5.418  24.790  0.00  0.00    -0.471 OA
ENDBRANCH   3   2
ENDBRANCH   9   6
ENDBRANCH  12   9
ENDBRANCH  13  12
TORSDOF 6
ENDMDL
MODEL 5
REMARK VINA RESULT:     -12.9      1.982      4.674
REMARK  Name = 
REMARK  6 active torsions:
REMARK  status: ('A' for Active; 'I' for Inactive)
REMARK    1  A    between atoms: O_2  and  C_3
REMARK    2  A    between atoms: C_6  and  S_9
REMARK    3  A    between atoms: S_9  and  N_12
REMARK    4  A    between atoms: N_12  and  C_13
REMARK    5  A    between atoms: C_23  and  C_25
REMARK    6  A    between atoms: C_27  and  C_31
REMARK                            x       y       z     vdW  Elec       q    Type
REMARK                         _______ _______ _______ _____ _____    ______ ____
ROOT
ATOM     13  C   UNL     1      -3.645   0.439  24.479  0.00  0.00    +0.147 A 
ATOM     14  C   UNL     1      -4.448   0.287  24.364  0.00  0.00    +0.024 A 
ATOM     15  C   UNL     1      -4.708  -0.485  24.235  0.00  0.00    +0.014 A 
ATOM     16  C   UNL     1      -4.165  -1.106  24.221  0.00  0.00    +0.041 A 
ATOM     17  C   UNL     1      -4.125  -2.017  24.110  0.00  0.00    +0.058 C 
ATOM     18  C   UNL     1      -4.533  -2.575  23.990  0.00  0.00    +0.011 C 
ATOM     19  C   UNL     1      -3.741  -2.422  24.104  0.00  0.00    +0.043 C 
ATOM     20  C   UNL     1      -2.760  -2.439  24.218  0.00  0.00    +0.096 C 
ATOM     21  N   UNL     1      -2.618  -1.625  24.339  0.00  0.00    -0.276 N 
ATOM     22  C   UNL     1      -3.177  -2.051  24.218  0.00  0.00    +0.099 C 
ATOM     23  C   UNL     1      -2.196  -0.929  24.477  0.00  0.00    +0.249 C 
ATOM     24  O   UNL     1      -2.594  -0.207  24.522  0.00  0.00    -0.270 OA
ATOM     34  C   UNL     1      -3.773  -1.470  24.221  0.00  0.00    +0.110 C 
ATOM     35  N   UNL     1      -3.362  -0.954  24.336  0.00  0.00    -0.298 N 
ATOM     36  C   UNL     1      -3.102  -0.182  24.465  0.00  0.00    +0.277 A 
ATOM     37  O   UNL     1      -2.389   0.211  24.600  0.00  0.00    -0.266 OA
ENDROOT
BRANCH  23  25
ATOM     25  C   UNL     1      -1.378  -0.955  24.572  0.00  0.00    +0.054 A 
ATOM     26  C   UNL     1      -0.886  -0.611  24.007  0.00  0.00    +0.011 A 
ATOM     27  C   UNL     1      -0.066  -0.637  24.101  0.00  0.00    +0.080 A 
ATOM     28  C   UNL     1       0.261  -1.009  24.761  0.00  0.00    +0.007 A 
ATOM     29  C   UNL     1      -0.230  -1.354  25.326  0.00  0.00    +0.000 A 
ATOM     30  C   UNL     1      -1.050  -1.327  25.232  0.00  0.00    +0.005 A 
BRANCH  27  31
ATOM     31  C   UNL     1       0.425  -0.292  23.536  0.00  0.00    +0.388 C 
ATOM     32  O   UNL     1       0.667  -0.727  22.878  0.00  0.00    -0.241 OA
ATOM     33  O   UNL     1       0.674   0.489  23.628  0.00  0.00    -0.241 OA
ENDBRANCH  27  31
ENDBRANCH  23  25
BRANCH  13  12
ATOM     12  N   UNL     1      -3.387   1.211  24.608  0.00  0.00    -0.092 NA
BRANCH  12   9
ATOM      9  S   UNL     1      -3.922   1.791  24.848  0.00  0.00    +0.093 S 
ATOM     10  O   UNL     1      -4.065   1.986  24.060  0.00  0.00    -0.148 OA
ATOM     11  O   UNL     1      -3.779   1.596  25.637  0.00  0.00    -0.148 OA
BRANCH   9   6
ATOM      3  C   UNL     1      -5.527   3.533  25.567  0.00  0.00    +0.139 A 
ATOM      4  C   UNL     1      -4.798   3.750  25.248  0.00  0.00    +0.038 A 
ATOM      5  C   UNL     1      -4.263   3.170  25.009  0.00  0.00    +0.023 A 
ATOM      6  C   UNL     1      -4.458   2.372  25.088  0.00  0.00    +0.127 A 
ATOM      7  C   UNL     1      -5.187   2.154  25.406  0.00  0.00    +0.023 A 
ATOM      8  C   UNL     1      -5.722   2.735  25.646  0.00  0.00    +0.038 A 
BRANCH   3   2
ATOM      1  C   UNL     1      -6.009   4.875  25.495  0.00  0.00    +0.252 C 
ATOM      2  O   UNL     1      -6.062   4.113  25.806  0.00  0.00    -0.471 OA
ENDBRANCH   3   2
ENDBRANCH   9   6
ENDBRANCH  12   9
ENDBRANCH  13  12
TORSDOF 6
ENDMDL
MODEL 6
REMARK VINA RESULT:     -12.8      2.398      4.078
REMARK  Name = 
REMARK  6 active torsions:
REMARK  status: ('A' for Active; 'I' for Inactive)
REMARK    1  A    between atoms: O_2  and  C_3
REMARK    2  A    between atoms: C_6  and  S_9
REMARK    3  A    between atoms: S_9  and  N_12
REMARK    4  A    between atoms: N_12  and  C_13
REMARK    5  A    between atoms: C_23  and  C_25
REMARK    6  A    between atoms: C_27  and  C_31
REMARK                            x       y       z     vdW  Elec       q    Type
REMARK                         _______ _______ _______ _____ _____    ______ ____
ROOT
ATOM     13  C   UNL     1      -1.188   2.194  24.741  0.00  0.00    +0.147 A 
ATOM     14  C   UNL     1      -0.475   2.594  24.853  0.00  0.00    +0.024 A 
ATOM     15  C   UNL     1      -0.476   3.404  25.005  0.00  0.00    +0.014 A 
ATOM     16  C   UNL     1      -1.189   3.816  25.044  0.00  0.00    +0.041 A 
ATOM     17  C   UNL     1      -1.518   4.662  25.186  0.00  0.00    +0.058 C 
ATOM     18  C   UNL     1      -1.309   5.319  25.320  0.00  0.00    +0.011 C 
ATOM     19  C   UNL     1      -2.012   4.921  25.208  0.00  0.00    +0.043 C 
ATOM     20  C   UNL     1      -2.948   4.625  25.103  0.00  0.00    +0.096 C 
ATOM     21  N   UNL     1      -2.822   3.812  24.957  0.00  0.00    -0.276 N 
ATOM     22  C   UNL     1      -2.429   4.391  25.086  0.00  0.00    +0.099 C 
ATOM     23  C   UNL     1      -3.000   3.021  24.799  0.00  0.00    +0.249 C 
ATOM     24  O   UNL     1      -2.392   2.468  24.728  0.00  0.00    -0.270 OA
ATOM     34  C   UNL     1      -1.677   4.034  25.059  0.00  0.00    +0.110 C 
ATOM     35  N   UNL     1      -1.903   3.416  24.932  0.00  0.00    -0.298 N 
ATOM     36  C   UNL     1      -1.902   2.606  24.780  0.00  0.00    +0.277 A 
ATOM     37  O   UNL     1      -2.453   2.008  24.639  0.00  0.00    -0.266 OA
ENDROOT
BRANCH  23  25
ATOM     25  C   UNL     1      -3.785   2.785  24.713  0.00  0.00    +0.054 A 
ATOM     26  C   UNL     1      -4.256   2.664  25.380  0.00  0.00    +0.011 A 
ATOM     27  C   UNL     1      -5.042   2.427  25.294  0.00  0.00    +0.080 A 
ATOM     28  C   UNL     1      -5.357   2.312  24.540  0.00  0.00    +0.007 A 
ATOM     29  C   UNL     1      -4.887   2.433  23.873  0.00  0.00    +0.000 A 
ATOM     30  C   UNL     1      -4.101   2.669  23.960  0.00  0.00    +0.005 A 
BRANCH  27  31
ATOM     31  C   UNL     1      -5.511   2.307  25.960  0.00  0.00    +0.388 C 
ATOM     32  O   UNL     1      -5.692   2.939  26.459  0.00  0.00    -0.241 OA
ATOM     33  O   UNL     1      -5.801   1.552  26.130  0.00  0.00    -0.241 OA
ENDBRANCH  27  31
ENDBRANCH  23  25
BRANCH  13  12
ATOM     12  N   UNL     1      -1.187   1.384  24.589  0.00  0.00    -0.092 NA
BRANCH  12   9
ATOM      9  S   UNL     1      -0.541   1.035  24.212  0.00  0.00    +0.093 S 
ATOM     10  O   UNL     1      -0.882   1.197  23.479  0.00  0.00    -0.148 OA
ATOM     11  O   UNL     1      -0.200   0.874  24.945  0.00  0.00    -0.148 OA
BRANCH   9   6
ATOM      3  C   UNL     1       1.395  -0.010  23.079  0.00  0.00    +0.139 A 
ATOM      4  C   UNL     1       0.669  -0.402  23.102  0.00  0.00    +0.038 A 
ATOM      5  C   UNL     1       0.024  -0.054  23.479  0.00  0.00    +0.023 A 
ATOM      6  C   UNL     1       0.105   0.687  23.834  0.00  0.00    +0.127 A 
ATOM      7  C   UNL     1       0.830   1.079  23.811  0.00  0.00    +0.023 A 
ATOM      8  C   UNL     1       1.475   0.730  23.433  0.00  0.00    +0.038 A 
BRANCH   3   2
ATOM      1  C   UNL     1       2.611   0.114  22.340  0.00  0.00    +0.252 C 
ATOM      2  O   UNL     1       2.040  -0.359  22.701  0.00  0.00    -0.471 OA
ENDBRANCH   3   2
ENDBRANCH   9   6
ENDBRANCH  12   9
ENDBRANCH  13  12
TORSDOF 6
ENDMDL
MODEL 7
REMARK VINA RESULT:     -12.6      1.581      3.094
REMARK  Name = 
REMARK  6 active torsions:
REMARK  status: ('A' for Active; 'I' for Inactive)
REMARK    1  A    between atoms: O_2  and  C_3
REMARK    2  A    between atoms: C_6  and  S_9
REMARK    3  A    between atoms: S_9  and  N_12
REMARK    4  A    between atoms: N_12  and  C_13
REMARK    5  A    between atoms: C_23  and  C_25
REMARK    6  A    between atoms: C_27  and  C_31
REMARK                            x       y       z     vdW  Elec       q    Type
REMARK                         _______ _______ _______ _____ _____    ______ ____
ROOT
ATOM     13  C   UNL     1      -1.816   0.420  25.147  0.00  0.00    +0.147 A 
ATOM     14  C   UNL     1      -1.239  -0.106  24.879  0.00  0.00    +0.024 A 
ATOM     15  C   UNL     1      -0.532   0.182  24.565  0.00  0.00    +0.014 A 
ATOM     16  C   UNL     1      -0.403   0.996  24.520  0.00  0.00    +0.041 A 
ATOM     17  C   UNL     1       0.230   1.603  24.245  0.00  0.00    +0.058 C 
ATOM     18  C   UNL     1       0.869   1.640  23.957  0.00  0.00    +0.011 C 
ATOM     19  C   UNL     1       0.297   2.156  24.224  0.00  0.00    +0.043 C 
ATOM     20  C   UNL     1      -0.261   2.927  24.488  0.00  0.00    +0.096 C 
ATOM     21  N   UNL     1      -0.930   2.521  24.783  0.00  0.00    -0.276 N 
ATOM     22  C   UNL     1      -0.298   2.358  24.495  0.00  0.00    +0.099 C 
ATOM     23  C   UNL     1      -1.676   2.407  25.117  0.00  0.00    +0.249 C 
ATOM     24  O   UNL     1      -1.963   1.642  25.234  0.00  0.00    -0.270 OA
ATOM     34  C   UNL     1      -0.369   1.529  24.514  0.00  0.00    +0.110 C 
ATOM     35  N   UNL     1      -0.979   1.521  24.789  0.00  0.00    -0.298 N 
ATOM     36  C   UNL     1      -1.686   1.233  25.102  0.00  0.00    +0.277 A 
ATOM     37  O   UNL     1      -2.383   1.536  25.422  0.00  0.00    -0.266 OA
ENDROOT
BRANCH  23  25
ATOM     25  C   UNL     1      -2.133   3.058  25.334  0.00  0.00    +0.054 A 
ATOM     26  C   UNL     1      -2.821   3.237  24.916  0.00  0.00    +0.011 A 
ATOM     27  C   UNL     1      -3.280   3.888  25.133  0.00  0.00    +0.080 A 
ATOM     28  C   UNL     1      -3.049   4.360  25.769  0.00  0.00    +0.007 A 
ATOM     29  C   UNL     1      -2.362   4.182  26.188  0.00  0.00    +0.000 A 
ATOM     30  C   UNL     1      -1.903   3.531  25.970  0.00  0.00    +0.005 A 
BRANCH  27  31
ATOM     31  C   UNL     1      -3.967   4.066  24.715  0.00  0.00    +0.388 C 
ATOM     32  O   UNL     1      -3.920   4.323  23.932  0.00  0.00    -0.241 OA
ATOM     33  O   UNL     1      -4.704   3.987  25.079  0.00  0.00    -0.241 OA
ENDBRANCH  27  31
ENDBRANCH  23  25
BRANCH  13  12
ATOM     12  N   UNL     1      -2.522   0.131  25.461  0.00  0.00    -0.092 NA
BRANCH  12   9
ATOM      9  S   UNL     1      -2.836  -0.580  25.185  0.00  0.00    +0.093 S 
ATOM     10  O   UNL     1      -3.220  -0.175  24.578  0.00  0.00    -0.148 OA
ATOM     11  O   UNL     1      -2.451  -0.985  25.793  0.00  0.00    -0.148 OA
BRANCH   9   6
ATOM      3  C   UNL     1      -3.778  -2.714  24.358  0.00  0.00    +0.139 A 
ATOM      4  C   UNL     1      -3.236  -2.716  24.980  0.00  0.00    +0.038 A 
ATOM      5  C   UNL     1      -2.922  -2.005  25.256  0.00  0.00    +0.023 A 
ATOM      6  C   UNL     1      -3.150  -1.292  24.909  0.00  0.00    +0.127 A 
ATOM      7  C   UNL     1      -3.692  -1.290  24.287  0.00  0.00    +0.023 A 
ATOM      8  C   UNL     1      -4.006  -2.001  24.012  0.00  0.00    +0.038 A 
BRANCH   3   2
ATOM      1  C   UNL     1      -4.453  -3.457  23.342  0.00  0.00    +0.252 C 
ATOM      2  O   UNL     1      -4.091  -3.425  24.083  0.00  0.00    -0.471 OA
ENDBRANCH   3   2
ENDBRANCH   9   6
ENDBRANCH  12   9
ENDBRANCH  13  12
TORSDOF 6
ENDMDL
MODEL 8
REMARK VINA RESULT:     -12.4      2.086      5.721
REMARK  Name = 
REMARK  6 active torsions:
REMARK  status: ('A' for Active; 'I' for Inactive)
REMARK    1  A    between atoms: O_2  and  C_3
REMARK    2  A    between atoms: C_6  and  S_9
REMARK    3  A    between atoms: S_9  and  N_12
REMARK    4  A    between atoms: N_12  and  C_13
REMARK    5  A    between atoms: C_23  and  C_25
REMARK    6  A    between atoms: C_27  and  C_31
REMARK                            x       y       z     vdW  Elec       q    Type
REMARK                         _______ _______ _______ _____ _____    ______ ____
ROOT
ATOM     13  C   UNL     1      -1.493   1.409  24.699  0.00  0.00    +0.147 A 
ATOM     14  C   UNL     1      -0.812   1.775  24.409  0.00  0.00    +0.024 A 
ATOM     15  C   UNL     1      -0.192   1.318  24.114  0.00  0.00    +0.014 A 
ATOM     16  C   UNL     1      -0.253   0.495  24.108  0.00  0.00    +0.041 A 
ATOM     17  C   UNL     1       0.222  -0.254  23.866  0.00  0.00    +0.058 C 
ATOM     18  C   UNL     1       0.834  -0.450  23.584  0.00  0.00    +0.011 C 
ATOM     19  C   UNL     1       0.160  -0.808  23.871  0.00  0.00    +0.043 C 
ATOM     20  C   UNL     1      -0.559  -1.416  24.169  0.00  0.00    +0.096 C 
ATOM     21  N   UNL     1      -1.115  -0.854  24.439  0.00  0.00    -0.276 N 
ATOM     22  C   UNL     1      -0.465  -0.855  24.149  0.00  0.00    +0.099 C 
ATOM     23  C   UNL     1      -1.813  -0.557  24.763  0.00  0.00    +0.249 C 
ATOM     24  O   UNL     1      -1.917   0.258  24.842  0.00  0.00    -0.270 OA
ATOM     34  C   UNL     1      -0.343  -0.032  24.127  0.00  0.00    +0.110 C 
ATOM     35  N   UNL     1      -0.933   0.130  24.398  0.00  0.00    -0.298 N 
ATOM     36  C   UNL     1      -1.554   0.586  24.693  0.00  0.00    +0.277 A 
ATOM     37  O   UNL     1      -2.300   0.467  25.022  0.00  0.00    -0.266 OA
ENDROOT
BRANCH  23  25
ATOM     25  C   UNL     1      -2.407  -1.074  25.008  0.00  0.00    +0.054 A 
ATOM     26  C   UNL     1      -2.933  -1.389  24.457  0.00  0.00    +0.011 A 
ATOM     27  C   UNL     1      -3.528  -1.906  24.702  0.00  0.00    +0.080 A 
ATOM     28  C   UNL     1      -3.595  -2.108  25.499  0.00  0.00    +0.007 A 
ATOM     29  C   UNL     1      -3.069  -1.794  26.051  0.00  0.00    +0.000 A 
ATOM     30  C   UNL     1      -2.475  -1.276  25.806  0.00  0.00    +0.005 A 
BRANCH  27  31
ATOM     31  C   UNL     1      -4.054  -2.220  24.151  0.00  0.00    +0.388 C 
ATOM     32  O   UNL     1      -3.965  -2.998  23.891  0.00  0.00    -0.241 OA
ATOM     33  O   UNL     1      -4.670  -1.756  23.858  0.00  0.00    -0.241 OA
ENDBRANCH  27  31
ENDBRANCH  23  25
BRANCH  13  12
ATOM     12  N   UNL     1      -2.112   1.867  24.994  0.00  0.00    -0.092 NA
BRANCH  12   9
ATOM      9  S   UNL     1      -2.023   2.683  25.068  0.00  0.00    +0.093 S 
ATOM     10  O   UNL     1      -1.709   2.580  25.824  0.00  0.00    -0.148 OA
ATOM     11  O   UNL     1      -2.338   2.786  24.313  0.00  0.00    -0.148 OA
BRANCH   9   6
ATOM      3  C   UNL     1      -1.757   5.134  25.293  0.00  0.00    +0.139 A 
ATOM      4  C   UNL     1      -2.467   4.774  25.511  0.00  0.00    +0.038 A 
ATOM      5  C   UNL     1      -2.555   3.958  25.436  0.00  0.00    +0.023 A 
ATOM      6  C   UNL     1      -1.934   3.500  25.143  0.00  0.00    +0.127 A 
ATOM      7  C   UNL     1      -1.224   3.860  24.925  0.00  0.00    +0.023 A 
ATOM      8  C   UNL     1      -1.136   4.676  25.000  0.00  0.00    +0.038 A 
BRANCH   3   2
ATOM      1  C   UNL     1      -1.719   6.433  24.701  0.00  0.00    +0.252 C 
ATOM      2  O   UNL     1      -1.668   5.950  25.368  0.00  0.00    -0.471 OA
ENDBRANCH   3   2
ENDBRANCH   9   6
ENDBRANCH  12   9
ENDBRANCH  13  12
TORSDOF 6
ENDMDL
