MODEL 1
REMARK VINA RESULT:      -9.1      0.000      0.000
REMARK  Name = 
REMARK  6 active torsions:
REMARK  status: ('A' for Active; 'I' for Inactive)
REMARK    1  A    between atoms: O_2  and  C_3
REMARK    2  A    between atoms: C_3  and  C_4
REMARK    3  A    between atoms: C_4  and  N_5
REMARK    4  A    between atoms: N_5  and  C_6
REMARK    5  A    between atoms: C_8  and  C_12
REMARK    6  A    between atoms: C_15  and  C_17
REMARK                            x       y       z     vdW  Elec       q    Type
REMARK                         _______ _______ _______ _____ _____    ______ ____
ROOT
ATOM      6  C   UNL     1      -3.832   2.949  25.361  0.00  0.00    +0.148 A 
ATOM      7  C   UNL     1      -3.599   2.235  25.019  0.00  0.00    +0.039 A 
ATOM      8  C   UNL     1      -4.164   1.736  24.683  0.00  0.00    +0.043 A 
ATOM      9  C   UNL     1      -4.960   1.950  24.690  0.00  0.00    +0.024 A 
ATOM     10  C   UNL     1      -5.193   2.663  25.031  0.00  0.00    +0.100 A 
ATOM     11  N   UNL     1      -4.628   3.163  25.367  0.00  0.00    -0.228 NA
ENDROOT
BRANCH   8  12
ATOM     12  C   UNL     1      -3.931   1.021  24.341  0.00  0.00    +0.203 A 
ATOM     13  N   UNL     1      -3.552   0.933  23.614  0.00  0.00    -0.056 NA
ATOM     14  O   UNL     1      -3.423   0.127  23.490  0.00  0.00    -0.336 OA
ATOM     15  C   UNL     1      -3.723  -0.282  24.140  0.00  0.00    +0.251 A 
ATOM     16  N   UNL     1      -4.038   0.271  24.667  0.00  0.00    -0.190 NA
BRANCH  15  17
ATOM     17  C   UNL     1      -3.712  -1.100  24.247  0.00  0.00    +0.138 C 
ATOM     18  C   UNL     1      -4.279  -1.632  23.971  0.00  0.00    +0.027 C 
ATOM     19  C   UNL     1      -4.050  -2.391  24.201  0.00  0.00    +0.019 C 
ATOM     20  C   UNL     1      -3.341  -2.327  24.619  0.00  0.00    +0.073 C 
ATOM     21  N   UNL     1      -3.133  -1.530  24.647  0.00  0.00    -0.265 NA
ATOM     22  C   UNL     1      -2.462  -1.217  25.011  0.00  0.00    +0.090 C 
ENDBRANCH  15  17
ENDBRANCH   8  12
BRANCH   6   5
ATOM      5  N   UNL     1      -3.268   3.448  25.696  0.00  0.00    -0.218 NA
BRANCH   5   4
ATOM      4  C   UNL     1      -2.833   3.961  25.216  0.00  0.00    +0.146 C 
BRANCH   4   3
ATOM      3  C   UNL     1      -2.166   4.340  25.517  0.00  0.00    +0.166 C 
BRANCH   3   2
ATOM      1  C   UNL     1      -1.024   5.040  25.017  0.00  0.00    +0.174 C 
ATOM      2  O   UNL     1      -1.842   4.984  25.115  0.00  0.00    -0.349 OA
ENDBRANCH   3   2
ENDBRANCH   4   3
ENDBRANCH   5   4
ENDBRANCH   6   5
TORSDOF 6
ENDMDL
MODEL 2
REMARK VINA RESULT:      -8.6      1.213      4.761
REMARK  Name = 
REMARK  6 active torsions:
REMARK  status: ('A' for Active; 'I' for Inactive)
REMARK    1  A    between atoms: O_2  and  C_3
REMARK    2  A    between atoms: C_3  and  C_4
REMARK    3  A    between atoms: C_4  and  N_5
REMARK    4  A    between atoms: N_5  and  C_6
REMARK    5  A    between atoms: C_8  and  C_12
REMARK    6  A    between atoms: C_15  and  C_17
REMARK                            x       y       z     vdW  Elec       q    Type
REMARK                         _______ _______ _______ _____ _____    ______ ____
ROOT
ATOM      6  C   UNL     1      -4.482   0.641  25.033  0.00  0.00    +0.148 A 
ATOM      7  C   UNL     1      -3.955   1.237  24.811  0.00  0.00    +0.039 A 
ATOM      8  C   UNL     1      -4.223   2.012  24.725  0.00  0.00    +0.043 A 
ATOM      9  C   UNL     1      -5.015   2.193  24.862  0.00  0.00    +0.024 A 
ATOM     10  C   UNL     1      -5.542   1.598  25.084  0.00  0.00    +0.100 A 
ATOM     11  N   UNL     1      -5.274   0.821  25.169  0.00  0.00    -0.228 NA
ENDROOT
BRANCH   8  12
ATOM     12  C   UNL     1      -3.696   2.608  24.503  0.00  0.00    +0.203 A 
ATOM     13  N   UNL     1      -3.668   2.981  23.769  0.00  0.00    -0.056 NA
ATOM     14  O   UNL     1      -3.060   3.539  23.788  0.00  0.00    -0.336 OA
ATOM     15  C   UNL     1      -2.713   3.510  24.535  0.00  0.00    +0.251 A 
ATOM     16  N   UNL     1      -3.106   2.934  24.978  0.00  0.00    -0.190 NA
BRANCH  15  17
ATOM     17  C   UNL     1      -2.082   3.974  24.796  0.00  0.00    +0.138 C 
ATOM     18  C   UNL     1      -2.142   4.709  25.167  0.00  0.00    +0.027 C 
ATOM     19  C   UNL     1      -1.379   4.975  25.333  0.00  0.00    +0.019 C 
ATOM     20  C   UNL     1      -0.847   4.404  25.063  0.00  0.00    +0.073 C 
ATOM     21  N   UNL     1      -1.281   3.787  24.733  0.00  0.00    -0.265 NA
ATOM     22  C   UNL     1      -0.970   3.100  24.396  0.00  0.00    +0.090 C 
ENDBRANCH  15  17
ENDBRANCH   8  12
BRANCH   6   5
ATOM      5  N   UNL     1      -4.214  -0.134  25.118  0.00  0.00    -0.218 NA
BRANCH   5   4
ATOM      4  C   UNL     1      -4.263  -0.660  24.482  0.00  0.00    +0.146 C 
BRANCH   4   3
ATOM      3  C   UNL     1      -3.896  -1.397  24.528  0.00  0.00    +0.166 C 
BRANCH   3   2
ATOM      1  C   UNL     1      -3.796  -2.757  24.102  0.00  0.00    +0.174 C 
ATOM      2  O   UNL     1      -4.165  -2.020  24.060  0.00  0.00    -0.349 OA
ENDBRANCH   3   2
ENDBRANCH   4   3
ENDBRANCH   5   4
ENDBRANCH   6   5
TORSDOF 6
ENDMDL
MODEL 3
REMARK VINA RESULT:      -8.4      2.157      5.633
REMARK  Name = 
REMARK  6 active torsions:
REMARK  status: ('A' for Active; 'I' for Inactive)
REMARK    1  A    between atoms: O_2  and  C_3
REMARK    2  A    between atoms: C_3  and  C_4
REMARK    3  A    between atoms: C_4  and  N_5
REMARK    4  A    between atoms: N_5  and  C_6
REMARK    5  A    between atoms: C_8  and  C_12
REMARK    6  A    between atoms: C_15  and  C_17
REMARK                            x       y       z     vdW  Elec       q    Type
REMARK                         _______ _______ _______ _____ _____    ______ ____
ROOT
ATOM      6  C   UNL     1      -0.976  -0.316  24.824  0.00  0.00    +0.148 A 
ATOM      7  C   UNL     1      -1.041   0.428  25.176  0.00  0.00    +0.039 A 
ATOM      8  C   UNL     1      -0.583   1.056  24.899  0.00  0.00    +0.043 A 
ATOM      9  C   UNL     1      -0.062   0.940  24.272  0.00  0.00    +0.024 A 
ATOM     10  C   UNL     1       0.003   0.197  23.920  0.00  0.00    +0.100 A 
ATOM     11  N   UNL     1      -0.455  -0.431  24.197  0.00  0.00    -0.228 NA
ENDROOT
BRANCH   8  12
ATOM     12  C   UNL     1      -0.648   1.800  25.251  0.00  0.00    +0.203 A 
ATOM     13  N   UNL     1      -0.388   2.003  26.007  0.00  0.00    -0.056 NA
ATOM     14  O   UNL     1      -0.563   2.799  26.132  0.00  0.00    -0.336 OA
ATOM     15  C   UNL     1      -0.931   3.088  25.453  0.00  0.00    +0.251 A 
ATOM     16  N   UNL     1      -0.984   2.470  24.908  0.00  0.00    -0.190 NA
BRANCH  15  17
ATOM     17  C   UNL     1      -1.200   3.860  25.337  0.00  0.00    +0.138 C 
ATOM     18  C   UNL     1      -0.773   4.475  24.992  0.00  0.00    +0.027 C 
ATOM     19  C   UNL     1      -1.252   5.147  24.987  0.00  0.00    +0.019 C 
ATOM     20  C   UNL     1      -1.975   4.946  25.331  0.00  0.00    +0.073 C 
ATOM     21  N   UNL     1      -1.943   4.152  25.547  0.00  0.00    -0.265 NA
ATOM     22  C   UNL     1      -2.548   3.723  25.909  0.00  0.00    +0.090 C 
ENDBRANCH  15  17
ENDBRANCH   8  12
BRANCH   6   5
ATOM      5  N   UNL     1      -1.434  -0.944  25.102  0.00  0.00    -0.218 NA
BRANCH   5   4
ATOM      4  C   UNL     1      -1.955  -1.331  24.591  0.00  0.00    +0.146 C 
BRANCH   4   3
ATOM      3  C   UNL     1      -2.468  -1.906  24.884  0.00  0.00    +0.166 C 
BRANCH   3   2
ATOM      1  C   UNL     1      -3.593  -2.721  24.548  0.00  0.00    +0.174 C 
ATOM      2  O   UNL     1      -2.843  -2.426  24.366  0.00  0.00    -0.349 OA
ENDBRANCH   3   2
ENDBRANCH   4   3
ENDBRANCH   5   4
ENDBRANCH   6   5
TORSDOF 6
ENDMDL
MODEL 4
REMARK VINA RESULT:      -8.2      2.176      2.755
REMARK  Name = 
REMARK  6 active torsions:
REMARK  status: ('A' for Active; 'I' for Inactive)
REMARK    1  A    between atoms: O_2  and  C_3
REMARK    2  A    between atoms: C_3  and  C_4
REMARK    3  A    between atoms: C_4  and  N_5
REMARK    4  A    between atoms: N_5  and  C_6
REMARK    5  A    between atoms: C_8  and  C_12
REMARK    6  A    between atoms: C_15  and  C_17
REMARK                            x       y       z     vdW  Elec       q    Type
REMARK                         _______ _______ _______ _____ _____    ______ ____
ROOT
ATOM      6  C   UNL     1      -0.437   1.924  25.035  0.00  0.00    +0.148 A 
ATOM      7  C   UNL     1      -0.993   1.338  25.202  0.00  0.00    +0.039 A 
ATOM      8  C   UNL     1      -0.938   0.602  24.834  0.00  0.00    +0.043 A 
ATOM      9  C   UNL     1      -0.329   0.452  24.300  0.00  0.00    +0.024 A 
ATOM     10  C   UNL     1       0.227   1.038  24.133  0.00  0.00    +0.100 A 
ATOM     11  N   UNL     1       0.172   1.775  24.501  0.00  0.00    -0.228 NA
ENDROOT
BRANCH   8  12
ATOM     12  C   UNL     1      -1.495   0.015  25.001  0.00  0.00    +0.203 A 
ATOM     13  N   UNL     1      -1.574  -0.389  25.716  0.00  0.00    -0.056 NA
ATOM     14  O   UNL     1      -2.197  -0.924  25.639  0.00  0.00    -0.336 OA
ATOM     15  C   UNL     1      -2.503  -0.851  24.877  0.00  0.00    +0.251 A 
ATOM     16  N   UNL     1      -2.069  -0.270  24.482  0.00  0.00    -0.190 NA
BRANCH  15  17
ATOM     17  C   UNL     1      -3.133  -1.282  24.563  0.00  0.00    +0.138 C 
ATOM     18  C   UNL     1      -3.879  -0.984  24.377  0.00  0.00    +0.027 C 
ATOM     19  C   UNL     1      -4.335  -1.603  24.079  0.00  0.00    +0.019 C 
ATOM     20  C   UNL     1      -3.869  -2.285  24.080  0.00  0.00    +0.073 C 
ATOM     21  N   UNL     1      -3.127  -2.086  24.379  0.00  0.00    -0.265 NA
ATOM     22  C   UNL     1      -2.490  -2.601  24.477  0.00  0.00    +0.090 C 
ENDBRANCH  15  17
ENDBRANCH   8  12
BRANCH   6   5
ATOM      5  N   UNL     1      -0.492   2.660  25.404  0.00  0.00    -0.218 NA
BRANCH   5   4
ATOM      4  C   UNL     1      -0.734   3.321  24.971  0.00  0.00    +0.146 C 
BRANCH   4   3
ATOM      3  C   UNL     1      -0.926   4.021  25.362  0.00  0.00    +0.166 C 
BRANCH   3   2
ATOM      1  C   UNL     1      -1.451   5.316  25.063  0.00  0.00    +0.174 C 
ATOM      2  O   UNL     1      -0.865   4.743  24.967  0.00  0.00    -0.349 OA
ENDBRANCH   3   2
ENDBRANCH   4   3
ENDBRANCH   5   4
ENDBRANCH   6   5
TORSDOF 6
ENDMDL
MODEL 5
REMARK VINA RESULT:      -8.2      2.641      3.664
REMARK  Name = 
REMARK  6 active torsions:
REMARK  status: ('A' for Active; 'I' for Inactive)
REMARK    1  A    between atoms: O_2  and  C_3
REMARK    2  A    between atoms: C_3  and  C_4
REMARK    3  A    between atoms: C_4  and  N_5
REMARK    4  A    between atoms: N_5  and  C_6
REMARK    5  A    between atoms: C_8  and  C_12
REMARK    6  A    between atoms: C_15  and  C_17
REMARK                            x       y       z     vdW  Elec       q    Type
REMARK                         _______ _______ _______ _____ _____    ______ ____
ROOT
ATOM      6  C   UNL     1      -2.425   4.082  25.690  0.00  0.00    +0.148 A 
ATOM      7  C   UNL     1      -1.968   3.396  25.632  0.00  0.00    +0.039 A 
ATOM      8  C   UNL     1      -1.203   3.436  25.327  0.00  0.00    +0.043 A 
ATOM      9  C   UNL     1      -0.894   4.159  25.080  0.00  0.00    +0.024 A 
ATOM     10  C   UNL     1      -1.349   4.844  25.138  0.00  0.00    +0.100 A 
ATOM     11  N   UNL     1      -2.116   4.805  25.443  0.00  0.00    -0.228 NA
ENDROOT
BRANCH   8  12
ATOM     12  C   UNL     1      -0.746   2.750  25.269  0.00  0.00    +0.203 A 
ATOM     13  N   UNL     1      -0.108   2.551  25.752  0.00  0.00    -0.056 NA
ATOM     14  O   UNL     1       0.184   1.822  25.500  0.00  0.00    -0.336 OA
ATOM     15  C   UNL     1      -0.274   1.571  24.862  0.00  0.00    +0.251 A 
ATOM     16  N   UNL     1      -0.850   2.145  24.719  0.00  0.00    -0.190 NA
BRANCH  15  17
ATOM     17  C   UNL     1      -0.175   0.868  24.440  0.00  0.00    +0.138 C 
ATOM     18  C   UNL     1       0.245   0.782  23.735  0.00  0.00    +0.027 C 
ATOM     19  C   UNL     1       0.202  -0.010  23.507  0.00  0.00    +0.019 C 
ATOM     20  C   UNL     1      -0.246  -0.412  24.071  0.00  0.00    +0.073 C 
ATOM     21  N   UNL     1      -0.478   0.130  24.647  0.00  0.00    -0.265 NA
ATOM     22  C   UNL     1      -0.935  -0.037  25.314  0.00  0.00    +0.090 C 
ENDBRANCH  15  17
ENDBRANCH   8  12
BRANCH   6   5
ATOM      5  N   UNL     1      -3.190   4.043  25.995  0.00  0.00    -0.218 NA
BRANCH   5   4
ATOM      4  C   UNL     1      -3.814   3.801  25.511  0.00  0.00    +0.146 C 
BRANCH   4   3
ATOM      3  C   UNL     1      -4.538   3.592  25.847  0.00  0.00    +0.166 C 
BRANCH   3   2
ATOM      1  C   UNL     1      -5.727   2.844  25.583  0.00  0.00    +0.174 C 
ATOM      2  O   UNL     1      -5.184   3.425  25.362  0.00  0.00    -0.349 OA
ENDBRANCH   3   2
ENDBRANCH   4   3
ENDBRANCH   5   4
ENDBRANCH   6   5
TORSDOF 6
ENDMDL
MODEL 6
REMARK VINA RESULT:      -8.1      2.252      4.286
REMARK  Name = 
REMARK  6 active torsions:
REMARK  status: ('A' for Active; 'I' for Inactive)
REMARK    1  A    between atoms: O_2  and  C_3
REMARK    2  A    between atoms: C_3  and  C_4
REMARK    3  A    between atoms: C_4  and  N_5
REMARK    4  A    between atoms: N_5  and  C_6
REMARK    5  A    between atoms: C_8  and  C_12
REMARK    6  A    between atoms: C_15  and  C_17
REMARK                            x       y       z     vdW  Elec       q    Type
REMARK                         _______ _______ _______ _____ _____    ______ ____
ROOT
ATOM      6  C   UNL     1      -0.910   1.306  24.064  0.00  0.00    +0.148 A 
ATOM      7  C   UNL     1      -1.719   1.466  24.031  0.00  0.00    +0.039 A 
ATOM      8  C   UNL     1      -1.992   2.235  24.154  0.00  0.00    +0.043 A 
ATOM      9  C   UNL     1      -1.458   2.842  24.310  0.00  0.00    +0.024 A 
ATOM     10  C   UNL     1      -0.649   2.683  24.343  0.00  0.00    +0.100 A 
ATOM     11  N   UNL     1      -0.375   1.914  24.219  0.00  0.00    -0.228 NA
ENDROOT
BRANCH   8  12
ATOM     12  C   UNL     1      -2.801   2.395  24.122  0.00  0.00    +0.203 A 
ATOM     13  N   UNL     1      -3.198   2.765  23.501  0.00  0.00    -0.056 NA
ATOM     14  O   UNL     1      -3.997   2.812  23.700  0.00  0.00    -0.336 OA
ATOM     15  C   UNL     1      -4.094   2.470  24.444  0.00  0.00    +0.251 A 
ATOM     16  N   UNL     1      -3.355   2.212  24.705  0.00  0.00    -0.190 NA
BRANCH  15  17
ATOM     17  C   UNL     1      -4.806   2.399  24.856  0.00  0.00    +0.138 C 
ATOM     18  C   UNL     1      -5.306   1.743  24.848  0.00  0.00    +0.027 C 
ATOM     19  C   UNL     1      -5.951   1.908  25.335  0.00  0.00    +0.019 C 
ATOM     20  C   UNL     1      -5.849   2.666  25.644  0.00  0.00    +0.073 C 
ATOM     21  N   UNL     1      -5.142   2.969  25.348  0.00  0.00    -0.265 NA
ATOM     22  C   UNL     1      -4.825   3.712  25.515  0.00  0.00    +0.090 C 
ENDBRANCH  15  17
ENDBRANCH   8  12
BRANCH   6   5
ATOM      5  N   UNL     1      -0.637   0.538  23.940  0.00  0.00    -0.218 NA
BRANCH   5   4
ATOM      4  C   UNL     1      -0.560   0.020  24.579  0.00  0.00    +0.146 C 
BRANCH   4   3
ATOM      3  C   UNL     1      -0.439  -0.785  24.444  0.00  0.00    +0.166 C 
BRANCH   3   2
ATOM      1  C   UNL     1      -0.738  -2.020  25.098  0.00  0.00    +0.174 C 
ATOM      2  O   UNL     1      -0.338  -1.298  25.082  0.00  0.00    -0.349 OA
ENDBRANCH   3   2
ENDBRANCH   4   3
ENDBRANCH   5   4
ENDBRANCH   6   5
TORSDOF 6
ENDMDL
MODEL 7
REMARK VINA RESULT:      -8.1      1.980      4.249
REMARK  Name = 
REMARK  6 active torsions:
REMARK  status: ('A' for Active; 'I' for Inactive)
REMARK    1  A    between atoms: O_2  and  C_3
REMARK    2  A    between atoms: C_3  and  C_4
REMARK    3  A    between atoms: C_4  and  N_5
REMARK    4  A    between atoms: N_5  and  C_6
REMARK    5  A    between atoms: C_8  and  C_12
REMARK    6  A    between atoms: C_15  and  C_17
REMARK                            x       y       z     vdW  Elec       q    Type
REMARK                         _______ _______ _______ _____ _____    ______ ____
ROOT
ATOM      6  C   UNL     1      -1.383  -0.354  24.648  0.00  0.00    +0.148 A 
ATOM      7  C   UNL     1      -1.951   0.231  24.519  0.00  0.00    +0.039 A 
ATOM      8  C   UNL     1      -2.750   0.061  24.636  0.00  0.00    +0.043 A 
ATOM      9  C   UNL     1      -2.980  -0.692  24.880  0.00  0.00    +0.024 A 
ATOM     10  C   UNL     1      -2.413  -1.276  25.009  0.00  0.00    +0.100 A 
ATOM     11  N   UNL     1      -1.613  -1.106  24.893  0.00  0.00    -0.228 NA
ENDROOT
BRANCH   8  12
ATOM     12  C   UNL     1      -3.319   0.645  24.507  0.00  0.00    +0.203 A 
ATOM     13  N   UNL     1      -3.586   0.908  23.773  0.00  0.00    -0.056 NA
ATOM     14  O   UNL     1      -4.152   1.495  23.902  0.00  0.00    -0.336 OA
ATOM     15  C   UNL     1      -4.234   1.593  24.716  0.00  0.00    +0.251 A 
ATOM     16  N   UNL     1      -3.719   1.068  25.091  0.00  0.00    -0.190 NA
BRANCH  15  17
ATOM     17  C   UNL     1      -4.742   2.125  25.092  0.00  0.00    +0.138 C 
ATOM     18  C   UNL     1      -5.475   1.941  25.424  0.00  0.00    +0.027 C 
ATOM     19  C   UNL     1      -5.793   2.634  25.739  0.00  0.00    +0.019 C 
ATOM     20  C   UNL     1      -5.256   3.246  25.601  0.00  0.00    +0.073 C 
ATOM     21  N   UNL     1      -4.608   2.931  25.202  0.00  0.00    -0.265 NA
ATOM     22  C   UNL     1      -3.940   3.349  24.955  0.00  0.00    +0.090 C 
ENDBRANCH  15  17
ENDBRANCH   8  12
BRANCH   6   5
ATOM      5  N   UNL     1      -0.584  -0.184  24.532  0.00  0.00    -0.218 NA
BRANCH   5   4
ATOM      4  C   UNL     1      -0.214  -0.405  23.828  0.00  0.00    +0.146 C 
BRANCH   4   3
ATOM      3  C   UNL     1       0.521  -0.087  23.631  0.00  0.00    +0.166 C 
BRANCH   3   2
ATOM      1  C   UNL     1       1.617   0.025  22.720  0.00  0.00    +0.174 C 
ATOM      2  O   UNL     1       0.899  -0.322  22.937  0.00  0.00    -0.349 OA
ENDBRANCH   3   2
ENDBRANCH   4   3
ENDBRANCH   5   4
ENDBRANCH   6   5
TORSDOF 6
ENDMDL
