MODEL 1
REMARK VINA RESULT:     -10.5      0.000      0.000
REMARK  Name = 
REMARK  5 active torsions:
REMARK  status: ('A' for Active; 'I' for Inactive)
REMARK    1  A    between atoms: C_4  and  C_15
REMARK    2  A    between atoms: C_6  and  C_8
REMARK    3  A    between atoms: C_22  and  C_23
REMARK    4  A    between atoms: C_23  and  N_24
REMARK    5  A    between atoms: N_27  and  C_28
REMARK                            x       y       z     vdW  Elec       q    Type
REMARK                         _______ _______ _______ _____ _____    ______ ____
ROOT
ATOM     15  C   UNL     1      -1.574   0.712  24.283  0.00  0.00    +0.056 C 
ATOM     16  C   UNL     1      -1.006   0.433  24.736  0.00  0.00    +0.078 C 
ATOM     17  N   UNL     1      -0.908   0.916  24.074  0.00  0.00    -0.272 NA
ATOM     18  C   UNL     1      -1.864   1.113  23.691  0.00  0.00    +0.072 C 
ATOM     19  C   UNL     1      -2.251   1.399  23.249  0.00  0.00    +0.018 C 
ATOM     20  C   UNL     1      -1.470   1.186  23.635  0.00  0.00    +0.010 C 
ATOM     21  C   UNL     1      -0.750   1.516  23.257  0.00  0.00    +0.018 C 
ATOM     22  C   UNL     1      -0.164   1.264  23.676  0.00  0.00    +0.079 C 
ENDROOT
BRANCH  15   4
ATOM      1  C   UNL     1      -4.152   1.445  25.275  0.00  0.00    +0.074 C 
ATOM      2  C   UNL     1      -3.638   0.873  24.976  0.00  0.00    +0.139 A 
ATOM      3  N   UNL     1      -2.864   1.078  24.779  0.00  0.00    -0.235 NA
ATOM      4  C   UNL     1      -2.349   0.506  24.480  0.00  0.00    +0.063 A 
ATOM      5  C   UNL     1      -2.609  -0.269  24.377  0.00  0.00    +0.034 A 
ATOM      6  C   UNL     1      -3.383  -0.474  24.573  0.00  0.00    +0.084 A 
ATOM      7  N   UNL     1      -3.898   0.097  24.873  0.00  0.00    -0.231 NA
BRANCH   6   8
ATOM      8  C   UNL     1      -3.644  -1.250  24.471  0.00  0.00    +0.024 A 
ATOM      9  C   UNL     1      -3.540  -1.803  25.074  0.00  0.00    +0.036 A 
ATOM     10 BR   UNL     1      -3.176  -1.580  25.780  0.00  0.00    -0.049 Br
ATOM     11  C   UNL     1      -3.801  -2.579  24.973  0.00  0.00    +0.007 A 
ATOM     12  C   UNL     1      -4.165  -2.802  24.266  0.00  0.00    +0.001 A 
ATOM     13  C   UNL     1      -4.269  -2.250  23.664  0.00  0.00    +0.000 A 
ATOM     14  C   UNL     1      -4.008  -1.473  23.765  0.00  0.00    +0.002 A 
ENDBRANCH   6   8
ENDBRANCH  15   4
BRANCH  22  23
ATOM     23  C   UNL     1       0.658   1.290  23.734  0.00  0.00    +0.133 C 
BRANCH  23  24
ATOM     24  N   UNL     1       1.121   0.817  23.241  0.00  0.00    -0.186 NA
ATOM     25  C   UNL     1       1.942   0.824  23.314  0.00  0.00    +0.339 C 
ATOM     26  O   UNL     1       2.301   1.304  23.881  0.00  0.00    -0.249 OA
ATOM     27  N   UNL     1       2.405   0.352  22.821  0.00  0.00    -0.189 NA
BRANCH  27  28
ATOM     28  C   UNL     1       3.227   0.360  22.895  0.00  0.00    +0.097 C 
ATOM     29  C   UNL     1       3.664   0.984  22.579  0.00  0.00    +0.022 C 
ATOM     30  C   UNL     1       4.486   0.991  22.653  0.00  0.00    +0.002 C 
ATOM     31  C   UNL     1       4.871   0.375  23.044  0.00  0.00    +0.000 C 
ATOM     32  C   UNL     1       4.434  -0.249  23.360  0.00  0.00    +0.002 C 
ATOM     33  C   UNL     1       3.612  -0.257  23.286  0.00  0.00    +0.022 C 
ENDBRANCH  27  28
ENDBRANCH  23  24
ENDBRANCH  22  23
TORSDOF 5
ENDMDL
MODEL 2
REMARK VINA RESULT:      -9.6      1.241      2.555
REMARK  Name = 
REMARK  5 active torsions:
REMARK  status: ('A' for Active; 'I' for Inactive)
REMARK    1  A    between atoms: C_4  and  C_15
REMARK    2  A    between atoms: C_6  and  C_8
REMARK    3  A    between atoms: C_22  and  C_23
REMARK    4  A    between atoms: C_23  and  N_24
REMARK    5  A    between atoms: N_27  and  C_28
REMARK                            x       y       z     vdW  Elec       q    Type
REMARK                         _______ _______ _______ _____ _____    ______ ____
ROOT
ATOM     15  C   UNL     1      -1.851   0.864  24.099  0.00  0.00    +0.056 C 
ATOM     16  C   UNL     1      -1.592   1.307  23.514  0.00  0.00    +0.078 C 
ATOM     17  N   UNL     1      -1.127   0.880  24.046  0.00  0.00    -0.272 NA
ATOM     18  C   UNL     1      -1.779   0.392  24.706  0.00  0.00    +0.072 C 
ATOM     19  C   UNL     1      -1.880  -0.000  25.218  0.00  0.00    +0.018 C 
ATOM     20  C   UNL     1      -1.388   0.448  24.617  0.00  0.00    +0.010 C 
ATOM     21  C   UNL     1      -0.518   0.362  24.689  0.00  0.00    +0.018 C 
ATOM     22  C   UNL     1      -0.223   0.786  24.127  0.00  0.00    +0.079 C 
ENDROOT
BRANCH  15   4
ATOM      1  C   UNL     1      -4.279  -0.637  23.934  0.00  0.00    +0.074 C 
ATOM      2  C   UNL     1      -3.883   0.063  24.118  0.00  0.00    +0.139 A 
ATOM      3  N   UNL     1      -3.066   0.114  24.017  0.00  0.00    -0.235 NA
ATOM      4  C   UNL     1      -2.670   0.814  24.201  0.00  0.00    +0.063 A 
ATOM      5  C   UNL     1      -3.090   1.463  24.486  0.00  0.00    +0.034 A 
ATOM      6  C   UNL     1      -3.907   1.412  24.588  0.00  0.00    +0.084 A 
ATOM      7  N   UNL     1      -4.304   0.713  24.404  0.00  0.00    -0.231 NA
BRANCH   6   8
ATOM      8  C   UNL     1      -4.328   2.062  24.874  0.00  0.00    +0.024 A 
ATOM      9  C   UNL     1      -4.498   2.696  24.373  0.00  0.00    +0.036 A 
ATOM     10 BR   UNL     1      -4.246   2.680  23.588  0.00  0.00    -0.049 Br
ATOM     11  C   UNL     1      -4.919   3.345  24.658  0.00  0.00    +0.007 A 
ATOM     12  C   UNL     1      -5.171   3.360  25.444  0.00  0.00    +0.001 A 
ATOM     13  C   UNL     1      -5.002   2.727  25.944  0.00  0.00    +0.000 A 
ATOM     14  C   UNL     1      -4.580   2.077  25.659  0.00  0.00    +0.002 A 
ENDBRANCH   6   8
ENDBRANCH  15   4
BRANCH  22  23
ATOM     23  C   UNL     1       0.493   1.020  23.791  0.00  0.00    +0.133 C 
BRANCH  23  24
ATOM     24  N   UNL     1       0.977   0.464  23.423  0.00  0.00    -0.186 NA
ATOM     25  C   UNL     1       1.787   0.604  23.351  0.00  0.00    +0.339 C 
ATOM     26  O   UNL     1       2.112   1.302  23.647  0.00  0.00    -0.249 OA
ATOM     27  N   UNL     1       2.272   0.047  22.982  0.00  0.00    -0.189 NA
BRANCH  27  28
ATOM     28  C   UNL     1       3.081   0.188  22.911  0.00  0.00    +0.097 C 
ATOM     29  C   UNL     1       3.355   0.764  22.388  0.00  0.00    +0.022 C 
ATOM     30  C   UNL     1       4.165   0.905  22.316  0.00  0.00    +0.002 C 
ATOM     31  C   UNL     1       4.701   0.470  22.767  0.00  0.00    +0.000 C 
ATOM     32  C   UNL     1       4.428  -0.107  23.290  0.00  0.00    +0.002 C 
ATOM     33  C   UNL     1       3.618  -0.248  23.362  0.00  0.00    +0.022 C 
ENDBRANCH  27  28
ENDBRANCH  23  24
ENDBRANCH  22  23
TORSDOF 5
ENDMDL
MODEL 3
REMARK VINA RESULT:      -9.1      1.968      2.677
REMARK  Name = 
REMARK  5 active torsions:
REMARK  status: ('A' for Active; 'I' for Inactive)
REMARK    1  A    between atoms: C_4  and  C_15
REMARK    2  A    between atoms: C_6  and  C_8
REMARK    3  A    between atoms: C_22  and  C_23
REMARK    4  A    between atoms: C_23  and  N_24
REMARK    5  A    between atoms: N_27  and  C_28
REMARK                            x       y       z     vdW  Elec       q    Type
REMARK                         _______ _______ _______ _____ _____    ______ ____
ROOT
ATOM     15  C   UNL     1      -2.062   1.896  23.752  0.00  0.00    +0.056 C 
ATOM     16  C   UNL     1      -1.477   2.329  24.028  0.00  0.00    +0.078 C 
ATOM     17  N   UNL     1      -1.426   1.546  23.774  0.00  0.00    -0.272 NA
ATOM     18  C   UNL     1      -2.384   1.257  23.464  0.00  0.00    +0.072 C 
ATOM     19  C   UNL     1      -2.791   0.807  23.221  0.00  0.00    +0.018 C 
ATOM     20  C   UNL     1      -2.003   1.127  23.505  0.00  0.00    +0.010 C 
ATOM     21  C   UNL     1      -1.325   0.572  23.467  0.00  0.00    +0.018 C 
ATOM     22  C   UNL     1      -0.725   0.962  23.733  0.00  0.00    +0.079 C 
ENDROOT
BRANCH  15   4
ATOM      1  C   UNL     1      -3.953   3.510  22.340  0.00  0.00    +0.074 C 
ATOM      2  C   UNL     1      -3.751   3.058  23.000  0.00  0.00    +0.139 A 
ATOM      3  N   UNL     1      -3.008   2.704  23.046  0.00  0.00    -0.235 NA
ATOM      4  C   UNL     1      -2.806   2.251  23.706  0.00  0.00    +0.063 A 
ATOM      5  C   UNL     1      -3.347   2.154  24.320  0.00  0.00    +0.034 A 
ATOM      6  C   UNL     1      -4.091   2.508  24.275  0.00  0.00    +0.084 A 
ATOM      7  N   UNL     1      -4.293   2.960  23.615  0.00  0.00    -0.231 NA
BRANCH   6   8
ATOM      8  C   UNL     1      -4.633   2.411  24.889  0.00  0.00    +0.024 A 
ATOM      9  C   UNL     1      -4.708   2.993  25.468  0.00  0.00    +0.036 A 
ATOM     10 BR   UNL     1      -4.242   3.672  25.433  0.00  0.00    -0.049 Br
ATOM     11  C   UNL     1      -5.251   2.897  26.083  0.00  0.00    +0.007 A 
ATOM     12  C   UNL     1      -5.718   2.217  26.117  0.00  0.00    +0.001 A 
ATOM     13  C   UNL     1      -5.642   1.635  25.538  0.00  0.00    +0.000 A 
ATOM     14  C   UNL     1      -5.100   1.732  24.924  0.00  0.00    +0.002 A 
ENDBRANCH   6   8
ENDBRANCH  15   4
BRANCH  22  23
ATOM     23  C   UNL     1       0.082   0.896  23.889  0.00  0.00    +0.133 C 
BRANCH  23  24
ATOM     24  N   UNL     1       0.565   0.459  23.383  0.00  0.00    -0.186 NA
ATOM     25  C   UNL     1       1.381   0.575  23.389  0.00  0.00    +0.339 C 
ATOM     26  O   UNL     1       1.715   1.129  23.901  0.00  0.00    -0.249 OA
ATOM     27  N   UNL     1       1.865   0.138  22.883  0.00  0.00    -0.189 NA
BRANCH  27  28
ATOM     28  C   UNL     1       2.682   0.255  22.889  0.00  0.00    +0.097 C 
ATOM     29  C   UNL     1       2.998   0.972  22.631  0.00  0.00    +0.022 C 
ATOM     30  C   UNL     1       3.814   1.089  22.638  0.00  0.00    +0.002 C 
ATOM     31  C   UNL     1       4.315   0.489  22.902  0.00  0.00    +0.000 C 
ATOM     32  C   UNL     1       3.999  -0.228  23.160  0.00  0.00    +0.002 C 
ATOM     33  C   UNL     1       3.182  -0.345  23.154  0.00  0.00    +0.022 C 
ENDBRANCH  27  28
ENDBRANCH  23  24
ENDBRANCH  22  23
TORSDOF 5
ENDMDL
MODEL 4
REMARK VINA RESULT:      -8.7      2.907      5.084
REMARK  Name = 
REMARK  5 active torsions:
REMARK  status: ('A' for Active; 'I' for Inactive)
REMARK    1  A    between atoms: C_4  and  C_15
REMARK    2  A    between atoms: C_6  and  C_8
REMARK    3  A    between atoms: C_22  and  C_23
REMARK    4  A    between atoms: C_23  and  N_24
REMARK    5  A    between atoms: N_27  and  C_28
REMARK                            x       y       z     vdW  Elec       q    Type
REMARK                         _______ _______ _______ _____ _____    ______ ____
ROOT
ATOM     15  C   UNL     1      -1.297   2.131  24.901  0.00  0.00    +0.056 C 
ATOM     16  C   UNL     1      -1.529   1.713  24.286  0.00  0.00    +0.078 C 
ATOM     17  N   UNL     1      -1.000   1.468  24.871  0.00  0.00    -0.272 NA
ATOM     18  C   UNL     1      -0.902   2.260  25.552  0.00  0.00    +0.072 C 
ATOM     19  C   UNL     1      -0.642   2.513  26.095  0.00  0.00    +0.018 C 
ATOM     20  C   UNL     1      -0.778   1.883  25.471  0.00  0.00    +0.010 C 
ATOM     21  C   UNL     1      -0.340   1.130  25.581  0.00  0.00    +0.018 C 
ATOM     22  C   UNL     1      -0.542   0.688  24.992  0.00  0.00    +0.079 C 
ENDROOT
BRANCH  15   4
ATOM      1  C   UNL     1      -0.931   4.966  24.890  0.00  0.00    +0.074 C 
ATOM      2  C   UNL     1      -1.424   4.310  24.973  0.00  0.00    +0.139 A 
ATOM      3  N   UNL     1      -1.114   3.549  24.895  0.00  0.00    -0.235 NA
ATOM      4  C   UNL     1      -1.607   2.893  24.979  0.00  0.00    +0.063 A 
ATOM      5  C   UNL     1      -2.409   2.996  25.140  0.00  0.00    +0.034 A 
ATOM      6  C   UNL     1      -2.719   3.757  25.217  0.00  0.00    +0.084 A 
ATOM      7  N   UNL     1      -2.227   4.414  25.134  0.00  0.00    -0.231 NA
BRANCH   6   8
ATOM      8  C   UNL     1      -3.521   3.862  25.378  0.00  0.00    +0.024 A 
ATOM      9  C   UNL     1      -4.064   3.903  24.758  0.00  0.00    +0.036 A 
ATOM     10 BR   UNL     1      -3.804   3.839  23.978  0.00  0.00    -0.049 Br
ATOM     11  C   UNL     1      -4.867   4.008  24.918  0.00  0.00    +0.007 A 
ATOM     12  C   UNL     1      -5.126   4.072  25.699  0.00  0.00    +0.001 A 
ATOM     13  C   UNL     1      -4.584   4.030  26.318  0.00  0.00    +0.000 A 
ATOM     14  C   UNL     1      -3.781   3.925  26.158  0.00  0.00    +0.002 A 
ENDBRANCH   6   8
ENDBRANCH  15   4
BRANCH  22  23
ATOM     23  C   UNL     1      -0.418  -0.056  24.660  0.00  0.00    +0.133 C 
BRANCH  23  24
ATOM     24  N   UNL     1      -0.682  -0.732  25.054  0.00  0.00    -0.186 NA
ATOM     25  C   UNL     1      -1.305  -1.174  24.743  0.00  0.00    +0.339 C 
ATOM     26  O   UNL     1      -1.664  -0.941  24.038  0.00  0.00    -0.249 OA
ATOM     27  N   UNL     1      -1.569  -1.849  25.136  0.00  0.00    -0.189 NA
BRANCH  27  28
ATOM     28  C   UNL     1      -2.192  -2.291  24.824  0.00  0.00    +0.097 C 
ATOM     29  C   UNL     1      -2.968  -2.127  25.051  0.00  0.00    +0.022 C 
ATOM     30  C   UNL     1      -3.591  -2.569  24.739  0.00  0.00    +0.002 C 
ATOM     31  C   UNL     1      -3.439  -3.175  24.201  0.00  0.00    +0.000 C 
ATOM     32  C   UNL     1      -2.663  -3.339  23.974  0.00  0.00    +0.002 C 
ATOM     33  C   UNL     1      -2.039  -2.897  24.286  0.00  0.00    +0.022 C 
ENDBRANCH  27  28
ENDBRANCH  23  24
ENDBRANCH  22  23
TORSDOF 5
ENDMDL
MODEL 5
REMARK VINA RESULT:      -8.6      2.467      4.077
REMARK  Name = 
REMARK  5 active torsions:
REMARK  status: ('A' for Active; 'I' for Inactive)
REMARK    1  A    between atoms: C_4  and  C_15
REMARK    2  A    between atoms: C_6  and  C_8
REMARK    3  A    between atoms: C_22  and  C_23
REMARK    4  A    between atoms: C_23  and  N_24
REMARK    5  A    between atoms: N_27  and  C_28
REMARK                            x       y       z     vdW  Elec       q    Type
REMARK                         _______ _______ _______ _____ _____    ______ ____
ROOT
ATOM     15  C   UNL     1      -0.615  -0.181  24.804  0.00  0.00    +0.056 C 
ATOM     16  C   UNL     1      -0.811   0.326  25.360  0.00  0.00    +0.078 C 
ATOM     17  N   UNL     1      -0.354   0.488  24.691  0.00  0.00    -0.272 NA
ATOM     18  C   UNL     1      -0.277  -0.405  24.147  0.00  0.00    +0.072 C 
ATOM     19  C   UNL     1      -0.056  -0.738  23.630  0.00  0.00    +0.018 C 
ATOM     20  C   UNL     1      -0.167  -0.016  24.150  0.00  0.00    +0.010 C 
ATOM     21  C   UNL     1       0.216   0.723  23.872  0.00  0.00    +0.018 C 
ATOM     22  C   UNL     1       0.046   1.252  24.396  0.00  0.00    +0.079 C 
ENDROOT
BRANCH  15   4
ATOM      1  C   UNL     1      -0.150  -2.905  25.537  0.00  0.00    +0.074 C 
ATOM      2  C   UNL     1      -0.656  -2.318  25.253  0.00  0.00    +0.139 A 
ATOM      3  N   UNL     1      -0.383  -1.544  25.170  0.00  0.00    -0.235 NA
ATOM      4  C   UNL     1      -0.889  -0.957  24.887  0.00  0.00    +0.063 A 
ATOM      5  C   UNL     1      -1.667  -1.143  24.687  0.00  0.00    +0.034 A 
ATOM      6  C   UNL     1      -1.939  -1.917  24.770  0.00  0.00    +0.084 A 
ATOM      7  N   UNL     1      -1.435  -2.504  25.053  0.00  0.00    -0.231 NA
BRANCH   6   8
ATOM      8  C   UNL     1      -2.718  -2.104  24.570  0.00  0.00    +0.024 A 
ATOM      9  C   UNL     1      -3.328  -1.955  25.104  0.00  0.00    +0.036 A 
ATOM     10 BR   UNL     1      -3.160  -1.619  25.839  0.00  0.00    -0.049 Br
ATOM     11  C   UNL     1      -4.107  -2.142  24.905  0.00  0.00    +0.007 A 
ATOM     12  C   UNL     1      -4.274  -2.478  24.170  0.00  0.00    +0.001 A 
ATOM     13  C   UNL     1      -3.664  -2.627  23.636  0.00  0.00    +0.000 A 
ATOM     14  C   UNL     1      -2.886  -2.440  23.835  0.00  0.00    +0.002 A 
ENDBRANCH   6   8
ENDBRANCH  15   4
BRANCH  22  23
ATOM     23  C   UNL     1       0.160   2.047  24.583  0.00  0.00    +0.133 C 
BRANCH  23  24
ATOM     24  N   UNL     1      -0.266   2.629  24.183  0.00  0.00    -0.186 NA
ATOM     25  C   UNL     1      -0.581   3.269  24.597  0.00  0.00    +0.339 C 
ATOM     26  O   UNL     1      -0.471   3.326  25.413  0.00  0.00    -0.249 OA
ATOM     27  N   UNL     1      -1.007   3.851  24.197  0.00  0.00    -0.189 NA
BRANCH  27  28
ATOM     28  C   UNL     1      -1.322   4.491  24.612  0.00  0.00    +0.097 C 
ATOM     29  C   UNL     1      -2.023   4.401  25.037  0.00  0.00    +0.022 C 
ATOM     30  C   UNL     1      -2.338   5.041  25.453  0.00  0.00    +0.002 C 
ATOM     31  C   UNL     1      -1.953   5.770  25.442  0.00  0.00    +0.000 C 
ATOM     32  C   UNL     1      -1.252   5.860  25.017  0.00  0.00    +0.002 C 
ATOM     33  C   UNL     1      -0.936   5.220  24.602  0.00  0.00    +0.022 C 
ENDBRANCH  27  28
ENDBRANCH  23  24
ENDBRANCH  22  23
TORSDOF 5
ENDMDL
MODEL 6
REMARK VINA RESULT:      -8.6      3.361      4.606
REMARK  Name = 
REMARK  5 active torsions:
REMARK  status: ('A' for Active; 'I' for Inactive)
REMARK    1  A    between atoms: C_4  and  C_15
REMARK    2  A    between atoms: C_6  and  C_8
REMARK    3  A    between atoms: C_22  and  C_23
REMARK    4  A    between atoms: C_23  and  N_24
REMARK    5  A    between atoms: N_27  and  C_28
REMARK                            x       y       z     vdW  Elec       q    Type
REMARK                         _______ _______ _______ _____ _____    ______ ____
ROOT
ATOM     15  C   UNL     1      -3.864   0.495  24.407  0.00  0.00    +0.056 C 
ATOM     16  C   UNL     1      -3.453   0.988  23.967  0.00  0.00    +0.078 C 
ATOM     17  N   UNL     1      -4.005   1.195  24.544  0.00  0.00    -0.272 NA
ATOM     18  C   UNL     1      -4.377   0.303  24.951  0.00  0.00    +0.072 C 
ATOM     19  C   UNL     1      -4.769  -0.010  25.369  0.00  0.00    +0.018 C 
ATOM     20  C   UNL     1      -4.404   0.706  24.973  0.00  0.00    +0.010 C 
ATOM     21  C   UNL     1      -4.684   1.488  25.255  0.00  0.00    +0.018 C 
ATOM     22  C   UNL     1      -4.301   2.005  24.843  0.00  0.00    +0.079 C 
ENDROOT
BRANCH  15   4
ATOM      1  C   UNL     1      -4.813  -2.054  23.528  0.00  0.00    +0.074 C 
ATOM      2  C   UNL     1      -4.213  -1.587  23.849  0.00  0.00    +0.139 A 
ATOM      3  N   UNL     1      -4.338  -0.780  23.967  0.00  0.00    -0.235 NA
ATOM      4  C   UNL     1      -3.739  -0.313  24.289  0.00  0.00    +0.063 A 
ATOM      5  C   UNL     1      -3.015  -0.651  24.491  0.00  0.00    +0.034 A 
ATOM      6  C   UNL     1      -2.890  -1.458  24.372  0.00  0.00    +0.084 A 
ATOM      7  N   UNL     1      -3.489  -1.926  24.051  0.00  0.00    -0.231 NA
BRANCH   6   8
ATOM      8  C   UNL     1      -2.166  -1.798  24.575  0.00  0.00    +0.024 A 
ATOM      9  C   UNL     1      -2.142  -2.435  25.099  0.00  0.00    +0.036 A 
ATOM     10 BR   UNL     1      -2.841  -2.731  25.421  0.00  0.00    -0.049 Br
ATOM     11  C   UNL     1      -1.418  -2.775  25.302  0.00  0.00    +0.007 A 
ATOM     12  C   UNL     1      -0.718  -2.479  24.980  0.00  0.00    +0.001 A 
ATOM     13  C   UNL     1      -0.743  -1.843  24.456  0.00  0.00    +0.000 A 
ATOM     14  C   UNL     1      -1.467  -1.502  24.253  0.00  0.00    +0.002 A 
ENDBRANCH   6   8
ENDBRANCH  15   4
BRANCH  22  23
ATOM     23  C   UNL     1      -4.209   2.817  24.733  0.00  0.00    +0.133 C 
BRANCH  23  24
ATOM     24  N   UNL     1      -3.778   3.260  25.279  0.00  0.00    -0.186 NA
ATOM     25  C   UNL     1      -3.133   3.708  25.030  0.00  0.00    +0.339 C 
ATOM     26  O   UNL     1      -2.917   3.713  24.233  0.00  0.00    -0.249 OA
ATOM     27  N   UNL     1      -2.702   4.152  25.576  0.00  0.00    -0.189 NA
BRANCH  27  28
ATOM     28  C   UNL     1      -2.055   4.600  25.325  0.00  0.00    +0.097 C 
ATOM     29  C   UNL     1      -1.328   4.235  25.190  0.00  0.00    +0.022 C 
ATOM     30  C   UNL     1      -0.682   4.683  24.939  0.00  0.00    +0.002 C 
ATOM     31  C   UNL     1      -0.763   5.496  24.824  0.00  0.00    +0.000 C 
ATOM     32  C   UNL     1      -1.491   5.861  24.959  0.00  0.00    +0.002 C 
ATOM     33  C   UNL     1      -2.137   5.413  25.209  0.00  0.00    +0.022 C 
ENDBRANCH  27  28
ENDBRANCH  23  24
ENDBRANCH  22  23
TORSDOF 5
ENDMDL
MODEL 7
REMARK VINA RESULT:      -8.4      3.919      5.991
REMARK  Name = 
REMARK  5 active torsions:
REMARK  status: ('A' for Active; 'I' for Inactive)
REMARK    1  A    between atoms: C_4  and  C_15
REMARK    2  A    between atoms: C_6  and  C_8
REMARK    3  A    between atoms: C_22  and  C_23
REMARK    4  A    between atoms: C_23  and  N_24
REMARK    5  A    between atoms: N_27  and  C_28
REMARK                            x       y       z     vdW  Elec       q    Type
REMARK                         _______ _______ _______ _____ _____    ______ ____
ROOT
ATOM     15  C   UNL     1      -3.654   2.525  25.195  0.00  0.00    +0.056 C 
ATOM     16  C   UNL     1      -3.228   1.874  25.166  0.00  0.00    +0.078 C 
ATOM     17  N   UNL     1      -3.996   1.968  24.877  0.00  0.00    -0.272 NA
ATOM     18  C   UNL     1      -4.281   2.958  25.072  0.00  0.00    +0.072 C 
ATOM     19  C   UNL     1      -4.723   3.439  25.041  0.00  0.00    +0.018 C 
ATOM     20  C   UNL     1      -4.407   2.609  24.910  0.00  0.00    +0.010 C 
ATOM     21  C   UNL     1      -4.950   2.049  24.508  0.00  0.00    +0.018 C 
ATOM     22  C   UNL     1      -4.566   1.391  24.459  0.00  0.00    +0.079 C 
ENDROOT
BRANCH  15   4
ATOM      1  C   UNL     1      -3.557   4.428  27.326  0.00  0.00    +0.074 C 
ATOM      2  C   UNL     1      -3.260   4.138  26.613  0.00  0.00    +0.139 A 
ATOM      3  N   UNL     1      -3.605   3.477  26.261  0.00  0.00    -0.235 NA
ATOM      4  C   UNL     1      -3.308   3.187  25.548  0.00  0.00    +0.063 A 
ATOM      5  C   UNL     1      -2.666   3.558  25.187  0.00  0.00    +0.034 A 
ATOM      6  C   UNL     1      -2.321   4.219  25.539  0.00  0.00    +0.084 A 
ATOM      7  N   UNL     1      -2.617   4.510  26.252  0.00  0.00    -0.231 NA
BRANCH   6   8
ATOM      8  C   UNL     1      -1.678   4.591  25.178  0.00  0.00    +0.024 A 
ATOM      9  C   UNL     1      -0.933   4.238  25.199  0.00  0.00    +0.036 A 
ATOM     10 BR   UNL     1      -0.830   3.513  25.580  0.00  0.00    -0.049 Br
ATOM     11  C   UNL     1      -0.290   4.609  24.839  0.00  0.00    +0.007 A 
ATOM     12  C   UNL     1      -0.393   5.334  24.458  0.00  0.00    +0.001 A 
ATOM     13  C   UNL     1      -1.138   5.686  24.437  0.00  0.00    +0.000 A 
ATOM     14  C   UNL     1      -1.781   5.315  24.797  0.00  0.00    +0.002 A 
ENDBRANCH   6   8
ENDBRANCH  15   4
BRANCH  22  23
ATOM     23  C   UNL     1      -4.629   0.615  24.188  0.00  0.00    +0.133 C 
BRANCH  23  24
ATOM     24  N   UNL     1      -4.496  -0.014  24.704  0.00  0.00    -0.186 NA
ATOM     25  C   UNL     1      -4.128  -0.701  24.433  0.00  0.00    +0.339 C 
ATOM     26  O   UNL     1      -3.892  -0.757  23.644  0.00  0.00    -0.249 OA
ATOM     27  N   UNL     1      -3.995  -1.330  24.950  0.00  0.00    -0.189 NA
BRANCH  27  28
ATOM     28  C   UNL     1      -3.626  -2.016  24.677  0.00  0.00    +0.097 C 
ATOM     29  C   UNL     1      -4.066  -2.592  24.283  0.00  0.00    +0.022 C 
ATOM     30  C   UNL     1      -3.697  -3.278  24.011  0.00  0.00    +0.002 C 
ATOM     31  C   UNL     1      -2.889  -3.389  24.133  0.00  0.00    +0.000 C 
ATOM     32  C   UNL     1      -2.449  -2.813  24.527  0.00  0.00    +0.002 C 
ATOM     33  C   UNL     1      -2.818  -2.126  24.800  0.00  0.00    +0.022 C 
ENDBRANCH  27  28
ENDBRANCH  23  24
ENDBRANCH  22  23
TORSDOF 5
ENDMDL
