MODEL 1
REMARK VINA RESULT:     -14.5      0.000      0.000
REMARK  Name = 
REMARK  5 active torsions:
REMARK  status: ('A' for Active; 'I' for Inactive)
REMARK    1  A    between atoms: C_2  and  C_5
REMARK    2  A    between atoms: C_14  and  C_16
REMARK    3  A    between atoms: C_24  and  C_25
REMARK    4  A    between atoms: C_25  and  C_26
REMARK    5  A    between atoms: N_28  and  C_29
REMARK                            x       y       z     vdW  Elec       q    Type
REMARK                         _______ _______ _______ _____ _____    ______ ____
ROOT
ATOM      5  C   UNL     1      -3.834  -1.631  24.481  0.00  0.00    +0.246 C 
ATOM      6  O   UNL     1      -4.491  -1.521  24.969  0.00  0.00    -0.273 OA
ATOM      7  N   UNL     1      -3.442  -0.978  24.165  0.00  0.00    -0.154 NA
ATOM      8  C   UNL     1      -3.705  -0.215  24.337  0.00  0.00    +0.185 A 
ATOM      9  N   UNL     1      -3.369   0.486  24.062  0.00  0.00    -0.227 NA
ATOM     10  C   UNL     1      -3.807   1.115  24.368  0.00  0.00    +0.063 A 
ATOM     11  C   UNL     1      -4.413   0.802  24.832  0.00  0.00    +0.023 A 
ATOM     12  C   UNL     1      -4.943   1.306  25.213  0.00  0.00    +0.034 C 
ATOM     13  C   UNL     1      -4.869   2.123  25.129  0.00  0.00    +0.010 C 
ATOM     14  C   UNL     1      -5.399   2.627  25.509  0.00  0.00    +0.059 C 
ATOM     15  C   UNL     1      -5.694   1.896  25.755  0.00  0.00    +0.005 C 
ATOM     18  C   UNL     1      -5.325   3.444  25.426  0.00  0.00    +0.154 C 
ATOM     19  O   UNL     1      -5.855   3.949  25.806  0.00  0.00    -0.223 OA
ATOM     20  C   UNL     1      -4.719   3.758  24.962  0.00  0.00    +0.033 C 
ATOM     21  C   UNL     1      -4.187   3.253  24.581  0.00  0.00    +0.003 C 
ATOM     22  C   UNL     1      -4.263   2.436  24.665  0.00  0.00    +0.006 C 
ATOM     23  C   UNL     1      -3.657   2.750  24.201  0.00  0.00    +0.000 C 
ATOM     24  C   UNL     1      -3.732   1.933  24.284  0.00  0.00    +0.050 C 
ATOM     36  S   UNL     1      -4.349  -0.021  24.813  0.00  0.00    -0.054 S 
ENDROOT
BRANCH   5   2
ATOM      1  C   UNL     1      -3.308  -3.157  24.138  0.00  0.00    +0.009 C 
ATOM      2  C   UNL     1      -3.571  -2.394  24.310  0.00  0.00    +0.071 C 
ATOM      3  C   UNL     1      -4.174  -2.477  23.753  0.00  0.00    +0.009 C 
ATOM      4  C   UNL     1      -2.968  -2.311  24.866  0.00  0.00    +0.009 C 
ENDBRANCH   5   2
BRANCH  14  16
ATOM     16  C   UNL     1      -6.033   2.877  25.975  0.00  0.00    +0.184 C 
ATOM     17  O   UNL     1      -6.341   2.380  26.556  0.00  0.00    -0.220 OA
ENDBRANCH  14  16
BRANCH  24  25
ATOM     25  C   UNL     1      -3.126   2.246  23.821  0.00  0.00    +0.093 C 
BRANCH  25  26
ATOM     26  C   UNL     1      -2.351   2.254  24.105  0.00  0.00    +0.246 C 
ATOM     27  O   UNL     1      -2.210   2.260  24.917  0.00  0.00    -0.273 OA
ATOM     28  N   UNL     1      -1.718   2.257  23.575  0.00  0.00    -0.179 NA
BRANCH  28  29
ATOM     29  C   UNL     1      -0.944   2.265  23.859  0.00  0.00    +0.077 A 
ATOM     30  C   UNL     1      -0.477   1.587  23.803  0.00  0.00    +0.059 A 
ATOM     31  C   UNL     1       0.298   1.595  24.087  0.00  0.00    +0.197 A 
ATOM     32  O   UNL     1       0.765   0.917  24.031  0.00  0.00    -0.287 OA
ATOM     33  C   UNL     1       0.605   2.281  24.427  0.00  0.00    +0.042 A 
ATOM     34  C   UNL     1       0.138   2.959  24.483  0.00  0.00    +0.005 A 
ATOM     35  C   UNL     1      -0.636   2.951  24.199  0.00  0.00    +0.017 A 
ENDBRANCH  28  29
ENDBRANCH  25  26
ENDBRANCH  24  25
TORSDOF 5
ENDMDL
MODEL 2
REMARK VINA RESULT:     -14.4      1.334      5.012
REMARK  Name = 
REMARK  5 active torsions:
REMARK  status: ('A' for Active; 'I' for Inactive)
REMARK    1  A    between atoms: C_2  and  C_5
REMARK    2  A    between atoms: C_14  and  C_16
REMARK    3  A    between atoms: C_24  and  C_25
REMARK    4  A    between atoms: C_25  and  C_26
REMARK    5  A    between atoms: N_28  and  C_29
REMARK                            x       y       z     vdW  Elec       q    Type
REMARK                         _______ _______ _______ _____ _____    ______ ____
ROOT
ATOM      5  C   UNL     1      -0.530   1.765  25.429  0.00  0.00    +0.246 C 
ATOM      6  O   UNL     1      -0.212   1.019  25.577  0.00  0.00    -0.273 OA
ATOM      7  N   UNL     1      -1.290   1.834  25.117  0.00  0.00    -0.154 NA
ATOM      8  C   UNL     1      -1.732   1.156  24.953  0.00  0.00    +0.185 A 
ATOM      9  N   UNL     1      -2.496   1.140  24.641  0.00  0.00    -0.227 NA
ATOM     10  C   UNL     1      -2.723   0.350  24.567  0.00  0.00    +0.063 A 
ATOM     11  C   UNL     1      -2.100  -0.120  24.833  0.00  0.00    +0.023 A 
ATOM     12  C   UNL     1      -2.172  -0.943  24.824  0.00  0.00    +0.034 C 
ATOM     13  C   UNL     1      -2.865  -1.294  24.549  0.00  0.00    +0.010 C 
ATOM     14  C   UNL     1      -2.936  -2.115  24.540  0.00  0.00    +0.059 C 
ATOM     15  C   UNL     1      -2.175  -2.040  24.849  0.00  0.00    +0.005 C 
ATOM     18  C   UNL     1      -3.630  -2.467  24.265  0.00  0.00    +0.154 C 
ATOM     19  O   UNL     1      -3.702  -3.289  24.256  0.00  0.00    -0.223 OA
ATOM     20  C   UNL     1      -4.254  -1.996  23.999  0.00  0.00    +0.033 C 
ATOM     21  C   UNL     1      -4.183  -1.173  24.008  0.00  0.00    +0.003 C 
ATOM     22  C   UNL     1      -3.489  -0.823  24.283  0.00  0.00    +0.006 C 
ATOM     23  C   UNL     1      -4.112  -0.352  24.018  0.00  0.00    +0.000 C 
ATOM     24  C   UNL     1      -3.418  -0.001  24.292  0.00  0.00    +0.050 C 
ATOM     36  S   UNL     1      -1.487   0.378  25.071  0.00  0.00    -0.054 S 
ENDROOT
BRANCH   5   2
ATOM      1  C   UNL     1       0.353   3.120  25.757  0.00  0.00    +0.009 C 
ATOM      2  C   UNL     1      -0.088   2.442  25.593  0.00  0.00    +0.071 C 
ATOM      3  C   UNL     1      -0.307   2.393  26.386  0.00  0.00    +0.009 C 
ATOM      4  C   UNL     1       0.131   2.492  24.799  0.00  0.00    +0.009 C 
ENDBRANCH   5   2
BRANCH  14  16
ATOM     16  C   UNL     1      -2.743  -2.911  24.638  0.00  0.00    +0.184 C 
ATOM     17  O   UNL     1      -1.953  -3.145  24.662  0.00  0.00    -0.220 OA
ENDBRANCH  14  16
BRANCH  24  25
ATOM     25  C   UNL     1      -4.041   0.469  24.027  0.00  0.00    +0.093 C 
BRANCH  25  26
ATOM     26  C   UNL     1      -4.483   0.911  24.566  0.00  0.00    +0.246 C 
ATOM     27  O   UNL     1      -4.586   0.637  25.337  0.00  0.00    -0.273 OA
ATOM     28  N   UNL     1      -4.823   1.626  24.333  0.00  0.00    -0.179 NA
BRANCH  28  29
ATOM     29  C   UNL     1      -5.265   2.067  24.871  0.00  0.00    +0.077 A 
ATOM     30  C   UNL     1      -4.980   2.792  25.143  0.00  0.00    +0.059 A 
ATOM     31  C   UNL     1      -5.422   3.234  25.682  0.00  0.00    +0.197 A 
ATOM     32  O   UNL     1      -5.137   3.959  25.954  0.00  0.00    -0.287 OA
ATOM     33  C   UNL     1      -6.149   2.950  25.949  0.00  0.00    +0.042 A 
ATOM     34  C   UNL     1      -6.434   2.225  25.677  0.00  0.00    +0.005 A 
ATOM     35  C   UNL     1      -5.992   1.784  25.139  0.00  0.00    +0.017 A 
ENDBRANCH  28  29
ENDBRANCH  25  26
ENDBRANCH  24  25
TORSDOF 5
ENDMDL
MODEL 3
REMARK VINA RESULT:     -13.7      1.301      4.117
REMARK  Name = 
REMARK  5 active torsions:
REMARK  status: ('A' for Active; 'I' for Inactive)
REMARK    1  A    between atoms: C_2  and  C_5
REMARK    2  A    between atoms: C_14  and  C_16
REMARK    3  A    between atoms: C_24  and  C_25
REMARK    4  A    between atoms: C_25  and  C_26
REMARK    5  A    between atoms: N_28  and  C_29
REMARK                            x       y       z     vdW  Elec       q    Type
REMARK                         _______ _______ _______ _____ _____    ______ ____
ROOT
ATOM      5  C   UNL     1      -5.119   2.248  25.171  0.00  0.00    +0.246 C 
ATOM      6  O   UNL     1      -5.616   1.681  24.837  0.00  0.00    -0.273 OA
ATOM      7  N   UNL     1      -4.339   2.054  25.355  0.00  0.00    -0.154 NA
ATOM      8  C   UNL     1      -4.056   1.294  25.204  0.00  0.00    +0.185 A 
ATOM      9  N   UNL     1      -3.292   1.022  25.358  0.00  0.00    -0.227 NA
ATOM     10  C   UNL     1      -3.251   0.232  25.122  0.00  0.00    +0.063 A 
ATOM     11  C   UNL     1      -3.990   0.017  24.823  0.00  0.00    +0.023 A 
ATOM     12  C   UNL     1      -4.113  -0.750  24.543  0.00  0.00    +0.034 C 
ATOM     13  C   UNL     1      -3.500  -1.300  24.561  0.00  0.00    +0.010 C 
ATOM     14  C   UNL     1      -3.624  -2.066  24.282  0.00  0.00    +0.059 C 
ATOM     15  C   UNL     1      -4.371  -1.742  24.149  0.00  0.00    +0.005 C 
ATOM     18  C   UNL     1      -3.010  -2.617  24.300  0.00  0.00    +0.154 C 
ATOM     19  O   UNL     1      -3.134  -3.383  24.020  0.00  0.00    -0.223 OA
ATOM     20  C   UNL     1      -2.272  -2.402  24.599  0.00  0.00    +0.033 C 
ATOM     21  C   UNL     1      -2.148  -1.635  24.880  0.00  0.00    +0.003 C 
ATOM     22  C   UNL     1      -2.762  -1.085  24.861  0.00  0.00    +0.006 C 
ATOM     23  C   UNL     1      -2.024  -0.870  25.160  0.00  0.00    +0.000 C 
ATOM     24  C   UNL     1      -2.637  -0.319  25.141  0.00  0.00    +0.050 C 
ATOM     36  S   UNL     1      -4.487   0.674  24.874  0.00  0.00    -0.054 S 
ENDROOT
BRANCH   5   2
ATOM      1  C   UNL     1      -5.684   3.769  25.473  0.00  0.00    +0.009 C 
ATOM      2  C   UNL     1      -5.402   3.008  25.322  0.00  0.00    +0.071 C 
ATOM      3  C   UNL     1      -5.976   2.695  25.824  0.00  0.00    +0.009 C 
ATOM      4  C   UNL     1      -4.827   3.322  24.820  0.00  0.00    +0.009 C 
ENDBRANCH   5   2
BRANCH  14  16
ATOM     16  C   UNL     1      -4.007  -2.720  23.955  0.00  0.00    +0.184 C 
ATOM     17  O   UNL     1      -4.725  -2.623  23.561  0.00  0.00    -0.220 OA
ENDBRANCH  14  16
BRANCH  24  25
ATOM     25  C   UNL     1      -1.900  -0.104  25.440  0.00  0.00    +0.093 C 
BRANCH  25  26
ATOM     26  C   UNL     1      -1.411   0.402  25.008  0.00  0.00    +0.246 C 
ATOM     27  O   UNL     1      -1.411   0.371  24.184  0.00  0.00    -0.273 OA
ATOM     28  N   UNL     1      -0.922   0.938  25.401  0.00  0.00    -0.179 NA
BRANCH  28  29
ATOM     29  C   UNL     1      -0.434   1.443  24.970  0.00  0.00    +0.077 A 
ATOM     30  C   UNL     1      -0.613   2.247  24.920  0.00  0.00    +0.059 A 
ATOM     31  C   UNL     1      -0.124   2.753  24.489  0.00  0.00    +0.197 A 
ATOM     32  O   UNL     1      -0.303   3.557  24.439  0.00  0.00    -0.287 OA
ATOM     33  C   UNL     1       0.543   2.455  24.106  0.00  0.00    +0.042 A 
ATOM     34  C   UNL     1       0.722   1.651  24.156  0.00  0.00    +0.005 A 
ATOM     35  C   UNL     1       0.234   1.146  24.587  0.00  0.00    +0.017 A 
ENDBRANCH  28  29
ENDBRANCH  25  26
ENDBRANCH  24  25
TORSDOF 5
ENDMDL
MODEL 4
REMARK VINA RESULT:     -12.9      1.054      3.780
REMARK  Name = 
REMARK  5 active torsions:
REMARK  status: ('A' for Active; 'I' for Inactive)
REMARK    1  A    between atoms: C_2  and  C_5
REMARK    2  A    between atoms: C_14  and  C_16
REMARK    3  A    between atoms: C_24  and  C_25
REMARK    4  A    between atoms: C_25  and  C_26
REMARK    5  A    between atoms: N_28  and  C_29
REMARK                            x       y       z     vdW  Elec       q    Type
REMARK                         _______ _______ _______ _____ _____    ______ ____
ROOT
ATOM      5  C   UNL     1      -0.404   1.877  24.296  0.00  0.00    +0.246 C 
ATOM      6  O   UNL     1      -0.582   2.551  24.736  0.00  0.00    -0.273 OA
ATOM      7  N   UNL     1      -1.008   1.367  24.062  0.00  0.00    -0.154 NA
ATOM      8  C   UNL     1      -1.790   1.531  24.267  0.00  0.00    +0.185 A 
ATOM      9  N   UNL     1      -2.448   1.074  24.072  0.00  0.00    -0.227 NA
ATOM     10  C   UNL     1      -3.116   1.442  24.388  0.00  0.00    +0.063 A 
ATOM     11  C   UNL     1      -2.870   2.126  24.778  0.00  0.00    +0.023 A 
ATOM     12  C   UNL     1      -3.424   2.610  25.151  0.00  0.00    +0.034 C 
ATOM     13  C   UNL     1      -4.224   2.411  25.134  0.00  0.00    +0.010 C 
ATOM     14  C   UNL     1      -4.778   2.895  25.507  0.00  0.00    +0.059 C 
ATOM     15  C   UNL     1      -4.087   3.313  25.673  0.00  0.00    +0.005 C 
ATOM     18  C   UNL     1      -5.578   2.696  25.490  0.00  0.00    +0.154 C 
ATOM     19  O   UNL     1      -6.133   3.180  25.863  0.00  0.00    -0.223 OA
ATOM     20  C   UNL     1      -5.825   2.012  25.100  0.00  0.00    +0.033 C 
ATOM     21  C   UNL     1      -5.271   1.527  24.727  0.00  0.00    +0.003 C 
ATOM     22  C   UNL     1      -4.471   1.727  24.744  0.00  0.00    +0.006 C 
ATOM     23  C   UNL     1      -4.717   1.043  24.355  0.00  0.00    +0.000 C 
ATOM     24  C   UNL     1      -3.917   1.242  24.371  0.00  0.00    +0.050 C 
ATOM     36  S   UNL     1      -2.050   2.181  24.703  0.00  0.00    -0.054 S 
ENDROOT
BRANCH   5   2
ATOM      1  C   UNL     1       1.160   1.548  23.885  0.00  0.00    +0.009 C 
ATOM      2  C   UNL     1       0.378   1.712  24.091  0.00  0.00    +0.071 C 
ATOM      3  C   UNL     1       0.168   0.935  23.913  0.00  0.00    +0.009 C 
ATOM      4  C   UNL     1       0.589   2.490  24.268  0.00  0.00    +0.009 C 
ENDBRANCH   5   2
BRANCH  14  16
ATOM     16  C   UNL     1      -5.092   3.525  25.938  0.00  0.00    +0.184 C 
ATOM     17  O   UNL     1      -4.626   4.184  26.106  0.00  0.00    -0.220 OA
ENDBRANCH  14  16
BRANCH  24  25
ATOM     25  C   UNL     1      -4.163   0.559  23.982  0.00  0.00    +0.093 C 
BRANCH  25  26
ATOM     26  C   UNL     1      -3.979  -0.183  24.293  0.00  0.00    +0.246 C 
ATOM     27  O   UNL     1      -4.014  -0.308  25.108  0.00  0.00    -0.273 OA
ATOM     28  N   UNL     1      -3.759  -0.799  23.790  0.00  0.00    -0.179 NA
BRANCH  28  29
ATOM     29  C   UNL     1      -3.575  -1.540  24.102  0.00  0.00    +0.077 A 
ATOM     30  C   UNL     1      -2.796  -1.720  24.303  0.00  0.00    +0.059 A 
ATOM     31  C   UNL     1      -2.611  -2.462  24.615  0.00  0.00    +0.197 A 
ATOM     32  O   UNL     1      -1.832  -2.642  24.817  0.00  0.00    -0.287 OA
ATOM     33  C   UNL     1      -3.206  -3.022  24.725  0.00  0.00    +0.042 A 
ATOM     34  C   UNL     1      -3.985  -2.842  24.523  0.00  0.00    +0.005 A 
ATOM     35  C   UNL     1      -4.170  -2.101  24.212  0.00  0.00    +0.017 A 
ENDBRANCH  28  29
ENDBRANCH  25  26
ENDBRANCH  24  25
TORSDOF 5
ENDMDL
MODEL 5
REMARK VINA RESULT:     -12.8      1.667      3.972
REMARK  Name = 
REMARK  5 active torsions:
REMARK  status: ('A' for Active; 'I' for Inactive)
REMARK    1  A    between atoms: C_2  and  C_5
REMARK    2  A    between atoms: C_14  and  C_16
REMARK    3  A    between atoms: C_24  and  C_25
REMARK    4  A    between atoms: C_25  and  C_26
REMARK    5  A    between atoms: N_28  and  C_29
REMARK                            x       y       z     vdW  Elec       q    Type
REMARK                         _______ _______ _______ _____ _____    ______ ____
ROOT
ATOM      5  C   UNL     1      -1.542   4.435  24.975  0.00  0.00    +0.246 C 
ATOM      6  O   UNL     1      -2.169   4.773  25.390  0.00  0.00    -0.273 OA
ATOM      7  N   UNL     1      -1.620   3.679  24.655  0.00  0.00    -0.154 NA
ATOM      8  C   UNL     1      -2.326   3.261  24.749  0.00  0.00    +0.185 A 
ATOM      9  N   UNL     1      -2.483   2.505  24.460  0.00  0.00    -0.227 NA
ATOM     10  C   UNL     1      -3.252   2.303  24.681  0.00  0.00    +0.063 A 
ATOM     11  C   UNL     1      -3.570   2.935  25.106  0.00  0.00    +0.023 A 
ATOM     12  C   UNL     1      -4.339   2.889  25.399  0.00  0.00    +0.034 C 
ATOM     13  C   UNL     1      -4.791   2.213  25.268  0.00  0.00    +0.010 C 
ATOM     14  C   UNL     1      -5.560   2.167  25.562  0.00  0.00    +0.059 C 
ATOM     15  C   UNL     1      -5.350   2.919  25.827  0.00  0.00    +0.005 C 
ATOM     18  C   UNL     1      -6.013   1.490  25.431  0.00  0.00    +0.154 C 
ATOM     19  O   UNL     1      -6.783   1.444  25.725  0.00  0.00    -0.223 OA
ATOM     20  C   UNL     1      -5.696   0.858  25.006  0.00  0.00    +0.033 C 
ATOM     21  C   UNL     1      -4.926   0.903  24.712  0.00  0.00    +0.003 C 
ATOM     22  C   UNL     1      -4.474   1.581  24.844  0.00  0.00    +0.006 C 
ATOM     23  C   UNL     1      -4.157   0.949  24.419  0.00  0.00    +0.000 C 
ATOM     24  C   UNL     1      -3.705   1.625  24.549  0.00  0.00    +0.050 C 
ATOM     36  S   UNL     1      -2.996   3.528  25.147  0.00  0.00    -0.054 S 
ENDROOT
BRANCH   5   2
ATOM      1  C   UNL     1      -0.131   5.269  24.787  0.00  0.00    +0.009 C 
ATOM      2  C   UNL     1      -0.836   4.852  24.881  0.00  0.00    +0.071 C 
ATOM      3  C   UNL     1      -0.419   4.141  24.860  0.00  0.00    +0.009 C 
ATOM      4  C   UNL     1      -1.254   5.563  24.902  0.00  0.00    +0.009 C 
ENDBRANCH   5   2
BRANCH  14  16
ATOM     16  C   UNL     1      -6.257   2.383  25.948  0.00  0.00    +0.184 C 
ATOM     17  O   UNL     1      -6.241   2.954  26.542  0.00  0.00    -0.220 OA
ENDBRANCH  14  16
BRANCH  24  25
ATOM     25  C   UNL     1      -3.388   0.994  24.125  0.00  0.00    +0.093 C 
BRANCH  25  26
ATOM     26  C   UNL     1      -2.884   0.457  24.498  0.00  0.00    +0.246 C 
ATOM     27  O   UNL     1      -2.951   0.325  25.310  0.00  0.00    -0.273 OA
ATOM     28  N   UNL     1      -2.314   0.053  24.060  0.00  0.00    -0.179 NA
BRANCH  28  29
ATOM     29  C   UNL     1      -1.811  -0.483  24.432  0.00  0.00    +0.077 A 
ATOM     30  C   UNL     1      -1.994  -1.287  24.435  0.00  0.00    +0.059 A 
ATOM     31  C   UNL     1      -1.490  -1.825  24.808  0.00  0.00    +0.197 A 
ATOM     32  O   UNL     1      -1.673  -2.629  24.810  0.00  0.00    -0.287 OA
ATOM     33  C   UNL     1      -0.804  -1.556  25.179  0.00  0.00    +0.042 A 
ATOM     34  C   UNL     1      -0.621  -0.752  25.176  0.00  0.00    +0.005 A 
ATOM     35  C   UNL     1      -1.124  -0.216  24.804  0.00  0.00    +0.017 A 
ENDBRANCH  28  29
ENDBRANCH  25  26
ENDBRANCH  24  25
TORSDOF 5
ENDMDL
MODEL 6
REMARK VINA RESULT:     -12.8      1.378      4.038
REMARK  Name = 
REMARK  5 active torsions:
REMARK  status: ('A' for Active; 'I' for Inactive)
REMARK    1  A    between atoms: C_2  and  C_5
REMARK    2  A    between atoms: C_14  and  C_16
REMARK    3  A    between atoms: C_24  and  C_25
REMARK    4  A    between atoms: C_25  and  C_26
REMARK    5  A    between atoms: N_28  and  C_29
REMARK                            x       y       z     vdW  Elec       q    Type
REMARK                         _______ _______ _______ _____ _____    ______ ____
ROOT
ATOM      5  C   UNL     1      -2.407  -1.621  24.831  0.00  0.00    +0.246 C 
ATOM      6  O   UNL     1      -1.660  -1.554  25.173  0.00  0.00    -0.273 OA
ATOM      7  N   UNL     1      -2.812  -0.943  24.593  0.00  0.00    -0.154 NA
ATOM      8  C   UNL     1      -2.470  -0.199  24.697  0.00  0.00    +0.185 A 
ATOM      9  N   UNL     1      -2.809   0.523  24.487  0.00  0.00    -0.227 NA
ATOM     10  C   UNL     1      -2.277   1.121  24.690  0.00  0.00    +0.063 A 
ATOM     11  C   UNL     1      -1.612   0.768  25.025  0.00  0.00    +0.023 A 
ATOM     12  C   UNL     1      -0.983   1.236  25.283  0.00  0.00    +0.034 C 
ATOM     13  C   UNL     1      -1.019   2.055  25.206  0.00  0.00    +0.010 C 
ATOM     14  C   UNL     1      -0.390   2.522  25.464  0.00  0.00    +0.059 C 
ATOM     15  C   UNL     1      -0.100   1.774  25.654  0.00  0.00    +0.005 C 
ATOM     18  C   UNL     1      -0.426   3.343  25.387  0.00  0.00    +0.154 C 
ATOM     19  O   UNL     1       0.203   3.811  25.645  0.00  0.00    -0.223 OA
ATOM     20  C   UNL     1      -1.092   3.697  25.052  0.00  0.00    +0.033 C 
ATOM     21  C   UNL     1      -1.722   3.229  24.794  0.00  0.00    +0.003 C 
ATOM     22  C   UNL     1      -1.685   2.409  24.871  0.00  0.00    +0.006 C 
ATOM     23  C   UNL     1      -2.351   2.762  24.536  0.00  0.00    +0.000 C 
ATOM     24  C   UNL     1      -2.314   1.943  24.613  0.00  0.00    +0.050 C 
ATOM     36  S   UNL     1      -1.731  -0.049  25.030  0.00  0.00    -0.054 S 
ENDROOT
BRANCH   5   2
ATOM      1  C   UNL     1      -3.092  -3.108  24.622  0.00  0.00    +0.009 C 
ATOM      2  C   UNL     1      -2.750  -2.364  24.726  0.00  0.00    +0.071 C 
ATOM      3  C   UNL     1      -3.397  -2.130  25.181  0.00  0.00    +0.009 C 
ATOM      4  C   UNL     1      -2.102  -2.598  24.271  0.00  0.00    +0.009 C 
ENDBRANCH   5   2
BRANCH  14  16
ATOM     16  C   UNL     1       0.340   2.730  25.788  0.00  0.00    +0.184 C 
ATOM     17  O   UNL     1       0.635   2.318  26.438  0.00  0.00    -0.220 OA
ENDBRANCH  14  16
BRANCH  24  25
ATOM     25  C   UNL     1      -2.979   2.296  24.278  0.00  0.00    +0.093 C 
BRANCH  25  26
ATOM     26  C   UNL     1      -3.664   2.397  24.728  0.00  0.00    +0.246 C 
ATOM     27  O   UNL     1      -3.611   2.460  25.549  0.00  0.00    -0.273 OA
ATOM     28  N   UNL     1      -4.400   2.435  24.357  0.00  0.00    -0.179 NA
BRANCH  28  29
ATOM     29  C   UNL     1      -5.083   2.537  24.807  0.00  0.00    +0.077 A 
ATOM     30  C   UNL     1      -5.278   3.283  25.099  0.00  0.00    +0.059 A 
ATOM     31  C   UNL     1      -5.962   3.385  25.550  0.00  0.00    +0.197 A 
ATOM     32  O   UNL     1      -6.157   4.132  25.841  0.00  0.00    -0.287 OA
ATOM     33  C   UNL     1      -6.451   2.740  25.708  0.00  0.00    +0.042 A 
ATOM     34  C   UNL     1      -6.256   1.993  25.416  0.00  0.00    +0.005 A 
ATOM     35  C   UNL     1      -5.573   1.892  24.966  0.00  0.00    +0.017 A 
ENDBRANCH  28  29
ENDBRANCH  25  26
ENDBRANCH  24  25
TORSDOF 5
ENDMDL
MODEL 7
REMARK VINA RESULT:     -12.5      1.091      1.502
REMARK  Name = 
REMARK  5 active torsions:
REMARK  status: ('A' for Active; 'I' for Inactive)
REMARK    1  A    between atoms: C_2  and  C_5
REMARK    2  A    between atoms: C_14  and  C_16
REMARK    3  A    between atoms: C_24  and  C_25
REMARK    4  A    between atoms: C_25  and  C_26
REMARK    5  A    between atoms: N_28  and  C_29
REMARK                            x       y       z     vdW  Elec       q    Type
REMARK                         _______ _______ _______ _____ _____    ______ ____
ROOT
ATOM      5  C   UNL     1      -3.842  -1.567  24.447  0.00  0.00    +0.246 C 
ATOM      6  O   UNL     1      -4.557  -1.172  24.335  0.00  0.00    -0.273 OA
ATOM      7  N   UNL     1      -3.165  -1.143  24.652  0.00  0.00    -0.154 NA
ATOM      8  C   UNL     1      -3.204  -0.324  24.746  0.00  0.00    +0.185 A 
ATOM      9  N   UNL     1      -2.576   0.170  24.950  0.00  0.00    -0.227 NA
ATOM     10  C   UNL     1      -2.861   0.944  24.983  0.00  0.00    +0.063 A 
ATOM     11  C   UNL     1      -3.665   0.927  24.800  0.00  0.00    +0.023 A 
ATOM     12  C   UNL     1      -4.101   1.628  24.790  0.00  0.00    +0.034 C 
ATOM     13  C   UNL     1      -3.733   2.345  24.963  0.00  0.00    +0.010 C 
ATOM     14  C   UNL     1      -4.168   3.045  24.953  0.00  0.00    +0.059 C 
ATOM     15  C   UNL     1      -4.759   2.506  24.753  0.00  0.00    +0.005 C 
ATOM     18  C   UNL     1      -3.800   3.763  25.127  0.00  0.00    +0.154 C 
ATOM     19  O   UNL     1      -4.235   4.464  25.117  0.00  0.00    -0.223 OA
ATOM     20  C   UNL     1      -2.996   3.780  25.310  0.00  0.00    +0.033 C 
ATOM     21  C   UNL     1      -2.559   3.079  25.319  0.00  0.00    +0.003 C 
ATOM     22  C   UNL     1      -2.928   2.362  25.146  0.00  0.00    +0.006 C 
ATOM     23  C   UNL     1      -2.124   2.379  25.329  0.00  0.00    +0.000 C 
ATOM     24  C   UNL     1      -2.492   1.662  25.156  0.00  0.00    +0.050 C 
ATOM     36  S   UNL     1      -3.877   0.142  24.654  0.00  0.00    -0.054 S 
ENDROOT
BRANCH   5   2
ATOM      1  C   UNL     1      -3.764  -3.205  24.258  0.00  0.00    +0.009 C 
ATOM      2  C   UNL     1      -3.803  -2.386  24.352  0.00  0.00    +0.071 C 
ATOM      3  C   UNL     1      -3.402  -2.450  25.070  0.00  0.00    +0.009 C 
ATOM      4  C   UNL     1      -4.204  -2.322  23.634  0.00  0.00    +0.009 C 
ENDBRANCH   5   2
BRANCH  14  16
ATOM     16  C   UNL     1      -4.809   3.559  24.874  0.00  0.00    +0.184 C 
ATOM     17  O   UNL     1      -5.570   3.301  25.059  0.00  0.00    -0.220 OA
ENDBRANCH  14  16
BRANCH  24  25
ATOM     25  C   UNL     1      -1.689   1.679  25.339  0.00  0.00    +0.093 C 
BRANCH  25  26
ATOM     26  C   UNL     1      -1.128   1.557  24.746  0.00  0.00    +0.246 C 
ATOM     27  O   UNL     1      -1.263   1.846  23.985  0.00  0.00    -0.273 OA
ATOM     28  N   UNL     1      -0.432   1.147  24.914  0.00  0.00    -0.179 NA
BRANCH  28  29
ATOM     29  C   UNL     1       0.128   1.025  24.321  0.00  0.00    +0.077 A 
ATOM     30  C   UNL     1       0.136   0.315  23.901  0.00  0.00    +0.059 A 
ATOM     31  C   UNL     1       0.697   0.193  23.307  0.00  0.00    +0.197 A 
ATOM     32  O   UNL     1       0.706  -0.516  22.887  0.00  0.00    -0.287 OA
ATOM     33  C   UNL     1       1.249   0.782  23.135  0.00  0.00    +0.042 A 
ATOM     34  C   UNL     1       1.241   1.492  23.555  0.00  0.00    +0.005 A 
ATOM     35  C   UNL     1       0.681   1.613  24.148  0.00  0.00    +0.017 A 
ENDBRANCH  28  29
ENDBRANCH  25  26
ENDBRANCH  24  25
TORSDOF 5
ENDMDL
MODEL 8
REMARK VINA RESULT:     -12.0      1.759      3.945
REMARK  Name = 
REMARK  5 active torsions:
REMARK  status: ('A' for Active; 'I' for Inactive)
REMARK    1  A    between atoms: C_2  and  C_5
REMARK    2  A    between atoms: C_14  and  C_16
REMARK    3  A    between atoms: C_24  and  C_25
REMARK    4  A    between atoms: C_25  and  C_26
REMARK    5  A    between atoms: N_28  and  C_29
REMARK                            x       y       z     vdW  Elec       q    Type
REMARK                         _______ _______ _______ _____ _____    ______ ____
ROOT
ATOM      5  C   UNL     1      -5.373   2.274  25.371  0.00  0.00    +0.246 C 
ATOM      6  O   UNL     1      -5.249   3.038  25.656  0.00  0.00    -0.273 OA
ATOM      7  N   UNL     1      -4.760   1.870  24.997  0.00  0.00    -0.154 NA
ATOM      8  C   UNL     1      -4.022   2.229  24.907  0.00  0.00    +0.185 A 
ATOM      9  N   UNL     1      -3.361   1.893  24.546  0.00  0.00    -0.227 NA
ATOM     10  C   UNL     1      -2.747   2.444  24.578  0.00  0.00    +0.063 A 
ATOM     11  C   UNL     1      -3.030   3.119  24.959  0.00  0.00    +0.023 A 
ATOM     12  C   UNL     1      -2.532   3.768  25.072  0.00  0.00    +0.034 C 
ATOM     13  C   UNL     1      -1.753   3.741  24.804  0.00  0.00    +0.010 C 
ATOM     14  C   UNL     1      -1.256   4.390  24.917  0.00  0.00    +0.059 C 
ATOM     15  C   UNL     1      -1.946   4.676  25.266  0.00  0.00    +0.005 C 
ATOM     18  C   UNL     1      -0.476   4.364  24.649  0.00  0.00    +0.154 C 
ATOM     19  O   UNL     1       0.022   5.012  24.761  0.00  0.00    -0.223 OA
ATOM     20  C   UNL     1      -0.193   3.689  24.268  0.00  0.00    +0.033 C 
ATOM     21  C   UNL     1      -0.691   3.040  24.155  0.00  0.00    +0.003 C 
ATOM     22  C   UNL     1      -1.470   3.066  24.423  0.00  0.00    +0.006 C 
ATOM     23  C   UNL     1      -1.187   2.391  24.042  0.00  0.00    +0.000 C 
ATOM     24  C   UNL     1      -1.967   2.418  24.310  0.00  0.00    +0.050 C 
ATOM     36  S   UNL     1      -3.818   2.986  25.162  0.00  0.00    -0.054 S 
ENDROOT
BRANCH   5   2
ATOM      1  C   UNL     1      -6.848   1.555  25.551  0.00  0.00    +0.009 C 
ATOM      2  C   UNL     1      -6.111   1.915  25.461  0.00  0.00    +0.071 C 
ATOM      3  C   UNL     1      -6.038   1.970  26.281  0.00  0.00    +0.009 C 
ATOM      4  C   UNL     1      -6.183   1.859  24.641  0.00  0.00    +0.009 C 
ENDBRANCH   5   2
BRANCH  14  16
ATOM     16  C   UNL     1      -0.998   5.138  25.151  0.00  0.00    +0.184 C 
ATOM     17  O   UNL     1      -1.544   5.744  25.271  0.00  0.00    -0.220 OA
ENDBRANCH  14  16
BRANCH  24  25
ATOM     25  C   UNL     1      -1.684   1.743  23.930  0.00  0.00    +0.093 C 
BRANCH  25  26
ATOM     26  C   UNL     1      -1.529   1.058  24.364  0.00  0.00    +0.246 C 
ATOM     27  O   UNL     1      -1.361   1.111  25.169  0.00  0.00    -0.273 OA
ATOM     28  N   UNL     1      -1.544   0.322  23.992  0.00  0.00    -0.179 NA
BRANCH  28  29
ATOM     29  C   UNL     1      -1.389  -0.362  24.426  0.00  0.00    +0.077 A 
ATOM     30  C   UNL     1      -2.007  -0.869  24.630  0.00  0.00    +0.059 A 
ATOM     31  C   UNL     1      -1.853  -1.554  25.065  0.00  0.00    +0.197 A 
ATOM     32  O   UNL     1      -2.470  -2.061  25.269  0.00  0.00    -0.287 OA
ATOM     33  C   UNL     1      -1.080  -1.730  25.294  0.00  0.00    +0.042 A 
ATOM     34  C   UNL     1      -0.462  -1.223  25.090  0.00  0.00    +0.005 A 
ATOM     35  C   UNL     1      -0.617  -0.540  24.656  0.00  0.00    +0.017 A 
ENDBRANCH  28  29
ENDBRANCH  25  26
ENDBRANCH  24  25
TORSDOF 5
ENDMDL
