REMARK  Name = 
REMARK  4 active torsions:
REMARK  status: ('A' for Active; 'I' for Inactive)
REMARK    1  A    between atoms: O_2  and  C_3
REMARK    2  A    between atoms: C_3  and  C_4
REMARK    3  A    between atoms: C_4  and  C_5
REMARK    4  A    between atoms: C_10  and  C_12
REMARK                            x       y       z     vdW  Elec       q    Type
REMARK                         _______ _______ _______ _____ _____    ______ ____
ROOT
ATOM      5  C   UNL     1      -0.034  -5.452   0.000  0.00  0.00    +0.228 C 
ATOM      6  O   UNL     1      -0.034  -6.277   0.000  0.00  0.00    -0.275 OA
ATOM      7  N   UNL     1       0.681  -5.039   0.000  0.00  0.00    -0.279 N 
ATOM      8  C   UNL     1       0.767  -4.219   0.000  0.00  0.00    +0.094 C 
ATOM      9  C   UNL     1       1.574  -4.047   0.000  0.00  0.00    +0.032 C 
ATOM     10  C   UNL     1       1.987  -4.762   0.000  0.00  0.00    +0.098 C 
ATOM     11  C   UNL     1       1.435  -5.375   0.000  0.00  0.00    +0.103 C 
ENDROOT
BRANCH  10  12
ATOM     12  C   UNL     1       2.807  -4.848   0.000  0.00  0.00    +0.207 A 
ATOM     13  N   UNL     1       3.220  -5.562   0.000  0.00  0.00    -0.212 NA
ATOM     14  C   UNL     1       4.027  -5.391   0.000  0.00  0.00    +0.119 A 
ATOM     15  C   UNL     1       4.113  -4.570   0.000  0.00  0.00    +0.164 A 
ATOM     16  O   UNL     1       3.359  -4.235   0.000  0.00  0.00    -0.438 OA
ATOM     17  C   UNL     1       4.866  -4.235   0.000  0.00  0.00    +0.039 A 
ATOM     18  C   UNL     1       5.534  -4.720   0.000  0.00  0.00    +0.003 A 
ATOM     19  C   UNL     1       5.448  -5.540   0.000  0.00  0.00    +0.002 A 
ATOM     20  C   UNL     1       4.694  -5.876   0.000  0.00  0.00    +0.022 A 
ENDBRANCH  10  12
BRANCH   5   4
ATOM      4  C   UNL     1      -0.748  -5.039   0.000  0.00  0.00    +0.117 C 
BRANCH   4   3
ATOM      3  C   UNL     1      -1.462  -5.452   0.000  0.00  0.00    +0.152 C 
BRANCH   3   2
ATOM      1  C   UNL     1      -2.892  -5.452   0.000  0.00  0.00    +0.174 C 
ATOM      2  O   UNL     1      -2.177  -5.039   0.000  0.00  0.00    -0.351 OA
ENDBRANCH   3   2
ENDBRANCH   4   3
ENDBRANCH   5   4
TORSDOF 4
