MODEL 1
REMARK VINA RESULT:     -12.8      0.000      0.000
REMARK  Name = 
REMARK  6 active torsions:
REMARK  status: ('A' for Active; 'I' for Inactive)
REMARK    1  A    between atoms: C_2  and  N_3
REMARK    2  A    between atoms: N_6  and  C_7
REMARK    3  A    between atoms: C_14  and  C_15
REMARK    4  A    between atoms: C_15  and  C_17
REMARK    5  A    between atoms: N_19  and  C_20
REMARK    6  A    between atoms: C_20  and  C_21
REMARK                            x       y       z     vdW  Elec       q    Type
REMARK                         _______ _______ _______ _____ _____    ______ ____
ROOT
ATOM      7  C   UNL     1      -4.456   0.014  24.396  0.00  0.00    +0.097 C 
ATOM      8  C   UNL     1      -5.040   0.092  24.974  0.00  0.00    +0.022 C 
ATOM      9  C   UNL     1      -5.212   0.835  25.288  0.00  0.00    +0.002 C 
ATOM     10  C   UNL     1      -4.801   1.500  25.025  0.00  0.00    +0.002 C 
ATOM     11  C   UNL     1      -5.385   1.577  25.603  0.00  0.00    +0.000 C 
ATOM     12  C   UNL     1      -4.974   2.243  25.340  0.00  0.00    +0.000 C 
ATOM     13  C   UNL     1      -4.563   2.908  25.077  0.00  0.00    +0.003 C 
ATOM     14  C   UNL     1      -3.980   2.830  24.499  0.00  0.00    +0.039 C 
ATOM     29  C   UNL     1      -3.807   2.088  24.184  0.00  0.00    +0.152 C 
ATOM     30  O   UNL     1      -3.224   2.010  23.606  0.00  0.00    -0.223 OA
ATOM     31  C   UNL     1      -4.218   1.422  24.447  0.00  0.00    +0.032 C 
ATOM     32  C   UNL     1      -4.045   0.680  24.132  0.00  0.00    +0.023 C 
ATOM     33  C   UNL     1      -3.462   0.602  23.555  0.00  0.00    +0.002 C 
ENDROOT
BRANCH   7   6
ATOM      3  N   UNL     1      -3.850  -2.078  24.261  0.00  0.00    -0.187 NA
ATOM      4  C   UNL     1      -4.023  -1.336  24.576  0.00  0.00    +0.339 C 
ATOM      5  O   UNL     1      -3.936  -1.200  25.385  0.00  0.00    -0.249 OA
ATOM      6  N   UNL     1      -4.283  -0.728  24.081  0.00  0.00    -0.189 NA
BRANCH   3   2
ATOM      1  C   UNL     1      -3.246  -3.362  24.433  0.00  0.00    +0.025 C 
ATOM      2  C   UNL     1      -3.589  -2.685  24.756  0.00  0.00    +0.117 C 
ENDBRANCH   3   2
ENDBRANCH   7   6
BRANCH  14  15
ATOM     15  C   UNL     1      -3.569   3.495  24.235  0.00  0.00    +0.081 C 
ATOM     16  C   UNL     1      -3.764   3.842  23.513  0.00  0.00    +0.010 C 
BRANCH  15  17
ATOM     17  C   UNL     1      -2.961   3.813  24.694  0.00  0.00    +0.241 C 
ATOM     18  O   UNL     1      -3.106   4.468  25.175  0.00  0.00    -0.273 OA
ATOM     19  N   UNL     1      -2.208   3.475  24.673  0.00  0.00    -0.201 NA
BRANCH  19  20
ATOM     20  C   UNL     1      -1.601   3.793  25.132  0.00  0.00    +0.142 C 
BRANCH  20  21
ATOM     21  C   UNL     1      -0.946   3.330  25.327  0.00  0.00    +0.004 A 
ATOM     22  C   UNL     1      -0.431   3.074  24.734  0.00  0.00    +0.027 A 
ATOM     23  C   UNL     1       0.223   2.611  24.929  0.00  0.00    +0.142 A 
ATOM     24  F   UNL     1       0.738   2.355  24.337  0.00  0.00    -0.204 F 
ATOM     25  C   UNL     1       0.362   2.403  25.714  0.00  0.00    +0.059 A 
ATOM     26  C   UNL     1      -0.152   2.658  26.307  0.00  0.00    +0.142 A 
ATOM     27  F   UNL     1      -0.012   2.450  27.093  0.00  0.00    -0.204 F 
ATOM     28  C   UNL     1      -0.807   3.122  26.112  0.00  0.00    +0.027 A 
ENDBRANCH  20  21
ENDBRANCH  19  20
ENDBRANCH  15  17
ENDBRANCH  14  15
TORSDOF 6
ENDMDL
MODEL 2
REMARK VINA RESULT:     -12.6      2.351      5.058
REMARK  Name = 
REMARK  6 active torsions:
REMARK  status: ('A' for Active; 'I' for Inactive)
REMARK    1  A    between atoms: C_2  and  N_3
REMARK    2  A    between atoms: N_6  and  C_7
REMARK    3  A    between atoms: C_14  and  C_15
REMARK    4  A    between atoms: C_15  and  C_17
REMARK    5  A    between atoms: N_19  and  C_20
REMARK    6  A    between atoms: C_20  and  C_21
REMARK                            x       y       z     vdW  Elec       q    Type
REMARK                         _______ _______ _______ _____ _____    ______ ____
ROOT
ATOM      7  C   UNL     1      -2.528   3.217  24.977  0.00  0.00    +0.097 C 
ATOM      8  C   UNL     1      -2.064   3.472  25.610  0.00  0.00    +0.022 C 
ATOM      9  C   UNL     1      -1.373   3.065  25.804  0.00  0.00    +0.002 C 
ATOM     10  C   UNL     1      -1.146   2.404  25.367  0.00  0.00    +0.002 C 
ATOM     11  C   UNL     1      -0.682   2.659  26.000  0.00  0.00    +0.000 C 
ATOM     12  C   UNL     1      -0.455   1.997  25.561  0.00  0.00    +0.000 C 
ATOM     13  C   UNL     1      -0.228   1.336  25.124  0.00  0.00    +0.003 C 
ATOM     14  C   UNL     1      -0.692   1.081  24.491  0.00  0.00    +0.039 C 
ATOM     29  C   UNL     1      -1.383   1.487  24.296  0.00  0.00    +0.152 C 
ATOM     30  O   UNL     1      -1.846   1.232  23.664  0.00  0.00    -0.223 OA
ATOM     31  C   UNL     1      -1.610   2.149  24.734  0.00  0.00    +0.032 C 
ATOM     32  C   UNL     1      -2.301   2.555  24.539  0.00  0.00    +0.023 C 
ATOM     33  C   UNL     1      -2.764   2.300  23.907  0.00  0.00    +0.002 C 
ENDROOT
BRANCH   7   6
ATOM      3  N   UNL     1      -4.536   4.060  25.123  0.00  0.00    -0.187 NA
ATOM      4  C   UNL     1      -3.845   3.654  25.319  0.00  0.00    +0.339 C 
ATOM      5  O   UNL     1      -3.779   3.279  26.051  0.00  0.00    -0.249 OA
ATOM      6  N   UNL     1      -3.219   3.623  24.781  0.00  0.00    -0.189 NA
BRANCH   3   2
ATOM      1  C   UNL     1      -5.912   4.322  25.407  0.00  0.00    +0.025 C 
ATOM      2  C   UNL     1      -5.162   4.091  25.661  0.00  0.00    +0.117 C 
ENDBRANCH   3   2
ENDBRANCH   7   6
BRANCH  14  15
ATOM     15  C   UNL     1      -0.466   0.420  24.053  0.00  0.00    +0.081 C 
ATOM     16  C   UNL     1      -0.171   0.512  23.290  0.00  0.00    +0.010 C 
BRANCH  15  17
ATOM     17  C   UNL     1      -0.535  -0.335  24.381  0.00  0.00    +0.241 C 
ATOM     18  O   UNL     1       0.127  -0.707  24.703  0.00  0.00    -0.273 OA
ATOM     19  N   UNL     1      -1.267  -0.717  24.386  0.00  0.00    -0.201 NA
BRANCH  19  20
ATOM     20  C   UNL     1      -1.335  -1.471  24.713  0.00  0.00    +0.142 C 
BRANCH  20  21
ATOM     21  C   UNL     1      -2.082  -1.799  24.838  0.00  0.00    +0.004 A 
ATOM     22  C   UNL     1      -2.541  -1.548  25.476  0.00  0.00    +0.027 A 
ATOM     23  C   UNL     1      -3.288  -1.877  25.600  0.00  0.00    +0.142 A 
ATOM     24  F   UNL     1      -3.747  -1.626  26.239  0.00  0.00    -0.204 F 
ATOM     25  C   UNL     1      -3.575  -2.454  25.088  0.00  0.00    +0.059 A 
ATOM     26  C   UNL     1      -3.116  -2.705  24.450  0.00  0.00    +0.142 A 
ATOM     27  F   UNL     1      -3.404  -3.284  23.936  0.00  0.00    -0.204 F 
ATOM     28  C   UNL     1      -2.369  -2.377  24.325  0.00  0.00    +0.027 A 
ENDBRANCH  20  21
ENDBRANCH  19  20
ENDBRANCH  15  17
ENDBRANCH  14  15
TORSDOF 6
ENDMDL
MODEL 3
REMARK VINA RESULT:     -12.4      2.252      3.749
REMARK  Name = 
REMARK  6 active torsions:
REMARK  status: ('A' for Active; 'I' for Inactive)
REMARK    1  A    between atoms: C_2  and  N_3
REMARK    2  A    between atoms: N_6  and  C_7
REMARK    3  A    between atoms: C_14  and  C_15
REMARK    4  A    between atoms: C_15  and  C_17
REMARK    5  A    between atoms: N_19  and  C_20
REMARK    6  A    between atoms: C_20  and  C_21
REMARK                            x       y       z     vdW  Elec       q    Type
REMARK                         _______ _______ _______ _____ _____    ______ ____
ROOT
ATOM      7  C   UNL     1      -0.875  -0.806  24.723  0.00  0.00    +0.097 C 
ATOM      8  C   UNL     1      -0.469  -0.766  24.006  0.00  0.00    +0.022 C 
ATOM      9  C   UNL     1      -0.111  -0.059  23.774  0.00  0.00    +0.002 C 
ATOM     10  C   UNL     1      -0.160   0.607  24.258  0.00  0.00    +0.002 C 
ATOM     11  C   UNL     1       0.246   0.647  23.541  0.00  0.00    +0.000 C 
ATOM     12  C   UNL     1       0.197   1.314  24.026  0.00  0.00    +0.000 C 
ATOM     13  C   UNL     1       0.148   1.979  24.510  0.00  0.00    +0.003 C 
ATOM     14  C   UNL     1      -0.258   1.939  25.227  0.00  0.00    +0.039 C 
ATOM     29  C   UNL     1      -0.615   1.233  25.460  0.00  0.00    +0.152 C 
ATOM     30  O   UNL     1      -1.021   1.193  26.176  0.00  0.00    -0.223 OA
ATOM     31  C   UNL     1      -0.566   0.567  24.975  0.00  0.00    +0.032 C 
ATOM     32  C   UNL     1      -0.924  -0.139  25.208  0.00  0.00    +0.023 C 
ATOM     33  C   UNL     1      -1.329  -0.179  25.924  0.00  0.00    +0.002 C 
ENDROOT
BRANCH   7   6
ATOM      3  N   UNL     1      -2.227  -2.518  24.760  0.00  0.00    -0.187 NA
ATOM      4  C   UNL     1      -1.870  -1.812  24.527  0.00  0.00    +0.339 C 
ATOM      5  O   UNL     1      -2.149  -1.407  23.865  0.00  0.00    -0.249 OA
ATOM      6  N   UNL     1      -1.232  -1.512  24.957  0.00  0.00    -0.189 NA
BRANCH   3   2
ATOM      1  C   UNL     1      -3.482  -3.201  24.722  0.00  0.00    +0.025 C 
ATOM      2  C   UNL     1      -2.865  -2.819  24.330  0.00  0.00    +0.117 C 
ENDBRANCH   3   2
ENDBRANCH   7   6
BRANCH  14  15
ATOM     15  C   UNL     1      -0.307   2.605  25.711  0.00  0.00    +0.081 C 
ATOM     16  C   UNL     1       0.093   2.621  26.432  0.00  0.00    +0.010 C 
BRANCH  15  17
ATOM     17  C   UNL     1      -0.757   3.255  25.474  0.00  0.00    +0.241 C 
ATOM     18  O   UNL     1      -0.389   3.908  25.130  0.00  0.00    -0.273 OA
ATOM     19  N   UNL     1      -1.576   3.251  25.581  0.00  0.00    -0.201 NA
BRANCH  19  20
ATOM     20  C   UNL     1      -2.025   3.901  25.344  0.00  0.00    +0.142 C 
BRANCH  20  21
ATOM     21  C   UNL     1      -2.836   3.815  25.215  0.00  0.00    +0.004 A 
ATOM     22  C   UNL     1      -3.126   3.755  24.444  0.00  0.00    +0.027 A 
ATOM     23  C   UNL     1      -3.936   3.670  24.315  0.00  0.00    +0.142 A 
ATOM     24  F   UNL     1      -4.226   3.610  23.544  0.00  0.00    -0.204 F 
ATOM     25  C   UNL     1      -4.455   3.644  24.954  0.00  0.00    +0.059 A 
ATOM     26  C   UNL     1      -4.166   3.704  25.724  0.00  0.00    +0.142 A 
ATOM     27  F   UNL     1      -4.686   3.679  26.364  0.00  0.00    -0.204 F 
ATOM     28  C   UNL     1      -3.355   3.790  25.854  0.00  0.00    +0.027 A 
ENDBRANCH  20  21
ENDBRANCH  19  20
ENDBRANCH  15  17
ENDBRANCH  14  15
TORSDOF 6
ENDMDL
MODEL 4
REMARK VINA RESULT:     -12.2      1.770      4.625
REMARK  Name = 
REMARK  6 active torsions:
REMARK  status: ('A' for Active; 'I' for Inactive)
REMARK    1  A    between atoms: C_2  and  N_3
REMARK    2  A    between atoms: N_6  and  C_7
REMARK    3  A    between atoms: C_14  and  C_15
REMARK    4  A    between atoms: C_15  and  C_17
REMARK    5  A    between atoms: N_19  and  C_20
REMARK    6  A    between atoms: C_20  and  C_21
REMARK                            x       y       z     vdW  Elec       q    Type
REMARK                         _______ _______ _______ _____ _____    ______ ____
ROOT
ATOM      7  C   UNL     1      -3.619   3.518  24.698  0.00  0.00    +0.097 C 
ATOM      8  C   UNL     1      -4.228   3.764  25.196  0.00  0.00    +0.022 C 
ATOM      9  C   UNL     1      -4.774   3.216  25.482  0.00  0.00    +0.002 C 
ATOM     10  C   UNL     1      -4.712   2.422  25.270  0.00  0.00    +0.002 C 
ATOM     11  C   UNL     1      -5.321   2.669  25.769  0.00  0.00    +0.000 C 
ATOM     12  C   UNL     1      -5.258   1.873  25.556  0.00  0.00    +0.000 C 
ATOM     13  C   UNL     1      -5.195   1.079  25.345  0.00  0.00    +0.003 C 
ATOM     14  C   UNL     1      -4.585   0.832  24.847  0.00  0.00    +0.039 C 
ATOM     29  C   UNL     1      -4.039   1.379  24.560  0.00  0.00    +0.152 C 
ATOM     30  O   UNL     1      -3.430   1.133  24.062  0.00  0.00    -0.223 OA
ATOM     31  C   UNL     1      -4.102   2.175  24.772  0.00  0.00    +0.032 C 
ATOM     32  C   UNL     1      -3.556   2.722  24.485  0.00  0.00    +0.023 C 
ATOM     33  C   UNL     1      -2.947   2.475  23.988  0.00  0.00    +0.002 C 
ENDROOT
BRANCH   7   6
ATOM      3  N   UNL     1      -1.982   4.960  24.639  0.00  0.00    -0.187 NA
ATOM      4  C   UNL     1      -2.529   4.413  24.926  0.00  0.00    +0.339 C 
ATOM      5  O   UNL     1      -2.532   4.213  25.726  0.00  0.00    -0.249 OA
ATOM      6  N   UNL     1      -3.072   4.065  24.411  0.00  0.00    -0.189 NA
BRANCH   3   2
ATOM      1  C   UNL     1      -0.694   5.531  24.878  0.00  0.00    +0.025 C 
ATOM      2  C   UNL     1      -1.439   5.308  25.154  0.00  0.00    +0.117 C 
ENDBRANCH   3   2
ENDBRANCH   7   6
BRANCH  14  15
ATOM     15  C   UNL     1      -4.522   0.038  24.634  0.00  0.00    +0.081 C 
ATOM     16  C   UNL     1      -4.863  -0.231  23.934  0.00  0.00    +0.010 C 
BRANCH  15  17
ATOM     17  C   UNL     1      -4.116  -0.489  25.124  0.00  0.00    +0.241 C 
ATOM     18  O   UNL     1      -4.373  -0.615  25.898  0.00  0.00    -0.273 OA
ATOM     19  N   UNL     1      -3.452  -0.889  24.839  0.00  0.00    -0.201 NA
BRANCH  19  20
ATOM     20  C   UNL     1      -3.047  -1.414  25.329  0.00  0.00    +0.142 C 
BRANCH  20  21
ATOM     21  C   UNL     1      -2.313  -1.711  25.096  0.00  0.00    +0.004 A 
ATOM     22  C   UNL     1      -1.620  -1.389  25.410  0.00  0.00    +0.027 A 
ATOM     23  C   UNL     1      -0.886  -1.686  25.177  0.00  0.00    +0.142 A 
ATOM     24  F   UNL     1      -0.194  -1.364  25.491  0.00  0.00    -0.204 F 
ATOM     25  C   UNL     1      -0.845  -2.302  24.632  0.00  0.00    +0.059 A 
ATOM     26  C   UNL     1      -1.536  -2.624  24.319  0.00  0.00    +0.142 A 
ATOM     27  F   UNL     1      -1.494  -3.241  23.773  0.00  0.00    -0.204 F 
ATOM     28  C   UNL     1      -2.271  -2.328  24.551  0.00  0.00    +0.027 A 
ENDBRANCH  20  21
ENDBRANCH  19  20
ENDBRANCH  15  17
ENDBRANCH  14  15
TORSDOF 6
ENDMDL
MODEL 5
REMARK VINA RESULT:     -11.9      2.740      4.486
REMARK  Name = 
REMARK  6 active torsions:
REMARK  status: ('A' for Active; 'I' for Inactive)
REMARK    1  A    between atoms: C_2  and  N_3
REMARK    2  A    between atoms: N_6  and  C_7
REMARK    3  A    between atoms: C_14  and  C_15
REMARK    4  A    between atoms: C_15  and  C_17
REMARK    5  A    between atoms: N_19  and  C_20
REMARK    6  A    between atoms: C_20  and  C_21
REMARK                            x       y       z     vdW  Elec       q    Type
REMARK                         _______ _______ _______ _____ _____    ______ ____
ROOT
ATOM      7  C   UNL     1      -0.464   0.167  24.192  0.00  0.00    +0.097 C 
ATOM      8  C   UNL     1      -0.299  -0.376  24.791  0.00  0.00    +0.022 C 
ATOM      9  C   UNL     1      -0.917  -0.720  25.216  0.00  0.00    +0.002 C 
ATOM     10  C   UNL     1      -1.698  -0.521  25.044  0.00  0.00    +0.002 C 
ATOM     11  C   UNL     1      -1.533  -1.064  25.643  0.00  0.00    +0.000 C 
ATOM     12  C   UNL     1      -2.316  -0.865  25.470  0.00  0.00    +0.000 C 
ATOM     13  C   UNL     1      -3.097  -0.667  25.297  0.00  0.00    +0.003 C 
ATOM     14  C   UNL     1      -3.262  -0.124  24.698  0.00  0.00    +0.039 C 
ATOM     29  C   UNL     1      -2.645   0.221  24.272  0.00  0.00    +0.152 C 
ATOM     30  O   UNL     1      -2.810   0.763  23.674  0.00  0.00    -0.223 OA
ATOM     31  C   UNL     1      -1.863   0.022  24.445  0.00  0.00    +0.032 C 
ATOM     32  C   UNL     1      -1.246   0.366  24.019  0.00  0.00    +0.023 C 
ATOM     33  C   UNL     1      -1.411   0.908  23.420  0.00  0.00    +0.002 C 
ENDROOT
BRANCH   7   6
ATOM      3  N   UNL     1       1.339   0.378  22.981  0.00  0.00    -0.187 NA
ATOM      4  C   UNL     1       0.723   0.034  23.407  0.00  0.00    +0.339 C 
ATOM      5  O   UNL     1       0.676  -0.787  23.475  0.00  0.00    -0.249 OA
ATOM      6  N   UNL     1       0.152   0.511  23.765  0.00  0.00    -0.189 NA
BRANCH   3   2
ATOM      1  C   UNL     1       2.611   0.234  22.346  0.00  0.00    +0.025 C 
ATOM      2  C   UNL     1       1.910  -0.100  22.622  0.00  0.00    +0.117 C 
ENDBRANCH   3   2
ENDBRANCH   7   6
BRANCH  14  15
ATOM     15  C   UNL     1      -4.043   0.075  24.525  0.00  0.00    +0.081 C 
ATOM     16  C   UNL     1      -4.381  -0.162  23.812  0.00  0.00    +0.010 C 
BRANCH  15  17
ATOM     17  C   UNL     1      -4.487   0.513  25.067  0.00  0.00    +0.241 C 
ATOM     18  O   UNL     1      -4.854   0.134  25.701  0.00  0.00    -0.273 OA
ATOM     19  N   UNL     1      -4.563   1.330  24.974  0.00  0.00    -0.201 NA
BRANCH  19  20
ATOM     20  C   UNL     1      -5.007   1.766  25.516  0.00  0.00    +0.142 C 
BRANCH  20  21
ATOM     21  C   UNL     1      -4.952   2.589  25.524  0.00  0.00    +0.004 A 
ATOM     22  C   UNL     1      -5.638   3.048  25.522  0.00  0.00    +0.027 A 
ATOM     23  C   UNL     1      -5.584   3.871  25.530  0.00  0.00    +0.142 A 
ATOM     24  F   UNL     1      -6.270   4.330  25.529  0.00  0.00    -0.204 F 
ATOM     25  C   UNL     1      -4.844   4.235  25.540  0.00  0.00    +0.059 A 
ATOM     26  C   UNL     1      -4.158   3.777  25.541  0.00  0.00    +0.142 A 
ATOM     27  F   UNL     1      -3.418   4.142  25.550  0.00  0.00    -0.204 F 
ATOM     28  C   UNL     1      -4.213   2.953  25.533  0.00  0.00    +0.027 A 
ENDBRANCH  20  21
ENDBRANCH  19  20
ENDBRANCH  15  17
ENDBRANCH  14  15
TORSDOF 6
ENDMDL
MODEL 6
REMARK VINA RESULT:     -11.7      2.883      4.572
REMARK  Name = 
REMARK  6 active torsions:
REMARK  status: ('A' for Active; 'I' for Inactive)
REMARK    1  A    between atoms: C_2  and  N_3
REMARK    2  A    between atoms: N_6  and  C_7
REMARK    3  A    between atoms: C_14  and  C_15
REMARK    4  A    between atoms: C_15  and  C_17
REMARK    5  A    between atoms: N_19  and  C_20
REMARK    6  A    between atoms: C_20  and  C_21
REMARK                            x       y       z     vdW  Elec       q    Type
REMARK                         _______ _______ _______ _____ _____    ______ ____
ROOT
ATOM      7  C   UNL     1      -0.379   1.298  24.355  0.00  0.00    +0.097 C 
ATOM      8  C   UNL     1       0.069   1.362  25.045  0.00  0.00    +0.022 C 
ATOM      9  C   UNL     1      -0.121   1.937  25.606  0.00  0.00    +0.002 C 
ATOM     10  C   UNL     1      -0.756   2.446  25.478  0.00  0.00    +0.002 C 
ATOM     11  C   UNL     1      -0.309   2.511  26.168  0.00  0.00    +0.000 C 
ATOM     12  C   UNL     1      -0.945   3.021  26.039  0.00  0.00    +0.000 C 
ATOM     13  C   UNL     1      -1.580   3.531  25.911  0.00  0.00    +0.003 C 
ATOM     14  C   UNL     1      -2.027   3.466  25.220  0.00  0.00    +0.039 C 
ATOM     29  C   UNL     1      -1.839   2.892  24.659  0.00  0.00    +0.152 C 
ATOM     30  O   UNL     1      -2.286   2.828  23.969  0.00  0.00    -0.223 OA
ATOM     31  C   UNL     1      -1.203   2.382  24.788  0.00  0.00    +0.032 C 
ATOM     32  C   UNL     1      -1.015   1.808  24.226  0.00  0.00    +0.023 C 
ATOM     33  C   UNL     1      -1.462   1.743  23.536  0.00  0.00    +0.002 C 
ENDROOT
BRANCH   7   6
ATOM      3  N   UNL     1       0.773   0.079  22.958  0.00  0.00    -0.187 NA
ATOM      4  C   UNL     1       0.585   0.654  23.519  0.00  0.00    +0.339 C 
ATOM      5  O   UNL     1       1.172   1.157  23.807  0.00  0.00    -0.249 OA
ATOM      6  N   UNL     1      -0.191   0.724  23.793  0.00  0.00    -0.189 NA
BRANCH   3   2
ATOM      1  C   UNL     1       1.697  -0.342  21.952  0.00  0.00    +0.025 C 
ATOM      2  C   UNL     1       1.549   0.009  22.684  0.00  0.00    +0.117 C 
ENDBRANCH   3   2
ENDBRANCH   7   6
BRANCH  14  15
ATOM     15  C   UNL     1      -2.663   3.975  25.091  0.00  0.00    +0.081 C 
ATOM     16  C   UNL     1      -2.637   4.518  24.472  0.00  0.00    +0.010 C 
BRANCH  15  17
ATOM     17  C   UNL     1      -3.325   3.941  25.583  0.00  0.00    +0.241 C 
ATOM     18  O   UNL     1      -3.320   4.329  26.311  0.00  0.00    -0.273 OA
ATOM     19  N   UNL     1      -3.994   3.518  25.345  0.00  0.00    -0.201 NA
BRANCH  19  20
ATOM     20  C   UNL     1      -4.655   3.484  25.837  0.00  0.00    +0.142 C 
BRANCH  20  21
ATOM     21  C   UNL     1      -5.216   2.889  25.730  0.00  0.00    +0.004 A 
ATOM     22  C   UNL     1      -5.615   2.576  26.383  0.00  0.00    +0.027 A 
ATOM     23  C   UNL     1      -6.176   1.981  26.276  0.00  0.00    +0.142 A 
ATOM     24  F   UNL     1      -6.574   1.669  26.928  0.00  0.00    -0.204 F 
ATOM     25  C   UNL     1      -6.339   1.699  25.519  0.00  0.00    +0.059 A 
ATOM     26  C   UNL     1      -5.941   2.011  24.867  0.00  0.00    +0.142 A 
ATOM     27  F   UNL     1      -6.105   1.728  24.110  0.00  0.00    -0.204 F 
ATOM     28  C   UNL     1      -5.380   2.606  24.974  0.00  0.00    +0.027 A 
ENDBRANCH  20  21
ENDBRANCH  19  20
ENDBRANCH  15  17
ENDBRANCH  14  15
TORSDOF 6
ENDMDL
MODEL 7
REMARK VINA RESULT:     -11.6      2.320      5.077
REMARK  Name = 
REMARK  6 active torsions:
REMARK  status: ('A' for Active; 'I' for Inactive)
REMARK    1  A    between atoms: C_2  and  N_3
REMARK    2  A    between atoms: N_6  and  C_7
REMARK    3  A    between atoms: C_14  and  C_15
REMARK    4  A    between atoms: C_15  and  C_17
REMARK    5  A    between atoms: N_19  and  C_20
REMARK    6  A    between atoms: C_20  and  C_21
REMARK                            x       y       z     vdW  Elec       q    Type
REMARK                         _______ _______ _______ _____ _____    ______ ____
ROOT
ATOM      7  C   UNL     1      -0.449   2.839  25.919  0.00  0.00    +0.097 C 
ATOM      8  C   UNL     1      -0.873   3.506  26.156  0.00  0.00    +0.022 C 
ATOM      9  C   UNL     1      -1.629   3.642  25.855  0.00  0.00    +0.002 C 
ATOM     10  C   UNL     1      -1.961   3.113  25.318  0.00  0.00    +0.002 C 
ATOM     11  C   UNL     1      -2.385   3.779  25.555  0.00  0.00    +0.000 C 
ATOM     12  C   UNL     1      -2.717   3.249  25.017  0.00  0.00    +0.000 C 
ATOM     13  C   UNL     1      -3.049   2.720  24.479  0.00  0.00    +0.003 C 
ATOM     14  C   UNL     1      -2.625   2.053  24.241  0.00  0.00    +0.039 C 
ATOM     29  C   UNL     1      -1.869   1.916  24.541  0.00  0.00    +0.152 C 
ATOM     30  O   UNL     1      -1.445   1.250  24.303  0.00  0.00    -0.223 OA
ATOM     31  C   UNL     1      -1.537   2.446  25.080  0.00  0.00    +0.032 C 
ATOM     32  C   UNL     1      -0.781   2.309  25.380  0.00  0.00    +0.023 C 
ATOM     33  C   UNL     1      -0.357   1.643  25.142  0.00  0.00    +0.002 C 
ENDROOT
BRANCH   7   6
ATOM      3  N   UNL     1       1.184   2.540  27.335  0.00  0.00    -0.187 NA
ATOM      4  C   UNL     1       0.428   2.677  27.035  0.00  0.00    +0.339 C 
ATOM      5  O   UNL     1      -0.206   2.789  27.550  0.00  0.00    -0.249 OA
ATOM      6  N   UNL     1       0.307   2.702  26.219  0.00  0.00    -0.189 NA
BRANCH   3   2
ATOM      1  C   UNL     1       2.048   2.693  28.463  0.00  0.00    +0.025 C 
ATOM      2  C   UNL     1       1.306   2.515  28.151  0.00  0.00    +0.117 C 
ENDBRANCH   3   2
ENDBRANCH   7   6
BRANCH  14  15
ATOM     15  C   UNL     1      -2.956   1.523  23.703  0.00  0.00    +0.081 C 
ATOM     16  C   UNL     1      -2.656   1.470  22.937  0.00  0.00    +0.010 C 
BRANCH  15  17
ATOM     17  C   UNL     1      -3.590   1.046  23.932  0.00  0.00    +0.241 C 
ATOM     18  O   UNL     1      -4.331   1.380  24.067  0.00  0.00    -0.273 OA
ATOM     19  N   UNL     1      -3.480   0.232  24.025  0.00  0.00    -0.201 NA
BRANCH  19  20
ATOM     20  C   UNL     1      -4.113  -0.244  24.254  0.00  0.00    +0.142 C 
BRANCH  20  21
ATOM     21  C   UNL     1      -3.997  -1.052  24.376  0.00  0.00    +0.004 A 
ATOM     22  C   UNL     1      -4.243  -1.595  23.804  0.00  0.00    +0.027 A 
ATOM     23  C   UNL     1      -4.127  -2.402  23.926  0.00  0.00    +0.142 A 
ATOM     24  F   UNL     1      -4.373  -2.945  23.355  0.00  0.00    -0.204 F 
ATOM     25  C   UNL     1      -3.765  -2.667  24.617  0.00  0.00    +0.059 A 
ATOM     26  C   UNL     1      -3.519  -2.125  25.188  0.00  0.00    +0.142 A 
ATOM     27  F   UNL     1      -3.156  -2.391  25.880  0.00  0.00    -0.204 F 
ATOM     28  C   UNL     1      -3.635  -1.317  25.067  0.00  0.00    +0.027 A 
ENDBRANCH  20  21
ENDBRANCH  19  20
ENDBRANCH  15  17
ENDBRANCH  14  15
TORSDOF 6
ENDMDL
MODEL 8
REMARK VINA RESULT:     -11.6      2.178      4.509
REMARK  Name = 
REMARK  6 active torsions:
REMARK  status: ('A' for Active; 'I' for Inactive)
REMARK    1  A    between atoms: C_2  and  N_3
REMARK    2  A    between atoms: N_6  and  C_7
REMARK    3  A    between atoms: C_14  and  C_15
REMARK    4  A    between atoms: C_15  and  C_17
REMARK    5  A    between atoms: N_19  and  C_20
REMARK    6  A    between atoms: C_20  and  C_21
REMARK                            x       y       z     vdW  Elec       q    Type
REMARK                         _______ _______ _______ _____ _____    ______ ____
ROOT
ATOM      7  C   UNL     1      -0.507   2.790  24.339  0.00  0.00    +0.097 C 
ATOM      8  C   UNL     1      -0.388   3.161  25.066  0.00  0.00    +0.022 C 
ATOM      9  C   UNL     1      -1.035   3.348  25.543  0.00  0.00    +0.002 C 
ATOM     10  C   UNL     1      -1.799   3.164  25.295  0.00  0.00    +0.002 C 
ATOM     11  C   UNL     1      -1.680   3.536  26.022  0.00  0.00    +0.000 C 
ATOM     12  C   UNL     1      -2.445   3.352  25.772  0.00  0.00    +0.000 C 
ATOM     13  C   UNL     1      -3.209   3.168  25.523  0.00  0.00    +0.003 C 
ATOM     14  C   UNL     1      -3.328   2.796  24.796  0.00  0.00    +0.039 C 
ATOM     29  C   UNL     1      -2.683   2.609  24.318  0.00  0.00    +0.152 C 
ATOM     30  O   UNL     1      -2.802   2.238  23.592  0.00  0.00    -0.223 OA
ATOM     31  C   UNL     1      -1.918   2.793  24.568  0.00  0.00    +0.032 C 
ATOM     32  C   UNL     1      -1.272   2.605  24.089  0.00  0.00    +0.023 C 
ATOM     33  C   UNL     1      -1.391   2.234  23.363  0.00  0.00    +0.002 C 
ENDROOT
BRANCH   7   6
ATOM      3  N   UNL     1       1.278   1.785  23.585  0.00  0.00    -0.187 NA
ATOM      4  C   UNL     1       0.632   1.972  24.063  0.00  0.00    +0.339 C 
ATOM      5  O   UNL     1       0.480   1.531  24.744  0.00  0.00    -0.249 OA
ATOM      6  N   UNL     1       0.138   2.602  23.861  0.00  0.00    -0.189 NA
BRANCH   3   2
ATOM      1  C   UNL     1       2.267   0.821  23.220  0.00  0.00    +0.025 C 
ATOM      2  C   UNL     1       1.772   1.155  23.788  0.00  0.00    +0.117 C 
ENDBRANCH   3   2
ENDBRANCH   7   6
BRANCH  14  15
ATOM     15  C   UNL     1      -4.092   2.612  24.547  0.00  0.00    +0.081 C 
ATOM     16  C   UNL     1      -4.459   3.070  23.968  0.00  0.00    +0.010 C 
BRANCH  15  17
ATOM     17  C   UNL     1      -4.490   1.968  24.877  0.00  0.00    +0.241 C 
ATOM     18  O   UNL     1      -5.082   2.093  25.438  0.00  0.00    -0.273 OA
ATOM     19  N   UNL     1      -4.295   1.200  24.647  0.00  0.00    -0.201 NA
BRANCH  19  20
ATOM     20  C   UNL     1      -4.692   0.557  24.977  0.00  0.00    +0.142 C 
BRANCH  20  21
ATOM     21  C   UNL     1      -4.389  -0.204  24.887  0.00  0.00    +0.004 A 
ATOM     22  C   UNL     1      -4.507  -0.614  24.180  0.00  0.00    +0.027 A 
ATOM     23  C   UNL     1      -4.203  -1.375  24.090  0.00  0.00    +0.142 A 
ATOM     24  F   UNL     1      -4.321  -1.785  23.382  0.00  0.00    -0.204 F 
ATOM     25  C   UNL     1      -3.784  -1.728  24.705  0.00  0.00    +0.059 A 
ATOM     26  C   UNL     1      -3.666  -1.319  25.412  0.00  0.00    +0.142 A 
ATOM     27  F   UNL     1      -3.246  -1.672  26.028  0.00  0.00    -0.204 F 
ATOM     28  C   UNL     1      -3.969  -0.557  25.503  0.00  0.00    +0.027 A 
ENDBRANCH  20  21
ENDBRANCH  19  20
ENDBRANCH  15  17
ENDBRANCH  14  15
TORSDOF 6
ENDMDL
MODEL 9
REMARK VINA RESULT:     -11.4      3.062      5.258
REMARK  Name = 
REMARK  6 active torsions:
REMARK  status: ('A' for Active; 'I' for Inactive)
REMARK    1  A    between atoms: C_2  and  N_3
REMARK    2  A    between atoms: N_6  and  C_7
REMARK    3  A    between atoms: C_14  and  C_15
REMARK    4  A    between atoms: C_15  and  C_17
REMARK    5  A    between atoms: N_19  and  C_20
REMARK    6  A    between atoms: C_20  and  C_21
REMARK                            x       y       z     vdW  Elec       q    Type
REMARK                         _______ _______ _______ _____ _____    ______ ____
ROOT
ATOM      7  C   UNL     1       0.891   0.723  23.592  0.00  0.00    +0.097 C 
ATOM      8  C   UNL     1       0.988   1.495  23.867  0.00  0.00    +0.022 C 
ATOM      9  C   UNL     1       0.383   1.859  24.294  0.00  0.00    +0.002 C 
ATOM     10  C   UNL     1      -0.318   1.452  24.446  0.00  0.00    +0.002 C 
ATOM     11  C   UNL     1      -0.221   2.224  24.721  0.00  0.00    +0.000 C 
ATOM     12  C   UNL     1      -0.923   1.816  24.873  0.00  0.00    +0.000 C 
ATOM     13  C   UNL     1      -1.624   1.410  25.025  0.00  0.00    +0.003 C 
ATOM     14  C   UNL     1      -1.721   0.638  24.749  0.00  0.00    +0.039 C 
ATOM     29  C   UNL     1      -1.117   0.273  24.322  0.00  0.00    +0.152 C 
ATOM     30  O   UNL     1      -1.214  -0.498  24.047  0.00  0.00    -0.223 OA
ATOM     31  C   UNL     1      -0.415   0.681  24.171  0.00  0.00    +0.032 C 
ATOM     32  C   UNL     1       0.189   0.316  23.744  0.00  0.00    +0.023 C 
ATOM     33  C   UNL     1       0.092  -0.455  23.468  0.00  0.00    +0.002 C 
ENDROOT
BRANCH   7   6
ATOM      3  N   UNL     1       2.841   0.351  22.686  0.00  0.00    -0.187 NA
ATOM      4  C   UNL     1       2.237   0.716  23.113  0.00  0.00    +0.339 C 
ATOM      5  O   UNL     1       2.374   1.438  23.487  0.00  0.00    -0.249 OA
ATOM      6  N   UNL     1       1.495   0.358  23.165  0.00  0.00    -0.189 NA
BRANCH   3   2
ATOM      1  C   UNL     1       4.260   0.244  22.555  0.00  0.00    +0.025 C 
ATOM      2  C   UNL     1       3.583   0.709  22.634  0.00  0.00    +0.117 C 
ENDBRANCH   3   2
ENDBRANCH   7   6
BRANCH  14  15
ATOM     15  C   UNL     1      -2.422   0.231  24.900  0.00  0.00    +0.081 C 
ATOM     16  C   UNL     1      -2.419  -0.423  25.403  0.00  0.00    +0.010 C 
BRANCH  15  17
ATOM     17  C   UNL     1      -3.127   0.478  24.548  0.00  0.00    +0.241 C 
ATOM     18  O   UNL     1      -3.318   0.225  23.786  0.00  0.00    -0.273 OA
ATOM     19  N   UNL     1      -3.640   0.978  24.958  0.00  0.00    -0.201 NA
BRANCH  19  20
ATOM     20  C   UNL     1      -4.344   1.224  24.606  0.00  0.00    +0.142 C 
BRANCH  20  21
ATOM     21  C   UNL     1      -4.822   1.778  24.986  0.00  0.00    +0.004 A 
ATOM     22  C   UNL     1      -4.703   2.585  24.855  0.00  0.00    +0.027 A 
ATOM     23  C   UNL     1      -5.181   3.139  25.236  0.00  0.00    +0.142 A 
ATOM     24  F   UNL     1      -5.062   3.945  25.105  0.00  0.00    -0.204 F 
ATOM     25  C   UNL     1      -5.777   2.888  25.746  0.00  0.00    +0.059 A 
ATOM     26  C   UNL     1      -5.897   2.082  25.877  0.00  0.00    +0.142 A 
ATOM     27  F   UNL     1      -6.494   1.831  26.388  0.00  0.00    -0.204 F 
ATOM     28  C   UNL     1      -5.418   1.527  25.496  0.00  0.00    +0.027 A 
ENDBRANCH  20  21
ENDBRANCH  19  20
ENDBRANCH  15  17
ENDBRANCH  14  15
TORSDOF 6
ENDMDL
