MODEL 1
REMARK VINA RESULT:      -9.6      0.000      0.000
REMARK  Name = 
REMARK  6 active torsions:
REMARK  status: ('A' for Active; 'I' for Inactive)
REMARK    1  A    between atoms: C_3  and  C_4
REMARK    2  A    between atoms: C_4  and  N_5
REMARK    3  A    between atoms: C_6  and  C_8
REMARK    4  A    between atoms: C_16  and  N_17
REMARK    5  A    between atoms: N_17  and  C_18
REMARK    6  A    between atoms: C_18  and  C_19
REMARK                            x       y       z     vdW  Elec       q    Type
REMARK                         _______ _______ _______ _____ _____    ______ ____
ROOT
ATOM      1  O   UNL     1      -3.796   2.419  24.181  0.00  0.00    -0.219 OA
ATOM      2  C   UNL     1      -3.158   2.024  24.524  0.00  0.00    +0.199 C 
ATOM      3  C   UNL     1      -3.116   1.214  24.679  0.00  0.00    +0.169 C 
ATOM     14  O   UNL     1      -2.382   1.059  25.022  0.00  0.00    -0.350 OA
ATOM     15  C   UNL     1      -1.972   1.772  25.080  0.00  0.00    +0.162 C 
ATOM     16  C   UNL     1      -2.451   2.368  24.772  0.00  0.00    +0.135 C 
ENDROOT
BRANCH   3   4
ATOM      4  C   UNL     1      -3.703   0.658  24.518  0.00  0.00    +0.148 C 
BRANCH   4   5
ATOM      5  N   UNL     1      -3.521  -0.146  24.520  0.00  0.00    -0.199 NA
ATOM      6  C   UNL     1      -4.126  -0.706  24.468  0.00  0.00    +0.265 C 
ATOM      7  O   UNL     1      -4.911  -0.460  24.414  0.00  0.00    -0.268 OA
BRANCH   6   8
ATOM      8  C   UNL     1      -3.944  -1.511  24.471  0.00  0.00    +0.055 A 
ATOM      9  C   UNL     1      -3.563  -1.846  25.122  0.00  0.00    +0.005 A 
ATOM     10  C   UNL     1      -3.381  -2.650  25.125  0.00  0.00    +0.000 A 
ATOM     11  C   UNL     1      -3.580  -3.120  24.476  0.00  0.00    +0.000 A 
ATOM     12  C   UNL     1      -3.960  -2.786  23.825  0.00  0.00    +0.000 A 
ATOM     13  C   UNL     1      -4.142  -1.981  23.823  0.00  0.00    +0.005 A 
ENDBRANCH   6   8
ENDBRANCH   4   5
ENDBRANCH   3   4
BRANCH  16  17
ATOM     17  N   UNL     1      -2.257   3.169  24.720  0.00  0.00    -0.209 NA
BRANCH  17  18
ATOM     18  C   UNL     1      -1.644   3.475  25.179  0.00  0.00    +0.122 C 
BRANCH  18  19
ATOM     19  C   UNL     1      -1.407   4.259  25.081  0.00  0.00    +0.025 A 
ATOM     20  C   UNL     1      -1.845   4.928  25.284  0.00  0.00    +0.004 A 
ATOM     21  C   UNL     1      -1.399   5.593  25.091  0.00  0.00    +0.007 A 
ATOM     22  C   UNL     1      -0.685   5.337  24.767  0.00  0.00    +0.035 A 
ATOM     23  S   UNL     1      -0.690   4.512  24.760  0.00  0.00    -0.089 S 
ENDBRANCH  18  19
ENDBRANCH  17  18
ENDBRANCH  16  17
TORSDOF 6
ENDMDL
MODEL 2
REMARK VINA RESULT:      -9.2      1.821      5.953
REMARK  Name = 
REMARK  6 active torsions:
REMARK  status: ('A' for Active; 'I' for Inactive)
REMARK    1  A    between atoms: C_3  and  C_4
REMARK    2  A    between atoms: C_4  and  N_5
REMARK    3  A    between atoms: C_6  and  C_8
REMARK    4  A    between atoms: C_16  and  N_17
REMARK    5  A    between atoms: N_17  and  C_18
REMARK    6  A    between atoms: C_18  and  C_19
REMARK                            x       y       z     vdW  Elec       q    Type
REMARK                         _______ _______ _______ _____ _____    ______ ____
ROOT
ATOM      1  O   UNL     1      -1.158   0.015  25.235  0.00  0.00    -0.219 OA
ATOM      2  C   UNL     1      -1.864   0.417  25.093  0.00  0.00    +0.199 C 
ATOM      3  C   UNL     1      -1.975   1.234  25.146  0.00  0.00    +0.169 C 
ATOM     14  O   UNL     1      -2.762   1.395  24.959  0.00  0.00    -0.350 OA
ATOM     15  C   UNL     1      -3.137   0.680  24.792  0.00  0.00    +0.162 C 
ATOM     16  C   UNL     1      -2.582   0.076  24.875  0.00  0.00    +0.135 C 
ENDROOT
BRANCH   3   4
ATOM      4  C   UNL     1      -1.401   1.789  25.348  0.00  0.00    +0.148 C 
BRANCH   4   5
ATOM      5  N   UNL     1      -1.512   2.584  25.159  0.00  0.00    -0.199 NA
ATOM      6  C   UNL     1      -1.025   3.160  25.496  0.00  0.00    +0.265 C 
ATOM      7  O   UNL     1      -0.429   2.940  26.021  0.00  0.00    -0.268 OA
BRANCH   6   8
ATOM      8  C   UNL     1      -1.136   3.956  25.306  0.00  0.00    +0.055 A 
ATOM      9  C   UNL     1      -0.573   4.354  24.852  0.00  0.00    +0.005 A 
ATOM     10  C   UNL     1      -0.684   5.149  24.663  0.00  0.00    +0.000 A 
ATOM     11  C   UNL     1      -1.357   5.546  24.928  0.00  0.00    +0.000 A 
ATOM     12  C   UNL     1      -1.920   5.148  25.381  0.00  0.00    +0.000 A 
ATOM     13  C   UNL     1      -1.809   4.353  25.570  0.00  0.00    +0.005 A 
ENDBRANCH   6   8
ENDBRANCH   4   5
ENDBRANCH   3   4
BRANCH  16  17
ATOM     17  N   UNL     1      -2.720  -0.730  24.759  0.00  0.00    -0.209 NA
BRANCH  17  18
ATOM     18  C   UNL     1      -3.492  -1.020  24.758  0.00  0.00    +0.122 C 
BRANCH  18  19
ATOM     19  C   UNL     1      -3.639  -1.803  24.544  0.00  0.00    +0.025 A 
ATOM     20  C   UNL     1      -3.359  -2.473  24.935  0.00  0.00    +0.004 A 
ATOM     21  C   UNL     1      -3.638  -3.137  24.534  0.00  0.00    +0.007 A 
ATOM     22  C   UNL     1      -4.091  -2.879  23.894  0.00  0.00    +0.035 A 
ATOM     23  S   UNL     1      -4.091  -2.053  23.900  0.00  0.00    -0.089 S 
ENDBRANCH  18  19
ENDBRANCH  17  18
ENDBRANCH  16  17
TORSDOF 6
ENDMDL
MODEL 3
REMARK VINA RESULT:      -9.0      1.572      1.810
REMARK  Name = 
REMARK  6 active torsions:
REMARK  status: ('A' for Active; 'I' for Inactive)
REMARK    1  A    between atoms: C_3  and  C_4
REMARK    2  A    between atoms: C_4  and  N_5
REMARK    3  A    between atoms: C_6  and  C_8
REMARK    4  A    between atoms: C_16  and  N_17
REMARK    5  A    between atoms: N_17  and  C_18
REMARK    6  A    between atoms: C_18  and  C_19
REMARK                            x       y       z     vdW  Elec       q    Type
REMARK                         _______ _______ _______ _____ _____    ______ ____
ROOT
ATOM      1  O   UNL     1      -1.071   1.292  23.709  0.00  0.00    -0.219 OA
ATOM      2  C   UNL     1      -1.042   1.204  24.529  0.00  0.00    +0.199 C 
ATOM      3  C   UNL     1      -1.076   0.489  24.941  0.00  0.00    +0.169 C 
ATOM     14  O   UNL     1      -1.028   0.658  25.747  0.00  0.00    -0.350 OA
ATOM     15  C   UNL     1      -0.965   1.476  25.832  0.00  0.00    +0.162 C 
ATOM     16  C   UNL     1      -0.973   1.813  25.080  0.00  0.00    +0.135 C 
ENDROOT
BRANCH   3   4
ATOM      4  C   UNL     1      -1.145  -0.261  24.606  0.00  0.00    +0.148 C 
BRANCH   4   5
ATOM      5  N   UNL     1      -1.876  -0.643  24.599  0.00  0.00    -0.199 NA
ATOM      6  C   UNL     1      -1.922  -1.442  24.397  0.00  0.00    +0.265 C 
ATOM      7  O   UNL     1      -1.236  -1.858  24.202  0.00  0.00    -0.268 OA
BRANCH   6   8
ATOM      8  C   UNL     1      -2.653  -1.825  24.391  0.00  0.00    +0.055 A 
ATOM      9  C   UNL     1      -3.302  -1.469  24.025  0.00  0.00    +0.005 A 
ATOM     10  C   UNL     1      -4.032  -1.851  24.019  0.00  0.00    +0.000 A 
ATOM     11  C   UNL     1      -4.114  -2.590  24.377  0.00  0.00    +0.000 A 
ATOM     12  C   UNL     1      -3.467  -2.946  24.742  0.00  0.00    +0.000 A 
ATOM     13  C   UNL     1      -2.736  -2.563  24.749  0.00  0.00    +0.005 A 
ENDBRANCH   6   8
ENDBRANCH   4   5
ENDBRANCH   3   4
BRANCH  16  17
ATOM     17  N   UNL     1      -0.922   2.619  24.908  0.00  0.00    -0.209 NA
BRANCH  17  18
ATOM     18  C   UNL     1      -1.068   3.176  25.498  0.00  0.00    +0.122 C 
BRANCH  18  19
ATOM     19  C   UNL     1      -1.165   3.972  25.300  0.00  0.00    +0.025 A 
ATOM     20  C   UNL     1      -0.595   4.459  24.957  0.00  0.00    +0.004 A 
ATOM     21  C   UNL     1      -0.927   5.207  24.855  0.00  0.00    +0.007 A 
ATOM     22  C   UNL     1      -1.703   5.183  25.134  0.00  0.00    +0.035 A 
ATOM     23  S   UNL     1      -1.850   4.418  25.409  0.00  0.00    -0.089 S 
ENDBRANCH  18  19
ENDBRANCH  17  18
ENDBRANCH  16  17
TORSDOF 6
ENDMDL
MODEL 4
REMARK VINA RESULT:      -6.8      3.140      4.392
REMARK  Name = 
REMARK  6 active torsions:
REMARK  status: ('A' for Active; 'I' for Inactive)
REMARK    1  A    between atoms: C_3  and  C_4
REMARK    2  A    between atoms: C_4  and  N_5
REMARK    3  A    between atoms: C_6  and  C_8
REMARK    4  A    between atoms: C_16  and  N_17
REMARK    5  A    between atoms: N_17  and  C_18
REMARK    6  A    between atoms: C_18  and  C_19
REMARK                            x       y       z     vdW  Elec       q    Type
REMARK                         _______ _______ _______ _____ _____    ______ ____
ROOT
ATOM      1  O   UNL     1      -1.976   0.840  25.319  0.00  0.00    -0.219 OA
ATOM      2  C   UNL     1      -1.963   1.179  24.567  0.00  0.00    +0.199 C 
ATOM      3  C   UNL     1      -1.447   0.980  23.954  0.00  0.00    +0.169 C 
ATOM     14  O   UNL     1      -1.629   1.454  23.305  0.00  0.00    -0.350 OA
ATOM     15  C   UNL     1      -2.257   1.946  23.516  0.00  0.00    +0.162 C 
ATOM     16  C   UNL     1      -2.463   1.776  24.295  0.00  0.00    +0.135 C 
ENDROOT
BRANCH   3   4
ATOM      4  C   UNL     1      -0.854   0.408  23.987  0.00  0.00    +0.148 C 
BRANCH   4   5
ATOM      5  N   UNL     1      -0.140   0.532  23.593  0.00  0.00    -0.199 NA
ATOM      6  C   UNL     1       0.396  -0.090  23.505  0.00  0.00    +0.265 C 
ATOM      7  O   UNL     1       0.216  -0.835  23.810  0.00  0.00    -0.268 OA
BRANCH   6   8
ATOM      8  C   UNL     1       1.111   0.034  23.112  0.00  0.00    +0.055 A 
ATOM      9  C   UNL     1       1.237  -0.303  22.369  0.00  0.00    +0.005 A 
ATOM     10  C   UNL     1       1.951  -0.179  21.976  0.00  0.00    +0.000 A 
ATOM     11  C   UNL     1       2.540   0.282  22.325  0.00  0.00    +0.000 A 
ATOM     12  C   UNL     1       2.414   0.619  23.067  0.00  0.00    +0.000 A 
ATOM     13  C   UNL     1       1.699   0.495  23.461  0.00  0.00    +0.005 A 
ENDBRANCH   6   8
ENDBRANCH   4   5
ENDBRANCH   3   4
BRANCH  16  17
ATOM     17  N   UNL     1      -3.064   2.139  24.728  0.00  0.00    -0.209 NA
BRANCH  17  18
ATOM     18  C   UNL     1      -3.725   2.444  24.341  0.00  0.00    +0.122 C 
BRANCH  18  19
ATOM     19  C   UNL     1      -4.366   2.727  24.777  0.00  0.00    +0.025 A 
ATOM     20  C   UNL     1      -5.082   2.335  24.897  0.00  0.00    +0.004 A 
ATOM     21  C   UNL     1      -5.561   2.817  25.364  0.00  0.00    +0.007 A 
ATOM     22  C   UNL     1      -5.142   3.507  25.533  0.00  0.00    +0.035 A 
ATOM     23  S   UNL     1      -4.402   3.452  25.170  0.00  0.00    -0.089 S 
ENDBRANCH  18  19
ENDBRANCH  17  18
ENDBRANCH  16  17
TORSDOF 6
ENDMDL
MODEL 5
REMARK VINA RESULT:      -6.3     14.578     16.924
REMARK  Name = 
REMARK  6 active torsions:
REMARK  status: ('A' for Active; 'I' for Inactive)
REMARK    1  A    between atoms: C_3  and  C_4
REMARK    2  A    between atoms: C_4  and  N_5
REMARK    3  A    between atoms: C_6  and  C_8
REMARK    4  A    between atoms: C_16  and  N_17
REMARK    5  A    between atoms: N_17  and  C_18
REMARK    6  A    between atoms: C_18  and  C_19
REMARK                            x       y       z     vdW  Elec       q    Type
REMARK                         _______ _______ _______ _____ _____    ______ ____
ROOT
ATOM      1  O   UNL     1      -2.742 -10.448  14.061  0.00  0.00    -0.219 OA
ATOM      2  C   UNL     1      -3.534 -10.495  13.837  0.00  0.00    +0.199 C 
ATOM      3  C   UNL     1      -3.821 -10.475  13.063  0.00  0.00    +0.169 C 
ATOM     14  O   UNL     1      -4.642 -10.537  13.094  0.00  0.00    -0.350 OA
ATOM     15  C   UNL     1      -4.863 -10.595  13.887  0.00  0.00    +0.162 C 
ATOM     16  C   UNL     1      -4.179 -10.569  14.345  0.00  0.00    +0.135 C 
ENDROOT
BRANCH   3   4
ATOM      4  C   UNL     1      -3.365 -10.406  12.379  0.00  0.00    +0.148 C 
BRANCH   4   5
ATOM      5  N   UNL     1      -3.721 -10.191  11.667  0.00  0.00    -0.199 NA
ATOM      6  C   UNL     1      -3.265 -10.117  10.983  0.00  0.00    +0.265 C 
ATOM      7  O   UNL     1      -2.453 -10.258  11.012  0.00  0.00    -0.268 OA
BRANCH   6   8
ATOM      8  C   UNL     1      -3.621  -9.901  10.271  0.00  0.00    +0.055 A 
ATOM      9  C   UNL     1      -3.637  -9.109  10.040  0.00  0.00    +0.005 A 
ATOM     10  C   UNL     1      -3.993  -8.894   9.328  0.00  0.00    +0.000 A 
ATOM     11  C   UNL     1      -4.334  -9.471   8.846  0.00  0.00    +0.000 A 
ATOM     12  C   UNL     1      -4.318 -10.262   9.076  0.00  0.00    +0.000 A 
ATOM     13  C   UNL     1      -3.962 -10.478   9.788  0.00  0.00    +0.005 A 
ENDBRANCH   6   8
ENDBRANCH   4   5
ENDBRANCH   3   4
BRANCH  16  17
ATOM     17  N   UNL     1      -4.144 -10.609  15.169  0.00  0.00    -0.209 NA
BRANCH  17  18
ATOM     18  C   UNL     1      -4.828 -10.496  15.617  0.00  0.00    +0.122 C 
BRANCH  18  19
ATOM     19  C   UNL     1      -4.799 -10.564  16.439  0.00  0.00    +0.025 A 
ATOM     20  C   UNL     1      -4.140 -10.781  16.884  0.00  0.00    +0.004 A 
ATOM     21  C   UNL     1      -4.359 -10.778  17.679  0.00  0.00    +0.007 A 
ATOM     22  C   UNL     1      -5.153 -10.559  17.726  0.00  0.00    +0.035 A 
ATOM     23  S   UNL     1      -5.426 -10.427  16.958  0.00  0.00    -0.089 S 
ENDBRANCH  18  19
ENDBRANCH  17  18
ENDBRANCH  16  17
TORSDOF 6
ENDMDL
MODEL 6
REMARK VINA RESULT:      -6.1     15.236     17.398
REMARK  Name = 
REMARK  6 active torsions:
REMARK  status: ('A' for Active; 'I' for Inactive)
REMARK    1  A    between atoms: C_3  and  C_4
REMARK    2  A    between atoms: C_4  and  N_5
REMARK    3  A    between atoms: C_6  and  C_8
REMARK    4  A    between atoms: C_16  and  N_17
REMARK    5  A    between atoms: N_17  and  C_18
REMARK    6  A    between atoms: C_18  and  C_19
REMARK                            x       y       z     vdW  Elec       q    Type
REMARK                         _______ _______ _______ _____ _____    ______ ____
ROOT
ATOM      1  O   UNL     1      -1.527  -9.708  12.156  0.00  0.00    -0.219 OA
ATOM      2  C   UNL     1      -2.269 -10.034  12.309  0.00  0.00    +0.199 C 
ATOM      3  C   UNL     1      -2.895 -10.089  11.773  0.00  0.00    +0.169 C 
ATOM     14  O   UNL     1      -3.528 -10.452  12.157  0.00  0.00    -0.350 OA
ATOM     15  C   UNL     1      -3.294 -10.621  12.930  0.00  0.00    +0.162 C 
ATOM     16  C   UNL     1      -2.517 -10.363  13.023  0.00  0.00    +0.135 C 
ENDROOT
BRANCH   3   4
ATOM      4  C   UNL     1      -2.887  -9.827  10.991  0.00  0.00    +0.148 C 
BRANCH   4   5
ATOM      5  N   UNL     1      -3.597  -9.733  10.581  0.00  0.00    -0.199 NA
ATOM      6  C   UNL     1      -3.611  -9.314   9.870  0.00  0.00    +0.265 C 
ATOM      7  O   UNL     1      -2.914  -8.989   9.570  0.00  0.00    -0.268 OA
BRANCH   6   8
ATOM      8  C   UNL     1      -4.320  -9.220   9.460  0.00  0.00    +0.055 A 
ATOM      9  C   UNL     1      -4.821  -8.590   9.641  0.00  0.00    +0.005 A 
ATOM     10  C   UNL     1      -5.531  -8.496   9.231  0.00  0.00    +0.000 A 
ATOM     11  C   UNL     1      -5.740  -9.033   8.640  0.00  0.00    +0.000 A 
ATOM     12  C   UNL     1      -5.240  -9.663   8.459  0.00  0.00    +0.000 A 
ATOM     13  C   UNL     1      -4.530  -9.757   8.869  0.00  0.00    +0.005 A 
ENDBRANCH   6   8
ENDBRANCH   4   5
ENDBRANCH   3   4
BRANCH  16  17
ATOM     17  N   UNL     1      -2.065 -10.423  13.712  0.00  0.00    -0.209 NA
BRANCH  17  18
ATOM     18  C   UNL     1      -2.393 -10.756  14.392  0.00  0.00    +0.122 C 
BRANCH  18  19
ATOM     19  C   UNL     1      -1.978 -10.727  15.105  0.00  0.00    +0.025 A 
ATOM     20  C   UNL     1      -1.160 -10.781  15.193  0.00  0.00    +0.004 A 
ATOM     21  C   UNL     1      -0.987 -10.727  15.998  0.00  0.00    +0.007 A 
ATOM     22  C   UNL     1      -1.697 -10.640  16.408  0.00  0.00    +0.035 A 
ATOM     23  S   UNL     1      -2.311 -10.640  15.855  0.00  0.00    -0.089 S 
ENDBRANCH  18  19
ENDBRANCH  17  18
ENDBRANCH  16  17
TORSDOF 6
ENDMDL
MODEL 7
REMARK VINA RESULT:      -5.6     14.437     16.455
REMARK  Name = 
REMARK  6 active torsions:
REMARK  status: ('A' for Active; 'I' for Inactive)
REMARK    1  A    between atoms: C_3  and  C_4
REMARK    2  A    between atoms: C_4  and  N_5
REMARK    3  A    between atoms: C_6  and  C_8
REMARK    4  A    between atoms: C_16  and  N_17
REMARK    5  A    between atoms: N_17  and  C_18
REMARK    6  A    between atoms: C_18  and  C_19
REMARK                            x       y       z     vdW  Elec       q    Type
REMARK                         _______ _______ _______ _____ _____    ______ ____
ROOT
ATOM      1  O   UNL     1      -7.128 -10.242  13.688  0.00  0.00    -0.219 OA
ATOM      2  C   UNL     1      -6.358 -10.188  13.980  0.00  0.00    +0.199 C 
ATOM      3  C   UNL     1      -5.666 -10.227  13.533  0.00  0.00    +0.169 C 
ATOM     14  O   UNL     1      -5.026 -10.148  14.047  0.00  0.00    -0.350 OA
ATOM     15  C   UNL     1      -5.323 -10.061  14.812  0.00  0.00    +0.162 C 
ATOM     16  C   UNL     1      -6.146 -10.085  14.770  0.00  0.00    +0.135 C 
ENDROOT
BRANCH   3   4
ATOM      4  C   UNL     1      -5.622 -10.327  12.716  0.00  0.00    +0.148 C 
BRANCH   4   5
ATOM      5  N   UNL     1      -4.984 -10.016  12.296  0.00  0.00    -0.199 NA
ATOM      6  C   UNL     1      -4.901 -10.178  11.491  0.00  0.00    +0.265 C 
ATOM      7  O   UNL     1      -5.457 -10.652  11.107  0.00  0.00    -0.268 OA
BRANCH   6   8
ATOM      8  C   UNL     1      -4.263  -9.866  11.071  0.00  0.00    +0.055 A 
ATOM      9  C   UNL     1      -3.519 -10.219  11.129  0.00  0.00    +0.005 A 
ATOM     10  C   UNL     1      -2.881  -9.908  10.709  0.00  0.00    +0.000 A 
ATOM     11  C   UNL     1      -2.987  -9.244  10.231  0.00  0.00    +0.000 A 
ATOM     12  C   UNL     1      -3.730  -8.891  10.173  0.00  0.00    +0.000 A 
ATOM     13  C   UNL     1      -4.368  -9.202  10.593  0.00  0.00    +0.005 A 
ENDBRANCH   6   8
ENDBRANCH   4   5
ENDBRANCH   3   4
BRANCH  16  17
ATOM     17  N   UNL     1      -6.666 -10.018  15.408  0.00  0.00    -0.209 NA
BRANCH  17  18
ATOM     18  C   UNL     1      -6.386  -9.775  16.145  0.00  0.00    +0.122 C 
BRANCH  18  19
ATOM     19  C   UNL     1      -6.900  -9.733  16.789  0.00  0.00    +0.025 A 
ATOM     20  C   UNL     1      -7.543  -9.222  16.863  0.00  0.00    +0.004 A 
ATOM     21  C   UNL     1      -7.902  -9.368  17.591  0.00  0.00    +0.007 A 
ATOM     22  C   UNL     1      -7.482  -9.970  17.967  0.00  0.00    +0.035 A 
ATOM     23  S   UNL     1      -6.862 -10.197  17.471  0.00  0.00    -0.089 S 
ENDBRANCH  18  19
ENDBRANCH  17  18
ENDBRANCH  16  17
TORSDOF 6
ENDMDL
