MODEL 1
REMARK VINA RESULT:     -13.7      0.000      0.000
REMARK  Name = 
REMARK  4 active torsions:
REMARK  status: ('A' for Active; 'I' for Inactive)
REMARK    1  A    between atoms: C_2  and  C_25
REMARK    2  A    between atoms: C_9  and  N_10
REMARK    3  A    between atoms: C_11  and  C_13
REMARK    4  A    between atoms: C_25  and  C_27
REMARK                            x       y       z     vdW  Elec       q    Type
REMARK                         _______ _______ _______ _____ _____    ______ ____
ROOT
ATOM      1  C   UNL     1      -4.291   0.360  24.716  0.00  0.00    +0.052 C 
ATOM      2  C   UNL     1      -4.998   0.597  25.072  0.00  0.00    -0.001 C 
ATOM      3  C   UNL     1      -5.111   1.388  25.276  0.00  0.00    -0.000 C 
ATOM      4  C   UNL     1      -4.519   1.942  25.123  0.00  0.00    -0.001 C 
ATOM      5  C   UNL     1      -5.224   2.179  25.479  0.00  0.00    -0.000 C 
ATOM      6  C   UNL     1      -4.632   2.734  25.327  0.00  0.00    +0.002 C 
ATOM      7  C   UNL     1      -4.040   3.287  25.174  0.00  0.00    +0.022 C 
ATOM      8  C   UNL     1      -3.334   3.050  24.818  0.00  0.00    +0.095 C 
ATOM     18  C   UNL     1      -3.221   2.259  24.614  0.00  0.00    +0.019 C 
ATOM     19  C   UNL     1      -2.516   2.021  24.258  0.00  0.00    +0.002 C 
ATOM     20  C   UNL     1      -3.813   1.704  24.767  0.00  0.00    +0.045 C 
ATOM     21  C   UNL     1      -3.700   0.913  24.563  0.00  0.00    +0.145 C 
ATOM     22  O   UNL     1      -2.995   0.676  24.207  0.00  0.00    -0.224 OA
ENDROOT
BRANCH   8   9
ATOM      9  N   UNL     1      -2.742   3.604  24.665  0.00  0.00    -0.203 NA
ATOM     10  C   UNL     1      -2.404   4.028  25.286  0.00  0.00    +0.268 C 
ATOM     11  O   UNL     1      -2.658   3.898  26.061  0.00  0.00    -0.268 OA
BRANCH  10  12
ATOM     12  C   UNL     1      -1.812   4.583  25.134  0.00  0.00    +0.093 A 
ATOM     13  C   UNL     1      -1.995   5.387  25.114  0.00  0.00    +0.107 A 
ATOM     14  N   UNL     1      -1.403   5.941  24.962  0.00  0.00    -0.222 NA
ATOM     15  C   UNL     1      -0.628   5.691  24.829  0.00  0.00    +0.199 A 
ATOM     16  N   UNL     1      -0.445   4.886  24.849  0.00  0.00    -0.222 NA
ATOM     17  C   UNL     1      -1.038   4.333  25.001  0.00  0.00    +0.107 A 
ENDBRANCH  10  12
ENDBRANCH   8   9
BRANCH   1  23
ATOM     23  C   UNL     1      -4.179  -0.432  24.512  0.00  0.00    +0.075 C 
ATOM     24  C   UNL     1      -4.334  -0.688  23.743  0.00  0.00    +0.009 C 
BRANCH  23  25
ATOM     25  C   UNL     1      -3.910  -0.969  25.079  0.00  0.00    +0.225 C 
ATOM     26  O   UNL     1      -3.792  -0.722  25.858  0.00  0.00    -0.275 OA
ATOM     27  N   UNL     1      -3.760  -1.752  24.866  0.00  0.00    -0.280 N 
ATOM     28  C   UNL     1      -3.492  -2.288  25.432  0.00  0.00    +0.093 C 
ATOM     29  C   UNL     1      -3.341  -3.071  25.221  0.00  0.00    +0.022 C 
ATOM     30  C   UNL     1      -3.459  -3.317  24.442  0.00  0.00    +0.004 C 
ATOM     31  C   UNL     1      -3.727  -2.781  23.876  0.00  0.00    +0.022 C 
ATOM     32  C   UNL     1      -3.878  -1.998  24.088  0.00  0.00    +0.093 C 
ENDBRANCH  23  25
ENDBRANCH   1  23
TORSDOF 4
ENDMDL
MODEL 2
REMARK VINA RESULT:     -12.3      0.845      5.449
REMARK  Name = 
REMARK  4 active torsions:
REMARK  status: ('A' for Active; 'I' for Inactive)
REMARK    1  A    between atoms: C_2  and  C_25
REMARK    2  A    between atoms: C_9  and  N_10
REMARK    3  A    between atoms: C_11  and  C_13
REMARK    4  A    between atoms: C_25  and  C_27
REMARK                            x       y       z     vdW  Elec       q    Type
REMARK                         _______ _______ _______ _____ _____    ______ ____
ROOT
ATOM      1  C   UNL     1      -3.897   3.118  24.701  0.00  0.00    +0.052 C 
ATOM      2  C   UNL     1      -4.576   3.220  25.159  0.00  0.00    -0.001 C 
ATOM      3  C   UNL     1      -5.036   2.568  25.366  0.00  0.00    -0.000 C 
ATOM      4  C   UNL     1      -4.817   1.813  25.115  0.00  0.00    -0.001 C 
ATOM      5  C   UNL     1      -5.495   1.915  25.572  0.00  0.00    -0.000 C 
ATOM      6  C   UNL     1      -5.277   1.160  25.322  0.00  0.00    +0.002 C 
ATOM      7  C   UNL     1      -5.058   0.405  25.071  0.00  0.00    +0.022 C 
ATOM      8  C   UNL     1      -4.378   0.304  24.613  0.00  0.00    +0.095 C 
ATOM     18  C   UNL     1      -3.919   0.956  24.407  0.00  0.00    +0.019 C 
ATOM     19  C   UNL     1      -3.240   0.854  23.950  0.00  0.00    +0.002 C 
ATOM     20  C   UNL     1      -4.137   1.711  24.657  0.00  0.00    +0.045 C 
ATOM     21  C   UNL     1      -3.678   2.364  24.451  0.00  0.00    +0.145 C 
ATOM     22  O   UNL     1      -2.999   2.262  23.994  0.00  0.00    -0.224 OA
ENDROOT
BRANCH   8   9
ATOM      9  N   UNL     1      -4.159  -0.452  24.363  0.00  0.00    -0.203 NA
ATOM     10  C   UNL     1      -4.002  -1.041  24.917  0.00  0.00    +0.268 C 
ATOM     11  O   UNL     1      -4.063  -0.876  25.724  0.00  0.00    -0.268 OA
BRANCH  10  12
ATOM     12  C   UNL     1      -3.784  -1.797  24.667  0.00  0.00    +0.093 A 
ATOM     13  C   UNL     1      -4.195  -2.164  24.054  0.00  0.00    +0.107 A 
ATOM     14  N   UNL     1      -3.976  -2.919  23.804  0.00  0.00    -0.222 NA
ATOM     15  C   UNL     1      -3.345  -3.307  24.167  0.00  0.00    +0.199 A 
ATOM     16  N   UNL     1      -2.933  -2.939  24.781  0.00  0.00    -0.222 NA
ATOM     17  C   UNL     1      -3.152  -2.184  25.030  0.00  0.00    +0.107 A 
ENDBRANCH  10  12
ENDBRANCH   8   9
BRANCH   1  23
ATOM     23  C   UNL     1      -3.437   3.772  24.495  0.00  0.00    +0.075 C 
ATOM     24  C   UNL     1      -3.387   4.010  23.707  0.00  0.00    +0.009 C 
BRANCH  23  25
ATOM     25  C   UNL     1      -3.027   4.188  25.078  0.00  0.00    +0.225 C 
ATOM     26  O   UNL     1      -3.406   4.392  25.783  0.00  0.00    -0.275 OA
ATOM     27  N   UNL     1      -2.239   4.400  24.957  0.00  0.00    -0.280 N 
ATOM     28  C   UNL     1      -1.829   4.816  25.539  0.00  0.00    +0.093 C 
ATOM     29  C   UNL     1      -1.042   5.028  25.418  0.00  0.00    +0.022 C 
ATOM     30  C   UNL     1      -0.664   4.824  24.714  0.00  0.00    +0.004 C 
ATOM     31  C   UNL     1      -1.073   4.408  24.132  0.00  0.00    +0.022 C 
ATOM     32  C   UNL     1      -1.861   4.196  24.252  0.00  0.00    +0.093 C 
ENDBRANCH  23  25
ENDBRANCH   1  23
TORSDOF 4
ENDMDL
MODEL 3
REMARK VINA RESULT:     -12.1      3.087      4.660
REMARK  Name = 
REMARK  4 active torsions:
REMARK  status: ('A' for Active; 'I' for Inactive)
REMARK    1  A    between atoms: C_2  and  C_25
REMARK    2  A    between atoms: C_9  and  N_10
REMARK    3  A    between atoms: C_11  and  C_13
REMARK    4  A    between atoms: C_25  and  C_27
REMARK                            x       y       z     vdW  Elec       q    Type
REMARK                         _______ _______ _______ _____ _____    ______ ____
ROOT
ATOM      1  C   UNL     1      -2.951   1.377  24.475  0.00  0.00    +0.052 C 
ATOM      2  C   UNL     1      -3.049   0.745  24.997  0.00  0.00    -0.001 C 
ATOM      3  C   UNL     1      -2.428   0.218  25.126  0.00  0.00    -0.000 C 
ATOM      4  C   UNL     1      -1.710   0.322  24.735  0.00  0.00    -0.001 C 
ATOM      5  C   UNL     1      -1.807  -0.309  25.256  0.00  0.00    -0.000 C 
ATOM      6  C   UNL     1      -1.088  -0.205  24.864  0.00  0.00    +0.002 C 
ATOM      7  C   UNL     1      -0.371  -0.101  24.472  0.00  0.00    +0.022 C 
ATOM      8  C   UNL     1      -0.273   0.532  23.950  0.00  0.00    +0.095 C 
ATOM     18  C   UNL     1      -0.894   1.058  23.820  0.00  0.00    +0.019 C 
ATOM     19  C   UNL     1      -0.797   1.690  23.299  0.00  0.00    +0.002 C 
ATOM     20  C   UNL     1      -1.613   0.955  24.212  0.00  0.00    +0.045 C 
ATOM     21  C   UNL     1      -2.234   1.481  24.083  0.00  0.00    +0.145 C 
ATOM     22  O   UNL     1      -2.136   2.113  23.562  0.00  0.00    -0.224 OA
ENDROOT
BRANCH   8   9
ATOM      9  N   UNL     1       0.445   0.636  23.558  0.00  0.00    -0.203 NA
ATOM     10  C   UNL     1       0.865  -0.019  23.284  0.00  0.00    +0.268 C 
ATOM     11  O   UNL     1       0.566  -0.780  23.402  0.00  0.00    -0.268 OA
BRANCH  10  12
ATOM     12  C   UNL     1       1.584   0.085  22.892  0.00  0.00    +0.093 A 
ATOM     13  C   UNL     1       2.199   0.493  23.259  0.00  0.00    +0.107 A 
ATOM     14  N   UNL     1       2.918   0.596  22.867  0.00  0.00    -0.222 NA
ATOM     15  C   UNL     1       3.020   0.292  22.107  0.00  0.00    +0.199 A 
ATOM     16  N   UNL     1       2.404  -0.116  21.739  0.00  0.00    -0.222 NA
ATOM     17  C   UNL     1       1.686  -0.220  22.132  0.00  0.00    +0.107 A 
ENDBRANCH  10  12
ENDBRANCH   8   9
BRANCH   1  23
ATOM     23  C   UNL     1      -3.573   1.904  24.346  0.00  0.00    +0.075 C 
ATOM     24  C   UNL     1      -3.921   1.959  23.599  0.00  0.00    +0.009 C 
BRANCH  23  25
ATOM     25  C   UNL     1      -3.848   2.377  24.964  0.00  0.00    +0.225 C 
ATOM     26  O   UNL     1      -3.321   2.854  25.385  0.00  0.00    -0.275 OA
ATOM     27  N   UNL     1      -4.649   2.372  25.162  0.00  0.00    -0.280 N 
ATOM     28  C   UNL     1      -4.923   2.844  25.780  0.00  0.00    +0.093 C 
ATOM     29  C   UNL     1      -5.724   2.840  25.978  0.00  0.00    +0.022 C 
ATOM     30  C   UNL     1      -6.250   2.363  25.558  0.00  0.00    +0.004 C 
ATOM     31  C   UNL     1      -5.975   1.891  24.941  0.00  0.00    +0.022 C 
ATOM     32  C   UNL     1      -5.175   1.895  24.742  0.00  0.00    +0.093 C 
ENDBRANCH  23  25
ENDBRANCH   1  23
TORSDOF 4
ENDMDL
MODEL 4
REMARK VINA RESULT:     -11.9      2.842      4.416
REMARK  Name = 
REMARK  4 active torsions:
REMARK  status: ('A' for Active; 'I' for Inactive)
REMARK    1  A    between atoms: C_2  and  C_25
REMARK    2  A    between atoms: C_9  and  N_10
REMARK    3  A    between atoms: C_11  and  C_13
REMARK    4  A    between atoms: C_25  and  C_27
REMARK                            x       y       z     vdW  Elec       q    Type
REMARK                         _______ _______ _______ _____ _____    ______ ____
ROOT
ATOM      1  C   UNL     1      -3.182   3.371  24.866  0.00  0.00    +0.052 C 
ATOM      2  C   UNL     1      -2.855   3.766  25.514  0.00  0.00    -0.001 C 
ATOM      3  C   UNL     1      -2.051   3.694  25.678  0.00  0.00    -0.000 C 
ATOM      4  C   UNL     1      -1.572   3.227  25.196  0.00  0.00    -0.001 C 
ATOM      5  C   UNL     1      -1.246   3.621  25.842  0.00  0.00    -0.000 C 
ATOM      6  C   UNL     1      -0.766   3.154  25.360  0.00  0.00    +0.002 C 
ATOM      7  C   UNL     1      -0.288   2.688  24.877  0.00  0.00    +0.022 C 
ATOM      8  C   UNL     1      -0.614   2.293  24.230  0.00  0.00    +0.095 C 
ATOM     18  C   UNL     1      -1.419   2.365  24.066  0.00  0.00    +0.019 C 
ATOM     19  C   UNL     1      -1.745   1.971  23.419  0.00  0.00    +0.002 C 
ATOM     20  C   UNL     1      -1.898   2.832  24.548  0.00  0.00    +0.045 C 
ATOM     21  C   UNL     1      -2.703   2.905  24.384  0.00  0.00    +0.145 C 
ATOM     22  O   UNL     1      -3.029   2.510  23.737  0.00  0.00    -0.224 OA
ENDROOT
BRANCH   8   9
ATOM      9  N   UNL     1      -0.134   1.826  23.747  0.00  0.00    -0.203 NA
ATOM     10  C   UNL     1       0.347   1.246  24.081  0.00  0.00    +0.268 C 
ATOM     11  O   UNL     1       0.350   1.132  24.899  0.00  0.00    -0.268 OA
BRANCH  10  12
ATOM     12  C   UNL     1       0.827   0.779  23.599  0.00  0.00    +0.093 A 
ATOM     13  C   UNL     1       1.588   1.031  23.405  0.00  0.00    +0.107 A 
ATOM     14  N   UNL     1       2.068   0.564  22.923  0.00  0.00    -0.222 NA
ATOM     15  C   UNL     1       1.785  -0.155  22.634  0.00  0.00    +0.199 A 
ATOM     16  N   UNL     1       1.024  -0.408  22.828  0.00  0.00    -0.222 NA
ATOM     17  C   UNL     1       0.545   0.060  23.310  0.00  0.00    +0.107 A 
ENDBRANCH  10  12
ENDBRANCH   8   9
BRANCH   1  23
ATOM     23  C   UNL     1      -3.987   3.444  24.702  0.00  0.00    +0.075 C 
ATOM     24  C   UNL     1      -4.246   3.522  23.923  0.00  0.00    +0.009 C 
BRANCH  23  25
ATOM     25  C   UNL     1      -4.535   3.439  25.319  0.00  0.00    +0.225 C 
ATOM     26  O   UNL     1      -4.500   4.017  25.908  0.00  0.00    -0.275 OA
ATOM     27  N   UNL     1      -5.119   2.856  25.348  0.00  0.00    -0.280 N 
ATOM     28  C   UNL     1      -5.667   2.851  25.964  0.00  0.00    +0.093 C 
ATOM     29  C   UNL     1      -6.250   2.269  25.993  0.00  0.00    +0.022 C 
ATOM     30  C   UNL     1      -6.285   1.692  25.405  0.00  0.00    +0.004 C 
ATOM     31  C   UNL     1      -5.738   1.697  24.789  0.00  0.00    +0.022 C 
ATOM     32  C   UNL     1      -5.154   2.279  24.760  0.00  0.00    +0.093 C 
ENDBRANCH  23  25
ENDBRANCH   1  23
TORSDOF 4
ENDMDL
MODEL 5
REMARK VINA RESULT:     -11.7      1.628      2.515
REMARK  Name = 
REMARK  4 active torsions:
REMARK  status: ('A' for Active; 'I' for Inactive)
REMARK    1  A    between atoms: C_2  and  C_25
REMARK    2  A    between atoms: C_9  and  N_10
REMARK    3  A    between atoms: C_11  and  C_13
REMARK    4  A    between atoms: C_25  and  C_27
REMARK                            x       y       z     vdW  Elec       q    Type
REMARK                         _______ _______ _______ _____ _____    ______ ____
ROOT
ATOM      1  C   UNL     1      -2.018  -0.701  25.144  0.00  0.00    +0.052 C 
ATOM      2  C   UNL     1      -1.257  -0.969  24.969  0.00  0.00    -0.001 C 
ATOM      3  C   UNL     1      -0.666  -0.431  24.767  0.00  0.00    -0.000 C 
ATOM      4  C   UNL     1      -0.836   0.376  24.740  0.00  0.00    -0.001 C 
ATOM      5  C   UNL     1      -0.076   0.108  24.566  0.00  0.00    -0.000 C 
ATOM      6  C   UNL     1      -0.245   0.916  24.539  0.00  0.00    +0.002 C 
ATOM      7  C   UNL     1      -0.414   1.722  24.512  0.00  0.00    +0.022 C 
ATOM      8  C   UNL     1      -1.175   1.990  24.687  0.00  0.00    +0.095 C 
ATOM     18  C   UNL     1      -1.766   1.451  24.888  0.00  0.00    +0.019 C 
ATOM     19  C   UNL     1      -2.526   1.719  25.063  0.00  0.00    +0.002 C 
ATOM     20  C   UNL     1      -1.597   0.644  24.915  0.00  0.00    +0.045 C 
ATOM     21  C   UNL     1      -2.187   0.105  25.117  0.00  0.00    +0.145 C 
ATOM     22  O   UNL     1      -2.948   0.373  25.292  0.00  0.00    -0.224 OA
ENDROOT
BRANCH   8   9
ATOM      9  N   UNL     1      -1.344   2.798  24.660  0.00  0.00    -0.203 NA
ATOM     10  C   UNL     1      -0.893   3.329  25.100  0.00  0.00    +0.268 C 
ATOM     11  O   UNL     1      -0.271   3.053  25.568  0.00  0.00    -0.268 OA
BRANCH  10  12
ATOM     12  C   UNL     1      -1.061   4.136  25.072  0.00  0.00    +0.093 A 
ATOM     13  C   UNL     1      -0.543   4.654  24.695  0.00  0.00    +0.107 A 
ATOM     14  N   UNL     1      -0.711   5.461  24.668  0.00  0.00    -0.222 NA
ATOM     15  C   UNL     1      -1.400   5.750  25.019  0.00  0.00    +0.199 A 
ATOM     16  N   UNL     1      -1.920   5.232  25.397  0.00  0.00    -0.222 NA
ATOM     17  C   UNL     1      -1.750   4.425  25.423  0.00  0.00    +0.107 A 
ENDBRANCH  10  12
ENDBRANCH   8   9
BRANCH   1  23
ATOM     23  C   UNL     1      -2.609  -1.241  25.345  0.00  0.00    +0.075 C 
ATOM     24  C   UNL     1      -3.186  -1.035  25.898  0.00  0.00    +0.009 C 
BRANCH  23  25
ATOM     25  C   UNL     1      -2.623  -1.987  24.994  0.00  0.00    +0.225 C 
ATOM     26  O   UNL     1      -1.997  -2.512  25.113  0.00  0.00    -0.275 OA
ATOM     27  N   UNL     1      -3.263  -2.209  24.522  0.00  0.00    -0.280 N 
ATOM     28  C   UNL     1      -3.277  -2.955  24.170  0.00  0.00    +0.093 C 
ATOM     29  C   UNL     1      -3.916  -3.177  23.699  0.00  0.00    +0.022 C 
ATOM     30  C   UNL     1      -4.541  -2.653  23.579  0.00  0.00    +0.004 C 
ATOM     31  C   UNL     1      -4.527  -1.907  23.931  0.00  0.00    +0.022 C 
ATOM     32  C   UNL     1      -3.888  -1.685  24.402  0.00  0.00    +0.093 C 
ENDBRANCH  23  25
ENDBRANCH   1  23
TORSDOF 4
ENDMDL
