REMARK  Name = 
REMARK  5 active torsions:
REMARK  status: ('A' for Active; 'I' for Inactive)
REMARK    1  A    between atoms: O_2  and  C_3
REMARK    2  A    between atoms: C_10  and  C_15
REMARK    3  A    between atoms: C_15  and  C_17
REMARK    4  A    between atoms: N_19  and  C_20
REMARK    5  A    between atoms: C_20  and  C_21
REMARK                            x       y       z     vdW  Elec       q    Type
REMARK                         _______ _______ _______ _____ _____    ______ ____
ROOT
ATOM      3  C   UNL     1      -4.287   2.475   0.000  0.00  0.00    +0.134 A 
ATOM      4  C   UNL     1      -4.287   3.300   0.000  0.00  0.00    +0.032 A 
ATOM      5  C   UNL     1      -3.572   3.712   0.000  0.00  0.00    -0.023 A 
ATOM      6  C   UNL     1      -3.572   4.537   0.000  0.00  0.00    +0.031 C 
ATOM      7  C   UNL     1      -2.858   3.300   0.000  0.00  0.00    -0.030 A 
ATOM      8  C   UNL     1      -2.143   3.712   0.000  0.00  0.00    +0.026 C 
ATOM      9  C   UNL     1      -1.429   3.300   0.000  0.00  0.00    +0.005 C 
ATOM     10  C   UNL     1      -1.429   2.475   0.000  0.00  0.00    +0.013 C 
ATOM     11  C   UNL     1      -2.143   2.062   0.000  0.00  0.00    +0.026 C 
ATOM     12  C   UNL     1      -2.858   2.475   0.000  0.00  0.00    -0.027 A 
ATOM     13  C   UNL     1      -3.572   2.062   0.000  0.00  0.00    +0.008 A 
ATOM     14  C   UNL     1      -3.572   1.238   0.000  0.00  0.00    +0.034 C 
ENDROOT
BRANCH   3   2
ATOM      1  C   UNL     1      -5.716   2.475   0.000  0.00  0.00    +0.252 C 
ATOM      2  O   UNL     1      -5.001   2.062   0.000  0.00  0.00    -0.472 OA
ENDBRANCH   3   2
BRANCH  10  15
ATOM     15  C   UNL     1      -0.715   2.062   0.000  0.00  0.00    +0.079 C 
ATOM     16  C   UNL     1      -0.715   1.238   0.000  0.00  0.00    +0.010 C 
BRANCH  15  17
ATOM     17  C   UNL     1       0.000   2.475   0.000  0.00  0.00    +0.241 C 
ATOM     18  O   UNL     1       0.000   3.300   0.000  0.00  0.00    -0.273 OA
ATOM     19  N   UNL     1       0.715   2.062   0.000  0.00  0.00    -0.200 NA
BRANCH  19  20
ATOM     20  C   UNL     1       1.429   2.475   0.000  0.00  0.00    +0.148 C 
BRANCH  20  21
ATOM     21  C   UNL     1       2.143   2.062   0.000  0.00  0.00    +0.029 A 
ATOM     22  C   UNL     1       2.897   2.398   0.000  0.00  0.00    +0.004 A 
ATOM     23  C   UNL     1       3.449   1.785   0.000  0.00  0.00    +0.007 A 
ATOM     24  C   UNL     1       3.037   1.071   0.000  0.00  0.00    +0.035 A 
ATOM     25  S   UNL     1       2.230   1.242   0.000  0.00  0.00    -0.089 S 
ENDBRANCH  20  21
ENDBRANCH  19  20
ENDBRANCH  15  17
ENDBRANCH  10  15
TORSDOF 5
