REMARK  Name = 
REMARK  4 active torsions:
REMARK  status: ('A' for Active; 'I' for Inactive)
REMARK    1  A    between atoms: C_4  and  C_6
REMARK    2  A    between atoms: C_13  and  C_14
REMARK    3  A    between atoms: C_14  and  N_15
REMARK    4  A    between atoms: C_17  and  C_20
REMARK                            x       y       z     vdW  Elec       q    Type
REMARK                         _______ _______ _______ _____ _____    ______ ____
ROOT
ATOM      6  C   UNL     1       1.661  -1.343   0.000  0.00  0.00    +0.093 C 
ATOM      7  C   UNL     1       1.814  -2.106   0.000  0.00  0.00    +0.081 C 
ATOM      8  N   UNL     1       1.065  -1.759   0.000  0.00  0.00    -0.272 NA
ATOM      9  C   UNL     1       1.205  -0.720   0.000  0.00  0.00    +0.072 C 
ATOM     10  C   UNL     1       0.961  -0.114   0.000  0.00  0.00    +0.018 C 
ATOM     11  C   UNL     1       0.923  -1.010   0.000  0.00  0.00    +0.013 C 
ATOM     12  C   UNL     1       0.119  -1.362   0.000  0.00  0.00    +0.019 C 
ATOM     13  C   UNL     1       0.226  -2.118   0.000  0.00  0.00    +0.082 C 
ENDROOT
BRANCH   6   4
ATOM      1  C   UNL     1       2.829   0.501   0.000  0.00  0.00    +0.115 C 
ATOM      2  N   UNL     1       2.184  -0.013   0.000  0.00  0.00    -0.276 N 
ATOM      3  C   UNL     1       1.416   0.289   0.000  0.00  0.00    +0.115 C 
ATOM      4  C   UNL     1       2.307  -0.828   0.000  0.00  0.00    +0.227 C 
ATOM      5  O   UNL     1       3.075  -1.130   0.000  0.00  0.00    -0.275 OA
ENDBRANCH   6   4
BRANCH  13  14
ATOM     14  C   UNL     1      -0.179  -2.836   0.000  0.00  0.00    +0.145 C 
BRANCH  14  15
ATOM     15  N   UNL     1      -1.004  -2.845   0.000  0.00  0.00    -0.229 N 
ATOM     16  C   UNL     1      -1.481  -3.518   0.000  0.00  0.00    +0.119 A 
ATOM     17  C   UNL     1      -2.269  -3.271   0.000  0.00  0.00    +0.141 A 
ATOM     18  N   UNL     1      -2.277  -2.446   0.000  0.00  0.00    -0.127 NA
ATOM     19  N   UNL     1      -1.496  -2.183   0.000  0.00  0.00    -0.064 NA
BRANCH  17  20
ATOM     20  C   UNL     1      -2.931  -3.763   0.000  0.00  0.00    +0.102 A 
ATOM     21  N   UNL     1      -2.836  -4.583   0.000  0.00  0.00    -0.242 NA
ATOM     22  C   UNL     1      -3.498  -5.075   0.000  0.00  0.00    +0.099 A 
ATOM     23  C   UNL     1      -4.255  -4.747   0.000  0.00  0.00    +0.021 A 
ATOM     24  C   UNL     1      -4.350  -3.928   0.000  0.00  0.00    +0.003 A 
ATOM     25  C   UNL     1      -3.688  -3.436   0.000  0.00  0.00    +0.021 A 
ENDBRANCH  17  20
ENDBRANCH  14  15
ENDBRANCH  13  14
TORSDOF 4
