MODEL 1
REMARK VINA RESULT:     -11.5      0.000      0.000
REMARK  Name = 
REMARK  7 active torsions:
REMARK  status: ('A' for Active; 'I' for Inactive)
REMARK    1  A    between atoms: O_2  and  C_3
REMARK    2  A    between atoms: C_6  and  N_7
REMARK    3  A    between atoms: C_8  and  O_10
REMARK    4  A    between atoms: O_10  and  C_11
REMARK    5  A    between atoms: C_16  and  C_17
REMARK    6  A    between atoms: C_17  and  C_18
REMARK    7  A    between atoms: C_31  and  C_33
REMARK                            x       y       z     vdW  Elec       q    Type
REMARK                         _______ _______ _______ _____ _____    ______ ____
ROOT
ATOM     11  C   UNL     1      -4.692   1.127  24.791  0.00  0.00    +0.173 C 
ATOM     12  C   UNL     1      -3.884   1.298  24.791  0.00  0.00    +0.044 C 
ATOM     13  C   UNL     1      -3.622   2.049  25.011  0.00  0.00    +0.004 C 
ATOM     14  C   UNL     1      -4.167   2.628  25.229  0.00  0.00    +0.003 C 
ATOM     15  C   UNL     1      -3.361   2.799  25.230  0.00  0.00    +0.000 C 
ATOM     16  C   UNL     1      -3.905   3.379  25.449  0.00  0.00    +0.040 C 
ATOM     26  C   UNL     1      -4.449   3.958  25.667  0.00  0.00    +0.152 C 
ATOM     27  O   UNL     1      -4.188   4.710  25.887  0.00  0.00    -0.223 OA
ATOM     28  C   UNL     1      -5.257   3.787  25.667  0.00  0.00    +0.033 C 
ATOM     29  C   UNL     1      -5.519   3.037  25.447  0.00  0.00    +0.003 C 
ATOM     30  C   UNL     1      -4.975   2.456  25.228  0.00  0.00    +0.006 C 
ATOM     31  C   UNL     1      -5.236   1.706  25.009  0.00  0.00    +0.068 C 
ATOM     32  C   UNL     1      -6.025   1.916  25.127  0.00  0.00    +0.006 C 
ENDROOT
BRANCH  31  33
ATOM     33  C   UNL     1      -5.872   1.195  24.890  0.00  0.00    +0.185 C 
ATOM     34  O   UNL     1      -6.640   1.494  24.845  0.00  0.00    -0.220 OA
ENDBRANCH  31  33
BRANCH  11  10
ATOM     10  O   UNL     1      -4.954   0.376  24.571  0.00  0.00    -0.437 OA
BRANCH  10   8
ATOM      7  N   UNL     1      -4.314  -0.852  24.928  0.00  0.00    -0.142 NA
ATOM      8  C   UNL     1      -4.408  -0.220  24.404  0.00  0.00    +0.425 C 
ATOM      9  O   UNL     1      -3.957  -0.185  23.715  0.00  0.00    -0.224 OA
BRANCH   7   6
ATOM      3  C   UNL     1      -2.677  -2.639  24.428  0.00  0.00    +0.139 A 
ATOM      4  C   UNL     1      -2.479  -2.033  24.952  0.00  0.00    +0.038 A 
ATOM      5  C   UNL     1      -3.025  -1.438  25.118  0.00  0.00    +0.020 A 
ATOM      6  C   UNL     1      -3.769  -1.448  24.761  0.00  0.00    +0.077 A 
ATOM     35  C   UNL     1      -3.966  -2.053  24.238  0.00  0.00    +0.020 A 
ATOM     36  C   UNL     1      -3.421  -2.649  24.071  0.00  0.00    +0.038 A 
BRANCH   3   2
ATOM      1  C   UNL     1      -1.341  -3.042  24.121  0.00  0.00    +0.252 C 
ATOM      2  O   UNL     1      -2.131  -3.235  24.262  0.00  0.00    -0.471 OA
ENDBRANCH   3   2
ENDBRANCH   7   6
ENDBRANCH  10   8
ENDBRANCH  11  10
BRANCH  16  17
ATOM     17  C   UNL     1      -3.098   3.550  25.449  0.00  0.00    +0.088 C 
BRANCH  17  18
ATOM     18  C   UNL     1      -2.810   4.187  25.011  0.00  0.00    +0.226 C 
ATOM     19  O   UNL     1      -3.321   4.616  24.524  0.00  0.00    -0.275 OA
ATOM     20  N   UNL     1      -2.015   4.395  25.059  0.00  0.00    -0.277 N 
ATOM     21  C   UNL     1      -1.442   4.021  25.520  0.00  0.00    +0.096 C 
ATOM     22  C   UNL     1      -0.724   4.409  25.401  0.00  0.00    +0.056 C 
ATOM     23  C   UNL     1      -0.853   5.024  24.866  0.00  0.00    +0.173 C 
ATOM     24  O   UNL     1      -0.284   5.555  24.591  0.00  0.00    -0.221 OA
ATOM     25  C   UNL     1      -1.650   5.016  24.655  0.00  0.00    +0.126 C 
ENDBRANCH  17  18
ENDBRANCH  16  17
TORSDOF 7
ENDMDL
MODEL 2
REMARK VINA RESULT:     -10.7      1.733      3.515
REMARK  Name = 
REMARK  7 active torsions:
REMARK  status: ('A' for Active; 'I' for Inactive)
REMARK    1  A    between atoms: O_2  and  C_3
REMARK    2  A    between atoms: C_6  and  N_7
REMARK    3  A    between atoms: C_8  and  O_10
REMARK    4  A    between atoms: O_10  and  C_11
REMARK    5  A    between atoms: C_16  and  C_17
REMARK    6  A    between atoms: C_17  and  C_18
REMARK    7  A    between atoms: C_31  and  C_33
REMARK                            x       y       z     vdW  Elec       q    Type
REMARK                         _______ _______ _______ _____ _____    ______ ____
ROOT
ATOM     11  C   UNL     1      -1.025   1.388  24.963  0.00  0.00    +0.173 C 
ATOM     12  C   UNL     1      -1.834   1.456  24.814  0.00  0.00    +0.044 C 
ATOM     13  C   UNL     1      -2.201   2.193  24.861  0.00  0.00    +0.004 C 
ATOM     14  C   UNL     1      -1.761   2.861  25.058  0.00  0.00    +0.003 C 
ATOM     15  C   UNL     1      -2.568   2.929  24.909  0.00  0.00    +0.000 C 
ATOM     16  C   UNL     1      -2.128   3.599  25.105  0.00  0.00    +0.040 C 
ATOM     26  C   UNL     1      -1.687   4.267  25.302  0.00  0.00    +0.152 C 
ATOM     27  O   UNL     1      -2.054   5.005  25.350  0.00  0.00    -0.223 OA
ATOM     28  C   UNL     1      -0.878   4.199  25.451  0.00  0.00    +0.033 C 
ATOM     29  C   UNL     1      -0.511   3.462  25.403  0.00  0.00    +0.003 C 
ATOM     30  C   UNL     1      -0.951   2.793  25.207  0.00  0.00    +0.006 C 
ATOM     31  C   UNL     1      -0.584   2.056  25.159  0.00  0.00    +0.068 C 
ATOM     32  C   UNL     1       0.149   2.377  25.356  0.00  0.00    +0.006 C 
ENDROOT
BRANCH  31  33
ATOM     33  C   UNL     1       0.110   1.616  25.224  0.00  0.00    +0.185 C 
ATOM     34  O   UNL     1       0.843   1.989  25.161  0.00  0.00    -0.220 OA
ENDBRANCH  31  33
BRANCH  11  10
ATOM     10  O   UNL     1      -0.657   0.650  24.915  0.00  0.00    -0.437 OA
BRANCH  10   8
ATOM      7  N   UNL     1      -1.284  -0.584  25.270  0.00  0.00    -0.142 NA
ATOM      8  C   UNL     1      -1.095  -0.016  24.702  0.00  0.00    +0.425 C 
ATOM      9  O   UNL     1      -1.342  -0.116  23.921  0.00  0.00    -0.224 OA
BRANCH   7   6
ATOM      3  C   UNL     1      -2.595  -2.584  24.633  0.00  0.00    +0.139 A 
ATOM      4  C   UNL     1      -2.962  -1.958  25.028  0.00  0.00    +0.038 A 
ATOM      5  C   UNL     1      -2.524  -1.292  25.240  0.00  0.00    +0.020 A 
ATOM      6  C   UNL     1      -1.721  -1.251  25.058  0.00  0.00    +0.077 A 
ATOM     35  C   UNL     1      -1.355  -1.875  24.664  0.00  0.00    +0.020 A 
ATOM     36  C   UNL     1      -1.791  -2.542  24.451  0.00  0.00    +0.038 A 
BRANCH   3   2
ATOM      1  C   UNL     1      -3.815  -3.167  24.171  0.00  0.00    +0.252 C 
ATOM      2  O   UNL     1      -3.033  -3.250  24.421  0.00  0.00    -0.471 OA
ENDBRANCH   3   2
ENDBRANCH   7   6
ENDBRANCH  10   8
ENDBRANCH  11  10
BRANCH  16  17
ATOM     17  C   UNL     1      -2.936   3.667  24.957  0.00  0.00    +0.088 C 
BRANCH  17  18
ATOM     18  C   UNL     1      -3.449   3.902  25.559  0.00  0.00    +0.226 C 
ATOM     19  O   UNL     1      -3.145   4.146  26.287  0.00  0.00    -0.275 OA
ATOM     20  N   UNL     1      -4.263   3.893  25.434  0.00  0.00    -0.277 N 
ATOM     21  C   UNL     1      -4.645   3.664  24.740  0.00  0.00    +0.096 C 
ATOM     22  C   UNL     1      -5.459   3.742  24.859  0.00  0.00    +0.056 C 
ATOM     23  C   UNL     1      -5.579   4.018  25.627  0.00  0.00    +0.173 C 
ATOM     24  O   UNL     1      -6.309   4.174  25.977  0.00  0.00    -0.221 OA
ATOM     25  C   UNL     1      -4.840   4.112  25.983  0.00  0.00    +0.126 C 
ENDBRANCH  17  18
ENDBRANCH  16  17
TORSDOF 7
ENDMDL
MODEL 3
REMARK VINA RESULT:      -9.8      2.685      4.564
REMARK  Name = 
REMARK  7 active torsions:
REMARK  status: ('A' for Active; 'I' for Inactive)
REMARK    1  A    between atoms: O_2  and  C_3
REMARK    2  A    between atoms: C_6  and  N_7
REMARK    3  A    between atoms: C_8  and  O_10
REMARK    4  A    between atoms: O_10  and  C_11
REMARK    5  A    between atoms: C_16  and  C_17
REMARK    6  A    between atoms: C_17  and  C_18
REMARK    7  A    between atoms: C_31  and  C_33
REMARK                            x       y       z     vdW  Elec       q    Type
REMARK                         _______ _______ _______ _____ _____    ______ ____
ROOT
ATOM     11  C   UNL     1      -1.720  -0.783  24.408  0.00  0.00    +0.173 C 
ATOM     12  C   UNL     1      -1.796   0.038  24.458  0.00  0.00    +0.044 C 
ATOM     13  C   UNL     1      -2.545   0.381  24.490  0.00  0.00    +0.004 C 
ATOM     14  C   UNL     1      -3.218  -0.094  24.471  0.00  0.00    +0.003 C 
ATOM     15  C   UNL     1      -3.293   0.725  24.521  0.00  0.00    +0.000 C 
ATOM     16  C   UNL     1      -3.968   0.249  24.502  0.00  0.00    +0.040 C 
ATOM     26  C   UNL     1      -4.641  -0.226  24.483  0.00  0.00    +0.152 C 
ATOM     27  O   UNL     1      -5.390   0.118  24.515  0.00  0.00    -0.223 OA
ATOM     28  C   UNL     1      -4.565  -1.047  24.433  0.00  0.00    +0.033 C 
ATOM     29  C   UNL     1      -3.817  -1.391  24.402  0.00  0.00    +0.003 C 
ATOM     30  C   UNL     1      -3.142  -0.915  24.421  0.00  0.00    +0.006 C 
ATOM     31  C   UNL     1      -2.394  -1.259  24.389  0.00  0.00    +0.068 C 
ATOM     32  C   UNL     1      -2.712  -2.018  24.348  0.00  0.00    +0.006 C 
ENDROOT
BRANCH  31  33
ATOM     33  C   UNL     1      -1.942  -1.947  24.342  0.00  0.00    +0.185 C 
ATOM     34  O   UNL     1      -2.309  -2.685  24.378  0.00  0.00    -0.220 OA
ENDBRANCH  31  33
BRANCH  11  10
ATOM     10  O   UNL     1      -0.971  -1.127  24.377  0.00  0.00    -0.437 OA
BRANCH  10   8
ATOM      7  N   UNL     1       0.056  -0.627  23.517  0.00  0.00    -0.142 NA
ATOM      8  C   UNL     1      -0.304  -0.655  24.260  0.00  0.00    +0.425 C 
ATOM      9  O   UNL     1       0.003  -0.212  24.883  0.00  0.00    -0.224 OA
BRANCH   7   6
ATOM      3  C   UNL     1       2.056   0.787  23.164  0.00  0.00    +0.139 A 
ATOM      4  C   UNL     1       2.072  -0.012  22.954  0.00  0.00    +0.038 A 
ATOM      5  C   UNL     1       1.405  -0.482  23.072  0.00  0.00    +0.020 A 
ATOM      6  C   UNL     1       0.722  -0.156  23.399  0.00  0.00    +0.077 A 
ATOM     35  C   UNL     1       0.706   0.641  23.609  0.00  0.00    +0.020 A 
ATOM     36  C   UNL     1       1.373   1.113  23.491  0.00  0.00    +0.038 A 
BRANCH   3   2
ATOM      1  C   UNL     1       3.415   0.923  22.743  0.00  0.00    +0.252 C 
ATOM      2  O   UNL     1       2.723   1.257  23.046  0.00  0.00    -0.471 OA
ENDBRANCH   3   2
ENDBRANCH   7   6
ENDBRANCH  10   8
ENDBRANCH  11  10
BRANCH  16  17
ATOM     17  C   UNL     1      -4.043   1.069  24.553  0.00  0.00    +0.088 C 
BRANCH  17  18
ATOM     18  C   UNL     1      -4.548   1.404  25.112  0.00  0.00    +0.226 C 
ATOM     19  O   UNL     1      -4.893   0.929  25.693  0.00  0.00    -0.275 OA
ATOM     20  N   UNL     1      -4.708   2.212  25.093  0.00  0.00    -0.277 N 
ATOM     21  C   UNL     1      -4.406   2.753  24.549  0.00  0.00    +0.096 C 
ATOM     22  C   UNL     1      -4.710   3.498  24.734  0.00  0.00    +0.056 C 
ATOM     23  C   UNL     1      -5.201   3.417  25.392  0.00  0.00    +0.173 C 
ATOM     24  O   UNL     1      -5.619   4.023  25.763  0.00  0.00    -0.221 OA
ATOM     25  C   UNL     1      -5.200   2.622  25.614  0.00  0.00    +0.126 C 
ENDBRANCH  17  18
ENDBRANCH  16  17
TORSDOF 7
ENDMDL
MODEL 4
REMARK VINA RESULT:      -9.5      2.468      5.097
REMARK  Name = 
REMARK  7 active torsions:
REMARK  status: ('A' for Active; 'I' for Inactive)
REMARK    1  A    between atoms: O_2  and  C_3
REMARK    2  A    between atoms: C_6  and  N_7
REMARK    3  A    between atoms: C_8  and  O_10
REMARK    4  A    between atoms: O_10  and  C_11
REMARK    5  A    between atoms: C_16  and  C_17
REMARK    6  A    between atoms: C_17  and  C_18
REMARK    7  A    between atoms: C_31  and  C_33
REMARK                            x       y       z     vdW  Elec       q    Type
REMARK                         _______ _______ _______ _____ _____    ______ ____
ROOT
ATOM     11  C   UNL     1      -3.422  -0.274  24.621  0.00  0.00    +0.173 C 
ATOM     12  C   UNL     1      -2.886   0.293  24.350  0.00  0.00    +0.044 C 
ATOM     13  C   UNL     1      -2.079   0.124  24.337  0.00  0.00    +0.004 C 
ATOM     14  C   UNL     1      -1.807  -0.610  24.594  0.00  0.00    +0.003 C 
ATOM     15  C   UNL     1      -1.272  -0.044  24.324  0.00  0.00    +0.000 C 
ATOM     16  C   UNL     1      -0.999  -0.779  24.581  0.00  0.00    +0.040 C 
ATOM     26  C   UNL     1      -0.727  -1.514  24.838  0.00  0.00    +0.152 C 
ATOM     27  O   UNL     1       0.081  -1.683  24.825  0.00  0.00    -0.223 OA
ATOM     28  C   UNL     1      -1.263  -2.081  25.109  0.00  0.00    +0.033 C 
ATOM     29  C   UNL     1      -2.069  -1.912  25.122  0.00  0.00    +0.003 C 
ATOM     30  C   UNL     1      -2.342  -1.177  24.865  0.00  0.00    +0.006 C 
ATOM     31  C   UNL     1      -3.149  -1.009  24.878  0.00  0.00    +0.068 C 
ATOM     32  C   UNL     1      -3.329  -1.754  25.183  0.00  0.00    +0.006 C 
ENDROOT
BRANCH  31  33
ATOM     33  C   UNL     1      -3.914  -1.264  25.050  0.00  0.00    +0.185 C 
ATOM     34  O   UNL     1      -4.085  -2.072  25.071  0.00  0.00    -0.220 OA
ENDBRANCH  31  33
BRANCH  11  10
ATOM     10  O   UNL     1      -4.229  -0.105  24.634  0.00  0.00    -0.437 OA
BRANCH  10   8
ATOM      7  N   UNL     1      -4.875   0.927  25.383  0.00  0.00    -0.142 NA
ATOM      8  C   UNL     1      -4.487   0.676  24.698  0.00  0.00    +0.425 C 
ATOM      9  O   UNL     1      -4.359   1.205  24.079  0.00  0.00    -0.224 OA
BRANCH   7   6
ATOM      3  C   UNL     1      -5.650   3.269  25.578  0.00  0.00    +0.139 A 
ATOM      4  C   UNL     1      -6.174   2.679  25.335  0.00  0.00    +0.038 A 
ATOM      5  C   UNL     1      -5.915   1.899  25.270  0.00  0.00    +0.020 A 
ATOM      6  C   UNL     1      -5.133   1.707  25.448  0.00  0.00    +0.077 A 
ATOM     35  C   UNL     1      -4.609   2.296  25.690  0.00  0.00    +0.020 A 
ATOM     36  C   UNL     1      -4.867   3.077  25.755  0.00  0.00    +0.038 A 
BRANCH   3   2
ATOM      1  C   UNL     1      -5.415   4.668  25.409  0.00  0.00    +0.252 C 
ATOM      2  O   UNL     1      -5.909   4.049  25.642  0.00  0.00    -0.471 OA
ENDBRANCH   3   2
ENDBRANCH   7   6
ENDBRANCH  10   8
ENDBRANCH  11  10
BRANCH  16  17
ATOM     17  C   UNL     1      -0.464  -0.212  24.311  0.00  0.00    +0.088 C 
BRANCH  17  18
ATOM     18  C   UNL     1       0.083  -0.407  23.724  0.00  0.00    +0.226 C 
ATOM     19  O   UNL     1      -0.005  -1.107  23.295  0.00  0.00    -0.275 OA
ATOM     20  N   UNL     1       0.716   0.096  23.567  0.00  0.00    -0.277 N 
ATOM     21  C   UNL     1       0.875   0.809  23.949  0.00  0.00    +0.096 C 
ATOM     22  C   UNL     1       1.560   1.129  23.618  0.00  0.00    +0.056 C 
ATOM     23  C   UNL     1       1.825   0.613  23.032  0.00  0.00    +0.173 C 
ATOM     24  O   UNL     1       2.493   0.716  22.560  0.00  0.00    -0.221 OA
ATOM     25  C   UNL     1       1.303  -0.026  23.000  0.00  0.00    +0.126 C 
ENDBRANCH  17  18
ENDBRANCH  16  17
TORSDOF 7
ENDMDL
MODEL 5
REMARK VINA RESULT:      -9.5      1.294      5.320
REMARK  Name = 
REMARK  7 active torsions:
REMARK  status: ('A' for Active; 'I' for Inactive)
REMARK    1  A    between atoms: O_2  and  C_3
REMARK    2  A    between atoms: C_6  and  N_7
REMARK    3  A    between atoms: C_8  and  O_10
REMARK    4  A    between atoms: O_10  and  C_11
REMARK    5  A    between atoms: C_16  and  C_17
REMARK    6  A    between atoms: C_17  and  C_18
REMARK    7  A    between atoms: C_31  and  C_33
REMARK                            x       y       z     vdW  Elec       q    Type
REMARK                         _______ _______ _______ _____ _____    ______ ____
ROOT
ATOM     11  C   UNL     1      -3.945   1.722  24.760  0.00  0.00    +0.173 C 
ATOM     12  C   UNL     1      -3.158   1.483  24.690  0.00  0.00    +0.044 C 
ATOM     13  C   UNL     1      -2.977   0.687  24.573  0.00  0.00    +0.004 C 
ATOM     14  C   UNL     1      -3.582   0.129  24.526  0.00  0.00    +0.003 C 
ATOM     15  C   UNL     1      -2.797  -0.109  24.456  0.00  0.00    +0.000 C 
ATOM     16  C   UNL     1      -3.402  -0.667  24.409  0.00  0.00    +0.040 C 
ATOM     26  C   UNL     1      -4.008  -1.225  24.362  0.00  0.00    +0.152 C 
ATOM     27  O   UNL     1      -3.827  -2.022  24.245  0.00  0.00    -0.223 OA
ATOM     28  C   UNL     1      -4.795  -0.986  24.432  0.00  0.00    +0.033 C 
ATOM     29  C   UNL     1      -4.976  -0.190  24.549  0.00  0.00    +0.003 C 
ATOM     30  C   UNL     1      -4.370   0.368  24.596  0.00  0.00    +0.006 C 
ATOM     31  C   UNL     1      -4.550   1.164  24.713  0.00  0.00    +0.068 C 
ATOM     32  C   UNL     1      -5.360   1.008  24.731  0.00  0.00    +0.006 C 
ENDROOT
BRANCH  31  33
ATOM     33  C   UNL     1      -5.129   1.741  24.820  0.00  0.00    +0.185 C 
ATOM     34  O   UNL     1      -5.916   1.520  24.938  0.00  0.00    -0.220 OA
ENDBRANCH  31  33
BRANCH  11  10
ATOM     10  O   UNL     1      -4.125   2.518  24.877  0.00  0.00    -0.437 OA
BRANCH  10   8
ATOM      7  N   UNL     1      -3.181   3.424  25.454  0.00  0.00    -0.142 NA
ATOM      8  C   UNL     1      -3.539   3.093  24.788  0.00  0.00    +0.425 C 
ATOM      9  O   UNL     1      -3.312   3.336  24.034  0.00  0.00    -0.224 OA
BRANCH   7   6
ATOM      3  C   UNL     1      -1.425   5.146  25.187  0.00  0.00    +0.139 A 
ATOM      4  C   UNL     1      -2.221   5.360  25.153  0.00  0.00    +0.038 A 
ATOM      5  C   UNL     1      -2.806   4.785  25.242  0.00  0.00    +0.020 A 
ATOM      6  C   UNL     1      -2.596   3.997  25.365  0.00  0.00    +0.077 A 
ATOM     35  C   UNL     1      -1.800   3.784  25.399  0.00  0.00    +0.020 A 
ATOM     36  C   UNL     1      -1.214   4.358  25.309  0.00  0.00    +0.038 A 
BRANCH   3   2
ATOM      1  C   UNL     1      -0.326   5.689  24.451  0.00  0.00    +0.252 C 
ATOM      2  O   UNL     1      -0.840   5.720  25.097  0.00  0.00    -0.471 OA
ENDBRANCH   3   2
ENDBRANCH   7   6
ENDBRANCH  10   8
ENDBRANCH  11  10
BRANCH  16  17
ATOM     17  C   UNL     1      -2.616  -0.906  24.339  0.00  0.00    +0.088 C 
BRANCH  17  18
ATOM     18  C   UNL     1      -2.290  -1.423  24.893  0.00  0.00    +0.226 C 
ATOM     19  O   UNL     1      -2.775  -1.783  25.456  0.00  0.00    -0.275 OA
ATOM     20  N   UNL     1      -1.481  -1.579  24.885  0.00  0.00    -0.277 N 
ATOM     21  C   UNL     1      -0.930  -1.262  24.359  0.00  0.00    +0.096 C 
ATOM     22  C   UNL     1      -0.188  -1.568  24.551  0.00  0.00    +0.056 C 
ATOM     23  C   UNL     1      -0.280  -2.075  25.196  0.00  0.00    +0.173 C 
ATOM     24  O   UNL     1       0.321  -2.499  25.569  0.00  0.00    -0.221 OA
ATOM     25  C   UNL     1      -1.079  -2.082  25.403  0.00  0.00    +0.126 C 
ENDBRANCH  17  18
ENDBRANCH  16  17
TORSDOF 7
ENDMDL
MODEL 6
REMARK VINA RESULT:      -8.6      2.404      4.487
REMARK  Name = 
REMARK  7 active torsions:
REMARK  status: ('A' for Active; 'I' for Inactive)
REMARK    1  A    between atoms: O_2  and  C_3
REMARK    2  A    between atoms: C_6  and  N_7
REMARK    3  A    between atoms: C_8  and  O_10
REMARK    4  A    between atoms: O_10  and  C_11
REMARK    5  A    between atoms: C_16  and  C_17
REMARK    6  A    between atoms: C_17  and  C_18
REMARK    7  A    between atoms: C_31  and  C_33
REMARK                            x       y       z     vdW  Elec       q    Type
REMARK                         _______ _______ _______ _____ _____    ______ ____
ROOT
ATOM     11  C   UNL     1      -1.028   3.158  24.796  0.00  0.00    +0.173 C 
ATOM     12  C   UNL     1      -1.549   2.522  24.712  0.00  0.00    +0.044 C 
ATOM     13  C   UNL     1      -2.336   2.601  24.943  0.00  0.00    +0.004 C 
ATOM     14  C   UNL     1      -2.604   3.315  25.258  0.00  0.00    +0.003 C 
ATOM     15  C   UNL     1      -3.123   2.681  25.175  0.00  0.00    +0.000 C 
ATOM     16  C   UNL     1      -3.392   3.394  25.490  0.00  0.00    +0.040 C 
ATOM     26  C   UNL     1      -3.659   4.108  25.804  0.00  0.00    +0.152 C 
ATOM     27  O   UNL     1      -4.447   4.187  26.036  0.00  0.00    -0.223 OA
ATOM     28  C   UNL     1      -3.139   4.743  25.888  0.00  0.00    +0.033 C 
ATOM     29  C   UNL     1      -2.351   4.664  25.657  0.00  0.00    +0.003 C 
ATOM     30  C   UNL     1      -2.083   3.951  25.342  0.00  0.00    +0.006 C 
ATOM     31  C   UNL     1      -1.296   3.871  25.110  0.00  0.00    +0.068 C 
ATOM     32  C   UNL     1      -1.123   4.646  25.332  0.00  0.00    +0.006 C 
ENDROOT
BRANCH  31  33
ATOM     33  C   UNL     1      -0.551   4.217  25.036  0.00  0.00    +0.185 C 
ATOM     34  O   UNL     1      -0.481   5.036  24.958  0.00  0.00    -0.220 OA
ENDBRANCH  31  33
BRANCH  11  10
ATOM     10  O   UNL     1      -0.240   3.078  24.564  0.00  0.00    -0.437 OA
BRANCH  10   8
ATOM      7  N   UNL     1       0.510   1.875  24.382  0.00  0.00    -0.142 NA
ATOM      8  C   UNL     1      -0.011   2.445  24.088  0.00  0.00    +0.425 C 
ATOM      9  O   UNL     1      -0.301   2.380  23.319  0.00  0.00    -0.224 OA
BRANCH   7   6
ATOM      3  C   UNL     1       1.198  -0.026  22.955  0.00  0.00    +0.139 A 
ATOM      4  C   UNL     1       0.467  -0.041  23.339  0.00  0.00    +0.038 A 
ATOM      5  C   UNL     1       0.238   0.593  23.814  0.00  0.00    +0.020 A 
ATOM      6  C   UNL     1       0.739   1.242  23.906  0.00  0.00    +0.077 A 
ATOM     35  C   UNL     1       1.469   1.257  23.523  0.00  0.00    +0.020 A 
ATOM     36  C   UNL     1       1.698   0.623  23.047  0.00  0.00    +0.038 A 
BRANCH   3   2
ATOM      1  C   UNL     1       1.465  -0.567  21.659  0.00  0.00    +0.252 C 
ATOM      2  O   UNL     1       1.426  -0.660  22.479  0.00  0.00    -0.471 OA
ENDBRANCH   3   2
ENDBRANCH   7   6
ENDBRANCH  10   8
ENDBRANCH  11  10
BRANCH  16  17
ATOM     17  C   UNL     1      -3.912   2.760  25.406  0.00  0.00    +0.088 C 
BRANCH  17  18
ATOM     18  C   UNL     1      -4.624   2.860  25.003  0.00  0.00    +0.226 C 
ATOM     19  O   UNL     1      -4.735   3.519  24.519  0.00  0.00    -0.275 OA
ATOM     20  N   UNL     1      -5.226   2.302  25.084  0.00  0.00    -0.277 N 
ATOM     21  C   UNL     1      -5.195   1.619  25.545  0.00  0.00    +0.096 C 
ATOM     22  C   UNL     1      -5.915   1.223  25.463  0.00  0.00    +0.056 C 
ATOM     23  C   UNL     1      -6.390   1.662  24.951  0.00  0.00    +0.173 C 
ATOM     24  O   UNL     1      -7.156   1.468  24.715  0.00  0.00    -0.221 OA
ATOM     25  C   UNL     1      -5.964   2.329  24.716  0.00  0.00    +0.126 C 
ENDBRANCH  17  18
ENDBRANCH  16  17
TORSDOF 7
ENDMDL
MODEL 7
REMARK VINA RESULT:      -8.5      2.013      6.104
REMARK  Name = 
REMARK  7 active torsions:
REMARK  status: ('A' for Active; 'I' for Inactive)
REMARK    1  A    between atoms: O_2  and  C_3
REMARK    2  A    between atoms: C_6  and  N_7
REMARK    3  A    between atoms: C_8  and  O_10
REMARK    4  A    between atoms: O_10  and  C_11
REMARK    5  A    between atoms: C_16  and  C_17
REMARK    6  A    between atoms: C_17  and  C_18
REMARK    7  A    between atoms: C_31  and  C_33
REMARK                            x       y       z     vdW  Elec       q    Type
REMARK                         _______ _______ _______ _____ _____    ______ ____
ROOT
ATOM     11  C   UNL     1      -1.509   1.909  24.741  0.00  0.00    +0.173 C 
ATOM     12  C   UNL     1      -2.053   1.349  25.008  0.00  0.00    +0.044 C 
ATOM     13  C   UNL     1      -1.866   0.546  24.981  0.00  0.00    +0.004 C 
ATOM     14  C   UNL     1      -1.136   0.303  24.687  0.00  0.00    +0.003 C 
ATOM     15  C   UNL     1      -1.679  -0.256  24.954  0.00  0.00    +0.000 C 
ATOM     16  C   UNL     1      -0.948  -0.500  24.660  0.00  0.00    +0.040 C 
ATOM     26  C   UNL     1      -0.217  -0.743  24.366  0.00  0.00    +0.152 C 
ATOM     27  O   UNL     1      -0.029  -1.547  24.339  0.00  0.00    -0.223 OA
ATOM     28  C   UNL     1       0.328  -0.183  24.099  0.00  0.00    +0.033 C 
ATOM     29  C   UNL     1       0.141   0.619  24.126  0.00  0.00    +0.003 C 
ATOM     30  C   UNL     1      -0.591   0.863  24.420  0.00  0.00    +0.006 C 
ATOM     31  C   UNL     1      -0.778   1.666  24.447  0.00  0.00    +0.068 C 
ATOM     32  C   UNL     1      -0.049   1.876  24.124  0.00  0.00    +0.006 C 
ENDROOT
BRANCH  31  33
ATOM     33  C   UNL     1      -0.547   2.443  24.298  0.00  0.00    +0.185 C 
ATOM     34  O   UNL     1       0.251   2.621  24.180  0.00  0.00    -0.220 OA
ENDBRANCH  31  33
BRANCH  11  10
ATOM     10  O   UNL     1      -1.696   2.712  24.768  0.00  0.00    -0.437 OA
BRANCH  10   8
ATOM      7  N   UNL     1      -3.035   3.167  24.552  0.00  0.00    -0.142 NA
ATOM      8  C   UNL     1      -2.425   2.957  25.069  0.00  0.00    +0.425 C 
ATOM      9  O   UNL     1      -2.545   2.992  25.883  0.00  0.00    -0.224 OA
BRANCH   7   6
ATOM      3  C   UNL     1      -5.220   3.900  25.451  0.00  0.00    +0.139 A 
ATOM      4  C   UNL     1      -5.149   3.160  25.091  0.00  0.00    +0.038 A 
ATOM      5  C   UNL     1      -4.420   2.917  24.791  0.00  0.00    +0.020 A 
ATOM      6  C   UNL     1      -3.763   3.411  24.852  0.00  0.00    +0.077 A 
ATOM     35  C   UNL     1      -3.834   4.149  25.211  0.00  0.00    +0.020 A 
ATOM     36  C   UNL     1      -4.563   4.394  25.511  0.00  0.00    +0.038 A 
BRANCH   3   2
ATOM      1  C   UNL     1      -6.240   4.894  25.567  0.00  0.00    +0.252 C 
ATOM      2  O   UNL     1      -5.949   4.144  25.751  0.00  0.00    -0.471 OA
ENDBRANCH   3   2
ENDBRANCH   7   6
ENDBRANCH  10   8
ENDBRANCH  11  10
BRANCH  16  17
ATOM     17  C   UNL     1      -1.492  -1.060  24.927  0.00  0.00    +0.088 C 
BRANCH  17  18
ATOM     18  C   UNL     1      -1.753  -1.657  24.421  0.00  0.00    +0.226 C 
ATOM     19  O   UNL     1      -1.365  -1.787  23.704  0.00  0.00    -0.275 OA
ATOM     20  N   UNL     1      -2.399  -2.123  24.631  0.00  0.00    -0.277 N 
ATOM     21  C   UNL     1      -2.838  -2.058  25.326  0.00  0.00    +0.096 C 
ATOM     22  C   UNL     1      -3.431  -2.632  25.308  0.00  0.00    +0.056 C 
ATOM     23  C   UNL     1      -3.358  -3.052  24.602  0.00  0.00    +0.173 C 
ATOM     24  O   UNL     1      -3.838  -3.676  24.357  0.00  0.00    -0.221 OA
ATOM     25  C   UNL     1      -2.720  -2.737  24.183  0.00  0.00    +0.126 C 
ENDBRANCH  17  18
ENDBRANCH  16  17
TORSDOF 7
ENDMDL
MODEL 8
REMARK VINA RESULT:      -8.3      2.832      5.149
REMARK  Name = 
REMARK  7 active torsions:
REMARK  status: ('A' for Active; 'I' for Inactive)
REMARK    1  A    between atoms: O_2  and  C_3
REMARK    2  A    between atoms: C_6  and  N_7
REMARK    3  A    between atoms: C_8  and  O_10
REMARK    4  A    between atoms: O_10  and  C_11
REMARK    5  A    between atoms: C_16  and  C_17
REMARK    6  A    between atoms: C_17  and  C_18
REMARK    7  A    between atoms: C_31  and  C_33
REMARK                            x       y       z     vdW  Elec       q    Type
REMARK                         _______ _______ _______ _____ _____    ______ ____
ROOT
ATOM     11  C   UNL     1      -1.415   1.737  24.659  0.00  0.00    +0.173 C 
ATOM     12  C   UNL     1      -1.441   0.917  24.747  0.00  0.00    +0.044 C 
ATOM     13  C   UNL     1      -2.165   0.535  24.842  0.00  0.00    +0.004 C 
ATOM     14  C   UNL     1      -2.864   0.972  24.849  0.00  0.00    +0.003 C 
ATOM     15  C   UNL     1      -2.889   0.153  24.937  0.00  0.00    +0.000 C 
ATOM     16  C   UNL     1      -3.589   0.590  24.945  0.00  0.00    +0.040 C 
ATOM     26  C   UNL     1      -4.288   1.028  24.952  0.00  0.00    +0.152 C 
ATOM     27  O   UNL     1      -5.013   0.646  25.047  0.00  0.00    -0.223 OA
ATOM     28  C   UNL     1      -4.262   1.849  24.865  0.00  0.00    +0.033 C 
ATOM     29  C   UNL     1      -3.538   2.230  24.770  0.00  0.00    +0.003 C 
ATOM     30  C   UNL     1      -2.838   1.793  24.762  0.00  0.00    +0.006 C 
ATOM     31  C   UNL     1      -2.114   2.175  24.667  0.00  0.00    +0.068 C 
ATOM     32  C   UNL     1      -2.477   2.913  24.618  0.00  0.00    +0.006 C 
ENDROOT
BRANCH  31  33
ATOM     33  C   UNL     1      -1.705   2.883  24.562  0.00  0.00    +0.185 C 
ATOM     34  O   UNL     1      -2.080   3.602  24.716  0.00  0.00    -0.220 OA
ENDBRANCH  31  33
BRANCH  11  10
ATOM     10  O   UNL     1      -0.689   2.119  24.564  0.00  0.00    -0.437 OA
BRANCH  10   8
ATOM      7  N   UNL     1       0.211   1.626  23.569  0.00  0.00    -0.142 NA
ATOM      8  C   UNL     1      -0.017   1.686  24.361  0.00  0.00    +0.425 C 
ATOM      9  O   UNL     1       0.426   1.313  24.947  0.00  0.00    -0.224 OA
BRANCH   7   6
ATOM      3  C   UNL     1       2.227   0.327  22.959  0.00  0.00    +0.139 A 
ATOM      4  C   UNL     1       2.305   1.082  23.285  0.00  0.00    +0.038 A 
ATOM      5  C   UNL     1       1.633   1.514  23.488  0.00  0.00    +0.020 A 
ATOM      6  C   UNL     1       0.883   1.193  23.366  0.00  0.00    +0.077 A 
ATOM     35  C   UNL     1       0.805   0.439  23.041  0.00  0.00    +0.020 A 
ATOM     36  C   UNL     1       1.477   0.006  22.837  0.00  0.00    +0.038 A 
BRANCH   3   2
ATOM      1  C   UNL     1       3.635   0.268  22.721  0.00  0.00    +0.252 C 
ATOM      2  O   UNL     1       2.899  -0.106  22.756  0.00  0.00    -0.471 OA
ENDBRANCH   3   2
ENDBRANCH   7   6
ENDBRANCH  10   8
ENDBRANCH  11  10
BRANCH  16  17
ATOM     17  C   UNL     1      -3.615  -0.230  25.032  0.00  0.00    +0.088 C 
BRANCH  17  18
ATOM     18  C   UNL     1      -3.978  -0.695  24.456  0.00  0.00    +0.226 C 
ATOM     19  O   UNL     1      -4.405  -0.338  23.847  0.00  0.00    -0.275 OA
ATOM     20  N   UNL     1      -3.913  -1.516  24.488  0.00  0.00    -0.277 N 
ATOM     21  C   UNL     1      -3.507  -1.949  25.060  0.00  0.00    +0.096 C 
ATOM     22  C   UNL     1      -3.587  -2.750  24.879  0.00  0.00    +0.056 C 
ATOM     23  C   UNL     1      -4.043  -2.813  24.195  0.00  0.00    +0.173 C 
ATOM     24  O   UNL     1      -4.259  -3.514  23.819  0.00  0.00    -0.221 OA
ATOM     25  C   UNL     1      -4.245  -2.050  23.953  0.00  0.00    +0.126 C 
ENDBRANCH  17  18
ENDBRANCH  16  17
TORSDOF 7
ENDMDL
MODEL 9
REMARK VINA RESULT:      -7.9      2.042      5.374
REMARK  Name = 
REMARK  7 active torsions:
REMARK  status: ('A' for Active; 'I' for Inactive)
REMARK    1  A    between atoms: O_2  and  C_3
REMARK    2  A    between atoms: C_6  and  N_7
REMARK    3  A    between atoms: C_8  and  O_10
REMARK    4  A    between atoms: O_10  and  C_11
REMARK    5  A    between atoms: C_16  and  C_17
REMARK    6  A    between atoms: C_17  and  C_18
REMARK    7  A    between atoms: C_31  and  C_33
REMARK                            x       y       z     vdW  Elec       q    Type
REMARK                         _______ _______ _______ _____ _____    ______ ____
ROOT
ATOM     11  C   UNL     1      -1.880   3.443  25.300  0.00  0.00    +0.173 C 
ATOM     12  C   UNL     1      -1.981   2.647  25.496  0.00  0.00    +0.044 C 
ATOM     13  C   UNL     1      -1.394   2.099  25.309  0.00  0.00    +0.004 C 
ATOM     14  C   UNL     1      -0.707   2.345  24.926  0.00  0.00    +0.003 C 
ATOM     15  C   UNL     1      -0.807   1.551  25.121  0.00  0.00    +0.000 C 
ATOM     16  C   UNL     1      -0.119   1.797  24.738  0.00  0.00    +0.040 C 
ATOM     26  C   UNL     1       0.568   2.043  24.355  0.00  0.00    +0.152 C 
ATOM     27  O   UNL     1       1.156   1.495  24.167  0.00  0.00    -0.223 OA
ATOM     28  C   UNL     1       0.669   2.839  24.159  0.00  0.00    +0.033 C 
ATOM     29  C   UNL     1       0.082   3.387  24.346  0.00  0.00    +0.003 C 
ATOM     30  C   UNL     1      -0.606   3.141  24.730  0.00  0.00    +0.006 C 
ATOM     31  C   UNL     1      -1.193   3.689  24.917  0.00  0.00    +0.068 C 
ATOM     32  C   UNL     1      -0.759   4.309  24.590  0.00  0.00    +0.006 C 
ENDROOT
BRANCH  31  33
ATOM     33  C   UNL     1      -1.449   4.472  24.899  0.00  0.00    +0.185 C 
ATOM     34  O   UNL     1      -0.898   5.087  24.903  0.00  0.00    -0.220 OA
ENDBRANCH  31  33
BRANCH  11  10
ATOM     10  O   UNL     1      -2.468   3.991  25.488  0.00  0.00    -0.437 OA
BRANCH  10   8
ATOM      7  N   UNL     1      -3.777   3.549  25.123  0.00  0.00    -0.142 NA
ATOM      8  C   UNL     1      -3.220   3.732  25.705  0.00  0.00    +0.425 C 
ATOM      9  O   UNL     1      -3.417   3.657  26.502  0.00  0.00    -0.224 OA
BRANCH   7   6
ATOM      3  C   UNL     1      -6.036   2.774  25.773  0.00  0.00    +0.139 A 
ATOM      4  C   UNL     1      -5.847   3.577  25.813  0.00  0.00    +0.038 A 
ATOM      5  C   UNL     1      -5.094   3.834  25.596  0.00  0.00    +0.020 A 
ATOM      6  C   UNL     1      -4.530   3.290  25.339  0.00  0.00    +0.077 A 
ATOM     35  C   UNL     1      -4.718   2.489  25.300  0.00  0.00    +0.020 A 
ATOM     36  C   UNL     1      -5.471   2.230  25.516  0.00  0.00    +0.038 A 
BRANCH   3   2
ATOM      1  C   UNL     1      -6.873   1.878  26.507  0.00  0.00    +0.252 C 
ATOM      2  O   UNL     1      -6.789   2.516  25.989  0.00  0.00    -0.471 OA
ENDBRANCH   3   2
ENDBRANCH   7   6
ENDBRANCH  10   8
ENDBRANCH  11  10
BRANCH  16  17
ATOM     17  C   UNL     1      -0.220   1.002  24.934  0.00  0.00    +0.088 C 
BRANCH  17  18
ATOM     18  C   UNL     1      -0.282   0.434  24.338  0.00  0.00    +0.226 C 
ATOM     19  O   UNL     1      -0.158   0.648  23.551  0.00  0.00    -0.275 OA
ATOM     20  N   UNL     1      -0.469  -0.345  24.529  0.00  0.00    -0.277 N 
ATOM     21  C   UNL     1      -0.608  -0.639  25.287  0.00  0.00    +0.096 C 
ATOM     22  C   UNL     1      -0.774  -1.445  25.222  0.00  0.00    +0.056 C 
ATOM     23  C   UNL     1      -0.738  -1.649  24.423  0.00  0.00    +0.173 C 
ATOM     24  O   UNL     1      -0.868  -2.400  24.108  0.00  0.00    -0.221 OA
ATOM     25  C   UNL     1      -0.550  -0.969  23.995  0.00  0.00    +0.126 C 
ENDBRANCH  17  18
ENDBRANCH  16  17
TORSDOF 7
ENDMDL
