REMARK  Name = 
REMARK  5 active torsions:
REMARK  status: ('A' for Active; 'I' for Inactive)
REMARK    1  A    between atoms: C_2  and  N_4
REMARK    2  A    between atoms: N_4  and  C_5
REMARK    3  A    between atoms: C_5  and  C_6
REMARK    4  A    between atoms: C_8  and  C_9
REMARK    5  A    between atoms: C_13  and  N_14
REMARK                            x       y       z     vdW  Elec       q    Type
REMARK                         _______ _______ _______ _____ _____    ______ ____
ROOT
ATOM      6  C   UNL     1       0.715  -1.238   0.000  0.00  0.00    +0.150 C 
ATOM      7  O   UNL     1       1.382  -1.722   0.000  0.00  0.00    -0.350 OA
ATOM      8  C   UNL     1       1.127  -2.507   0.000  0.00  0.00    +0.180 C 
ATOM     11  C   UNL     1       0.302  -2.507   0.000  0.00  0.00    +0.198 C 
ATOM     12  O   UNL     1      -0.183  -3.175   0.000  0.00  0.00    -0.219 OA
ATOM     13  C   UNL     1       0.047  -1.722   0.000  0.00  0.00    +0.120 C 
ENDROOT
BRANCH  13  14
ATOM     14  N   UNL     1      -0.738  -1.468   0.000  0.00  0.00    -0.270 NA
ATOM     15  C   UNL     1      -1.351  -2.019   0.000  0.00  0.00    +0.072 C 
ATOM     16  C   UNL     1      -2.135  -1.765   0.000  0.00  0.00    +0.017 C 
ATOM     17  C   UNL     1      -2.307  -0.958   0.000  0.00  0.00    +0.003 C 
ATOM     18  C   UNL     1      -3.091  -0.703   0.000  0.00  0.00    +0.000 C 
ATOM     19  C   UNL     1      -1.694  -0.406   0.000  0.00  0.00    +0.017 C 
ATOM     20  C   UNL     1      -0.909  -0.660   0.000  0.00  0.00    +0.072 C 
ENDBRANCH  13  14
BRANCH   8   9
ATOM      9  C   UNL     1       1.612  -3.175   0.000  0.00  0.00    +0.214 C 
ATOM     10  O   UNL     1       1.276  -3.928   0.000  0.00  0.00    -0.218 OA
ENDBRANCH   8   9
BRANCH   6   5
ATOM      5  C   UNL     1       0.715  -0.412   0.000  0.00  0.00    +0.120 C 
BRANCH   5   4
ATOM      4  N   UNL     1       1.429   0.000   0.000  0.00  0.00    -0.217 NA
BRANCH   4   2
ATOM      1  C   UNL     1       2.143   1.238   0.000  0.00  0.00    +0.019 C 
ATOM      2  C   UNL     1       1.429   0.825   0.000  0.00  0.00    +0.073 C 
ATOM      3  C   UNL     1       0.715   1.238   0.000  0.00  0.00    +0.019 C 
ENDBRANCH   4   2
ENDBRANCH   5   4
ENDBRANCH   6   5
TORSDOF 5
