REMARK  Name = 
REMARK  7 active torsions:
REMARK  status: ('A' for Active; 'I' for Inactive)
REMARK    1  A    between atoms: C_2  and  C_3
REMARK    2  A    between atoms: C_3  and  S_4
REMARK    3  A    between atoms: S_4  and  N_7
REMARK    4  A    between atoms: N_7  and  C_8
REMARK    5  A    between atoms: C_16  and  C_18
REMARK    6  A    between atoms: C_18  and  O_19
REMARK    7  A    between atoms: O_19  and  C_20
REMARK                            x       y       z     vdW  Elec       q    Type
REMARK                         _______ _______ _______ _____ _____    ______ ____
ROOT
ATOM      8  C   UNL     1      -0.397  -0.039   0.000  0.00  0.00    +0.102 A 
ATOM      9  C   UNL     1       0.244  -0.558   0.000  0.00  0.00    +0.058 A 
ATOM     10  C   UNL     1       1.163  -0.557   0.000  0.00  0.00    +0.060 C 
ATOM     11  C   UNL     1       1.713  -0.121   0.000  0.00  0.00    +0.011 C 
ATOM     12  C   UNL     1       1.582  -0.925   0.000  0.00  0.00    +0.043 C 
ATOM     13  C   UNL     1       1.629  -1.912   0.000  0.00  0.00    +0.095 C 
ATOM     14  N   UNL     1       0.813  -2.091   0.000  0.00  0.00    -0.276 N 
ATOM     15  C   UNL     1       1.225  -1.510   0.000  0.00  0.00    +0.099 C 
ATOM     16  C   UNL     1       0.125  -2.547   0.000  0.00  0.00    +0.270 C 
ATOM     17  O   UNL     1       0.176  -3.370   0.000  0.00  0.00    -0.271 OA
ATOM     26  C   UNL     1       0.622  -0.936   0.000  0.00  0.00    +0.110 C 
ATOM     27  N   UNL     1       0.115  -1.373   0.000  0.00  0.00    -0.298 N 
ATOM     28  C   UNL     1      -0.655  -1.669   0.000  0.00  0.00    +0.261 A 
ATOM     29  O   UNL     1      -1.238  -2.252   0.000  0.00  0.00    -0.267 OA
ATOM     30  C   UNL     1      -1.296  -1.150   0.000  0.00  0.00    +0.062 A 
ATOM     31  C   UNL     1      -1.167  -0.335   0.000  0.00  0.00    +0.024 A 
ENDROOT
BRANCH   8   7
ATOM      7  N   UNL     1      -0.268   0.776   0.000  0.00  0.00    -0.100 NA
BRANCH   7   4
ATOM      4  S   UNL     1      -0.909   1.295   0.000  0.00  0.00    +0.073 S 
ATOM      5  O   UNL     1      -1.428   0.654   0.000  0.00  0.00    -0.153 OA
ATOM      6  O   UNL     1      -0.390   1.936   0.000  0.00  0.00    -0.153 OA
BRANCH   4   3
ATOM      3  C   UNL     1      -1.550   1.814   0.000  0.00  0.00    +0.174 C 
BRANCH   3   2
ATOM      1  C   UNL     1      -2.063   3.148   0.000  0.00  0.00    +0.002 C 
ATOM      2  C   UNL     1      -1.421   2.629   0.000  0.00  0.00    +0.027 C 
ENDBRANCH   3   2
ENDBRANCH   4   3
ENDBRANCH   7   4
ENDBRANCH   8   7
BRANCH  16  18
ATOM     18  C   UNL     1      -0.614  -2.179   0.000  0.00  0.00    +0.290 C 
BRANCH  18  19
ATOM     19  O   UNL     1      -1.301  -2.635   0.000  0.00  0.00    -0.466 OA
BRANCH  19  20
ATOM     20  C   UNL     1      -1.251  -3.458   0.000  0.00  0.00    +0.139 A 
ATOM     21  C   UNL     1      -0.512  -3.826   0.000  0.00  0.00    +0.037 A 
ATOM     22  C   UNL     1      -0.461  -4.650   0.000  0.00  0.00    +0.003 A 
ATOM     23  C   UNL     1      -1.149  -5.105   0.000  0.00  0.00    +0.000 A 
ATOM     24  C   UNL     1      -1.888  -4.737   0.000  0.00  0.00    +0.003 A 
ATOM     25  C   UNL     1      -1.938  -3.914   0.000  0.00  0.00    +0.037 A 
ENDBRANCH  19  20
ENDBRANCH  18  19
ENDBRANCH  16  18
TORSDOF 7
