MODEL 1
REMARK VINA RESULT:     -13.8      0.000      0.000
REMARK  Name = 
REMARK  6 active torsions:
REMARK  status: ('A' for Active; 'I' for Inactive)
REMARK    1  A    between atoms: C_2  and  C_4
REMARK    2  A    between atoms: N_7  and  C_10
REMARK    3  A    between atoms: C_12  and  C_16
REMARK    4  A    between atoms: C_19  and  C_21
REMARK    5  A    between atoms: N_25  and  C_26
REMARK    6  A    between atoms: C_26  and  C_27
REMARK                            x       y       z     vdW  Elec       q    Type
REMARK                         _______ _______ _______ _____ _____    ______ ____
ROOT
ATOM     16  C   UNL     1      -0.568   2.551  24.983  0.00  0.00    +0.203 A 
ATOM     17  N   UNL     1       0.082   2.359  25.454  0.00  0.00    -0.056 NA
ATOM     18  O   UNL     1       0.373   1.630  25.202  0.00  0.00    -0.336 OA
ATOM     19  C   UNL     1      -0.096   1.371  24.575  0.00  0.00    +0.251 A 
ATOM     20  N   UNL     1      -0.677   1.940  24.440  0.00  0.00    -0.190 NA
ENDROOT
BRANCH  16  12
ATOM     10  C   UNL     1      -2.304   3.856  25.199  0.00  0.00    +0.132 A 
ATOM     11  C   UNL     1      -1.845   3.174  25.138  0.00  0.00    +0.037 A 
ATOM     12  C   UNL     1      -1.027   3.233  25.045  0.00  0.00    +0.043 A 
ATOM     13  C   UNL     1      -0.669   3.976  25.014  0.00  0.00    +0.024 A 
ATOM     14  C   UNL     1      -1.128   4.659  25.076  0.00  0.00    +0.100 A 
ATOM     15  N   UNL     1      -1.945   4.599  25.168  0.00  0.00    -0.229 NA
BRANCH  10   7
ATOM      4  C   UNL     1      -4.757   3.677  25.477  0.00  0.00    +0.083 C 
ATOM      5  C   UNL     1      -4.271   3.755  26.139  0.00  0.00    +0.031 C 
ATOM      6  C   UNL     1      -3.453   3.814  26.047  0.00  0.00    +0.093 C 
ATOM      7  N   UNL     1      -3.122   3.797  25.292  0.00  0.00    -0.293 N 
ATOM      8  C   UNL     1      -3.607   3.719  24.629  0.00  0.00    +0.093 C 
ATOM      9  C   UNL     1      -4.424   3.660  24.722  0.00  0.00    +0.031 C 
BRANCH   4   2
ATOM      1  N   UNL     1      -5.938   2.878  25.553  0.00  0.00    -0.088 NA
ATOM      2  C   UNL     1      -5.574   3.618  25.570  0.00  0.00    +0.260 C 
ATOM      3  O   UNL     1      -6.028   4.298  25.678  0.00  0.00    -0.272 OA
ENDBRANCH   4   2
ENDBRANCH  10   7
ENDBRANCH  16  12
BRANCH  19  21
ATOM     21  C   UNL     1       0.000   0.666  24.156  0.00  0.00    +0.138 C 
ATOM     22  C   UNL     1       0.488   0.555  23.501  0.00  0.00    +0.027 C 
ATOM     23  C   UNL     1       0.415  -0.231  23.259  0.00  0.00    +0.019 C 
ATOM     24  C   UNL     1      -0.118  -0.604  23.765  0.00  0.00    +0.073 C 
ATOM     25  N   UNL     1      -0.375  -0.051  24.320  0.00  0.00    -0.260 NA
BRANCH  25  26
ATOM     26  C   UNL     1      -0.912  -0.188  24.931  0.00  0.00    +0.138 C 
BRANCH  26  27
ATOM     27  C   UNL     1      -1.561  -0.682  24.808  0.00  0.00    +0.139 A 
ATOM     28  C   UNL     1      -1.596  -1.488  24.979  0.00  0.00    +0.037 A 
ATOM     29  C   UNL     1      -2.345  -1.761  24.768  0.00  0.00    +0.037 A 
ATOM     30  C   UNL     1      -2.773  -1.124  24.467  0.00  0.00    +0.145 A 
ATOM     31  O   UNL     1      -2.289  -0.457  24.491  0.00  0.00    -0.456 OA
ATOM     32  C   UNL     1      -3.549  -1.234  24.209  0.00  0.00    +0.037 A 
ATOM     33  C   UNL     1      -3.897  -1.980  24.253  0.00  0.00    +0.003 A 
ATOM     34  C   UNL     1      -3.468  -2.617  24.554  0.00  0.00    +0.000 A 
ATOM     35  C   UNL     1      -2.693  -2.509  24.812  0.00  0.00    +0.003 A 
ENDBRANCH  26  27
ENDBRANCH  25  26
ENDBRANCH  19  21
TORSDOF 6
ENDMDL
MODEL 2
REMARK VINA RESULT:     -12.7      1.222      4.822
REMARK  Name = 
REMARK  6 active torsions:
REMARK  status: ('A' for Active; 'I' for Inactive)
REMARK    1  A    between atoms: C_2  and  C_4
REMARK    2  A    between atoms: N_7  and  C_10
REMARK    3  A    between atoms: C_12  and  C_16
REMARK    4  A    between atoms: C_19  and  C_21
REMARK    5  A    between atoms: N_25  and  C_26
REMARK    6  A    between atoms: C_26  and  C_27
REMARK                            x       y       z     vdW  Elec       q    Type
REMARK                         _______ _______ _______ _____ _____    ______ ____
ROOT
ATOM     16  C   UNL     1      -0.269   1.775  24.883  0.00  0.00    +0.203 A 
ATOM     17  N   UNL     1       0.187   2.019  25.527  0.00  0.00    -0.056 NA
ATOM     18  O   UNL     1      -0.016   2.798  25.702  0.00  0.00    -0.336 OA
ATOM     19  C   UNL     1      -0.597   3.037  25.167  0.00  0.00    +0.251 A 
ATOM     20  N   UNL     1      -0.753   2.405  24.661  0.00  0.00    -0.190 NA
ENDROOT
BRANCH  16  12
ATOM     10  C   UNL     1      -0.819  -0.258  24.310  0.00  0.00    +0.132 A 
ATOM     11  C   UNL     1      -0.844   0.485  24.669  0.00  0.00    +0.037 A 
ATOM     12  C   UNL     1      -0.244   1.033  24.525  0.00  0.00    +0.043 A 
ATOM     13  C   UNL     1       0.381   0.837  24.022  0.00  0.00    +0.024 A 
ATOM     14  C   UNL     1       0.405   0.095  23.664  0.00  0.00    +0.100 A 
ATOM     15  N   UNL     1      -0.194  -0.453  23.808  0.00  0.00    -0.229 NA
BRANCH  10   7
ATOM      4  C   UNL     1      -2.619  -1.902  24.742  0.00  0.00    +0.083 C 
ATOM      5  C   UNL     1      -1.830  -2.144  24.741  0.00  0.00    +0.031 C 
ATOM      6  C   UNL     1      -1.230  -1.596  24.597  0.00  0.00    +0.093 C 
ATOM      7  N   UNL     1      -1.419  -0.806  24.454  0.00  0.00    -0.293 N 
ATOM      8  C   UNL     1      -2.208  -0.564  24.454  0.00  0.00    +0.093 C 
ATOM      9  C   UNL     1      -2.807  -1.111  24.598  0.00  0.00    +0.031 C 
BRANCH   4   2
ATOM      1  N   UNL     1      -3.535  -2.887  24.262  0.00  0.00    -0.088 NA
ATOM      2  C   UNL     1      -3.218  -2.449  24.885  0.00  0.00    +0.260 C 
ATOM      3  O   UNL     1      -3.502  -2.560  25.652  0.00  0.00    -0.272 OA
ENDBRANCH   4   2
ENDBRANCH  10   7
ENDBRANCH  16  12
BRANCH  19  21
ATOM     21  C   UNL     1      -0.959   3.778  25.143  0.00  0.00    +0.138 C 
ATOM     22  C   UNL     1      -0.672   4.445  24.751  0.00  0.00    +0.027 C 
ATOM     23  C   UNL     1      -1.205   5.062  24.872  0.00  0.00    +0.019 C 
ATOM     24  C   UNL     1      -1.822   4.777  25.339  0.00  0.00    +0.073 C 
ATOM     25  N   UNL     1      -1.670   3.984  25.507  0.00  0.00    -0.260 NA
BRANCH  25  26
ATOM     26  C   UNL     1      -2.145   3.483  25.959  0.00  0.00    +0.138 C 
BRANCH  26  27
ATOM     27  C   UNL     1      -2.947   3.404  25.783  0.00  0.00    +0.139 A 
ATOM     28  C   UNL     1      -3.554   3.890  26.059  0.00  0.00    +0.037 A 
ATOM     29  C   UNL     1      -4.265   3.611  25.746  0.00  0.00    +0.037 A 
ATOM     30  C   UNL     1      -4.097   2.953  25.278  0.00  0.00    +0.145 A 
ATOM     31  O   UNL     1      -3.283   2.825  25.300  0.00  0.00    -0.456 OA
ATOM     32  C   UNL     1      -4.708   2.556  24.891  0.00  0.00    +0.037 A 
ATOM     33  C   UNL     1      -5.486   2.816  24.972  0.00  0.00    +0.003 A 
ATOM     34  C   UNL     1      -5.654   3.474  25.441  0.00  0.00    +0.000 A 
ATOM     35  C   UNL     1      -5.044   3.872  25.828  0.00  0.00    +0.003 A 
ENDBRANCH  26  27
ENDBRANCH  25  26
ENDBRANCH  19  21
TORSDOF 6
ENDMDL
MODEL 3
REMARK VINA RESULT:     -12.2      1.280      4.297
REMARK  Name = 
REMARK  6 active torsions:
REMARK  status: ('A' for Active; 'I' for Inactive)
REMARK    1  A    between atoms: C_2  and  C_4
REMARK    2  A    between atoms: N_7  and  C_10
REMARK    3  A    between atoms: C_12  and  C_16
REMARK    4  A    between atoms: C_19  and  C_21
REMARK    5  A    between atoms: N_25  and  C_26
REMARK    6  A    between atoms: C_26  and  C_27
REMARK                            x       y       z     vdW  Elec       q    Type
REMARK                         _______ _______ _______ _____ _____    ______ ____
ROOT
ATOM     16  C   UNL     1      -3.492   3.619  25.165  0.00  0.00    +0.203 A 
ATOM     17  N   UNL     1      -4.115   4.108  24.931  0.00  0.00    -0.056 NA
ATOM     18  O   UNL     1      -4.816   3.680  25.002  0.00  0.00    -0.336 OA
ATOM     19  C   UNL     1      -4.627   2.926  25.281  0.00  0.00    +0.251 A 
ATOM     20  N   UNL     1      -3.810   2.889  25.381  0.00  0.00    -0.190 NA
ENDROOT
BRANCH  16  12
ATOM     10  C   UNL     1      -1.325   3.488  24.943  0.00  0.00    +0.132 A 
ATOM     11  C   UNL     1      -2.124   3.283  24.928  0.00  0.00    +0.037 A 
ATOM     12  C   UNL     1      -2.694   3.824  25.180  0.00  0.00    +0.043 A 
ATOM     13  C   UNL     1      -2.464   4.570  25.447  0.00  0.00    +0.024 A 
ATOM     14  C   UNL     1      -1.665   4.775  25.463  0.00  0.00    +0.100 A 
ATOM     15  N   UNL     1      -1.096   4.235  25.210  0.00  0.00    -0.229 NA
BRANCH  10   7
ATOM      4  C   UNL     1       0.384   1.866  24.185  0.00  0.00    +0.083 C 
ATOM      5  C   UNL     1      -0.055   2.291  23.631  0.00  0.00    +0.031 C 
ATOM      6  C   UNL     1      -0.625   2.832  23.884  0.00  0.00    +0.093 C 
ATOM      7  N   UNL     1      -0.755   2.947  24.690  0.00  0.00    -0.293 N 
ATOM      8  C   UNL     1      -0.316   2.522  25.244  0.00  0.00    +0.093 C 
ATOM      9  C   UNL     1       0.253   1.982  24.992  0.00  0.00    +0.031 C 
BRANCH   4   2
ATOM      1  N   UNL     1       0.734   0.552  23.749  0.00  0.00    -0.088 NA
ATOM      2  C   UNL     1       0.953   1.326  23.933  0.00  0.00    +0.260 C 
ATOM      3  O   UNL     1       1.742   1.558  23.864  0.00  0.00    -0.272 OA
ENDBRANCH   4   2
ENDBRANCH  10   7
ENDBRANCH  16  12
BRANCH  19  21
ATOM     21  C   UNL     1      -5.164   2.318  25.432  0.00  0.00    +0.138 C 
ATOM     22  C   UNL     1      -5.841   2.374  25.900  0.00  0.00    +0.027 C 
ATOM     23  C   UNL     1      -6.213   1.637  25.900  0.00  0.00    +0.019 C 
ATOM     24  C   UNL     1      -5.765   1.126  25.432  0.00  0.00    +0.073 C 
ATOM     25  N   UNL     1      -5.117   1.546  25.143  0.00  0.00    -0.260 NA
BRANCH  25  26
ATOM     26  C   UNL     1      -4.525   1.249  24.651  0.00  0.00    +0.138 C 
BRANCH  26  27
ATOM     27  C   UNL     1      -4.325   0.449  24.683  0.00  0.00    +0.139 A 
ATOM     28  C   UNL     1      -4.477  -0.113  24.099  0.00  0.00    +0.037 A 
ATOM     29  C   UNL     1      -4.184  -0.838  24.359  0.00  0.00    +0.037 A 
ATOM     30  C   UNL     1      -3.850  -0.725  25.105  0.00  0.00    +0.145 A 
ATOM     31  O   UNL     1      -3.937   0.070  25.305  0.00  0.00    -0.456 OA
ATOM     32  C   UNL     1      -3.510  -1.361  25.505  0.00  0.00    +0.037 A 
ATOM     33  C   UNL     1      -3.503  -2.110  25.160  0.00  0.00    +0.003 A 
ATOM     34  C   UNL     1      -3.837  -2.223  24.415  0.00  0.00    +0.000 A 
ATOM     35  C   UNL     1      -4.178  -1.588  24.014  0.00  0.00    +0.003 A 
ENDBRANCH  26  27
ENDBRANCH  25  26
ENDBRANCH  19  21
TORSDOF 6
ENDMDL
MODEL 4
REMARK VINA RESULT:     -11.5      1.553      3.617
REMARK  Name = 
REMARK  6 active torsions:
REMARK  status: ('A' for Active; 'I' for Inactive)
REMARK    1  A    between atoms: C_2  and  C_4
REMARK    2  A    between atoms: N_7  and  C_10
REMARK    3  A    between atoms: C_12  and  C_16
REMARK    4  A    between atoms: C_19  and  C_21
REMARK    5  A    between atoms: N_25  and  C_26
REMARK    6  A    between atoms: C_26  and  C_27
REMARK                            x       y       z     vdW  Elec       q    Type
REMARK                         _______ _______ _______ _____ _____    ______ ____
ROOT
ATOM     16  C   UNL     1      -4.612   0.969  25.265  0.00  0.00    +0.203 A 
ATOM     17  N   UNL     1      -4.904   0.476  25.858  0.00  0.00    -0.056 NA
ATOM     18  O   UNL     1      -4.697  -0.300  25.670  0.00  0.00    -0.336 OA
ATOM     19  C   UNL     1      -4.277  -0.287  24.961  0.00  0.00    +0.251 A 
ATOM     20  N   UNL     1      -4.224   0.497  24.710  0.00  0.00    -0.190 NA
ENDROOT
BRANCH  16  12
ATOM     10  C   UNL     1      -4.104   3.090  25.184  0.00  0.00    +0.132 A 
ATOM     11  C   UNL     1      -4.022   2.270  25.217  0.00  0.00    +0.037 A 
ATOM     12  C   UNL     1      -4.693   1.789  25.232  0.00  0.00    +0.043 A 
ATOM     13  C   UNL     1      -5.444   2.129  25.214  0.00  0.00    +0.024 A 
ATOM     14  C   UNL     1      -5.526   2.950  25.182  0.00  0.00    +0.100 A 
ATOM     15  N   UNL     1      -4.855   3.430  25.166  0.00  0.00    -0.229 NA
BRANCH  10   7
ATOM      4  C   UNL     1      -2.092   4.532  25.138  0.00  0.00    +0.083 C 
ATOM      5  C   UNL     1      -2.456   4.354  25.857  0.00  0.00    +0.031 C 
ATOM      6  C   UNL     1      -3.127   3.873  25.872  0.00  0.00    +0.093 C 
ATOM      7  N   UNL     1      -3.433   3.571  25.168  0.00  0.00    -0.293 N 
ATOM      8  C   UNL     1      -3.069   3.748  24.450  0.00  0.00    +0.093 C 
ATOM      9  C   UNL     1      -2.399   4.229  24.435  0.00  0.00    +0.031 C 
BRANCH   4   2
ATOM      1  N   UNL     1      -0.674   4.673  25.044  0.00  0.00    -0.088 NA
ATOM      2  C   UNL     1      -1.422   5.012  25.123  0.00  0.00    +0.260 C 
ATOM      3  O   UNL     1      -1.499   5.831  25.188  0.00  0.00    -0.272 OA
ENDBRANCH   4   2
ENDBRANCH  10   7
ENDBRANCH  16  12
BRANCH  19  21
ATOM     21  C   UNL     1      -3.965  -0.943  24.570  0.00  0.00    +0.138 C 
ATOM     22  C   UNL     1      -4.374  -1.439  24.053  0.00  0.00    +0.027 C 
ATOM     23  C   UNL     1      -3.851  -2.022  23.791  0.00  0.00    +0.019 C 
ATOM     24  C   UNL     1      -3.119  -1.885  24.147  0.00  0.00    +0.073 C 
ATOM     25  N   UNL     1      -3.189  -1.219  24.628  0.00  0.00    -0.260 NA
BRANCH  25  26
ATOM     26  C   UNL     1      -2.590  -0.886  25.087  0.00  0.00    +0.138 C 
BRANCH  26  27
ATOM     27  C   UNL     1      -1.861  -0.705  24.745  0.00  0.00    +0.139 A 
ATOM     28  C   UNL     1      -1.207  -1.206  24.703  0.00  0.00    +0.037 A 
ATOM     29  C   UNL     1      -0.600  -0.802  24.319  0.00  0.00    +0.037 A 
ATOM     30  C   UNL     1      -0.878  -0.050  24.123  0.00  0.00    +0.145 A 
ATOM     31  O   UNL     1      -1.657   0.010  24.387  0.00  0.00    -0.456 OA
ATOM     32  C   UNL     1      -0.385   0.482  23.730  0.00  0.00    +0.037 A 
ATOM     33  C   UNL     1       0.385   0.263  23.532  0.00  0.00    +0.003 A 
ATOM     34  C   UNL     1       0.663  -0.489  23.728  0.00  0.00    +0.000 A 
ATOM     35  C   UNL     1       0.171  -1.022  24.121  0.00  0.00    +0.003 A 
ENDBRANCH  26  27
ENDBRANCH  25  26
ENDBRANCH  19  21
TORSDOF 6
ENDMDL
MODEL 5
REMARK VINA RESULT:     -11.5      1.463      4.550
REMARK  Name = 
REMARK  6 active torsions:
REMARK  status: ('A' for Active; 'I' for Inactive)
REMARK    1  A    between atoms: C_2  and  C_4
REMARK    2  A    between atoms: N_7  and  C_10
REMARK    3  A    between atoms: C_12  and  C_16
REMARK    4  A    between atoms: C_19  and  C_21
REMARK    5  A    between atoms: N_25  and  C_26
REMARK    6  A    between atoms: C_26  and  C_27
REMARK                            x       y       z     vdW  Elec       q    Type
REMARK                         _______ _______ _______ _____ _____    ______ ____
ROOT
ATOM     16  C   UNL     1      -3.902   3.050  25.516  0.00  0.00    +0.203 A 
ATOM     17  N   UNL     1      -3.980   3.584  26.139  0.00  0.00    -0.056 NA
ATOM     18  O   UNL     1      -3.316   4.073  26.140  0.00  0.00    -0.336 OA
ATOM     19  C   UNL     1      -2.827   3.841  25.518  0.00  0.00    +0.251 A 
ATOM     20  N   UNL     1      -3.189   3.209  25.132  0.00  0.00    -0.190 NA
ENDROOT
BRANCH  16  12
ATOM     10  C   UNL     1      -4.715   1.104  24.954  0.00  0.00    +0.132 A 
ATOM     11  C   UNL     1      -4.176   1.694  25.157  0.00  0.00    +0.037 A 
ATOM     12  C   UNL     1      -4.441   2.460  25.312  0.00  0.00    +0.043 A 
ATOM     13  C   UNL     1      -5.246   2.635  25.262  0.00  0.00    +0.024 A 
ATOM     14  C   UNL     1      -5.785   2.045  25.058  0.00  0.00    +0.100 A 
ATOM     15  N   UNL     1      -5.520   1.280  24.904  0.00  0.00    -0.229 NA
BRANCH  10   7
ATOM      4  C   UNL     1      -3.920  -1.194  24.491  0.00  0.00    +0.083 C 
ATOM      5  C   UNL     1      -3.977  -0.927  25.269  0.00  0.00    +0.031 C 
ATOM      6  C   UNL     1      -4.243  -0.160  25.423  0.00  0.00    +0.093 C 
ATOM      7  N   UNL     1      -4.450   0.338  24.799  0.00  0.00    -0.293 N 
ATOM      8  C   UNL     1      -4.392   0.070  24.021  0.00  0.00    +0.093 C 
ATOM      9  C   UNL     1      -4.127  -0.695  23.867  0.00  0.00    +0.031 C 
BRANCH   4   2
ATOM      1  N   UNL     1      -2.890  -2.182  24.553  0.00  0.00    -0.088 NA
ATOM      2  C   UNL     1      -3.655  -1.959  24.336  0.00  0.00    +0.260 C 
ATOM      3  O   UNL     1      -4.153  -2.503  23.966  0.00  0.00    -0.272 OA
ENDBRANCH   4   2
ENDBRANCH  10   7
ENDBRANCH  16  12
BRANCH  19  21
ATOM     21  C   UNL     1      -2.103   4.183  25.317  0.00  0.00    +0.138 C 
ATOM     22  C   UNL     1      -1.992   4.945  25.023  0.00  0.00    +0.027 C 
ATOM     23  C   UNL     1      -1.184   5.056  24.899  0.00  0.00    +0.019 C 
ATOM     24  C   UNL     1      -0.796   4.362  25.117  0.00  0.00    +0.073 C 
ATOM     25  N   UNL     1      -1.363   3.822  25.376  0.00  0.00    -0.260 NA
BRANCH  25  26
ATOM     26  C   UNL     1      -1.218   3.056  25.645  0.00  0.00    +0.138 C 
BRANCH  26  27
ATOM     27  C   UNL     1      -0.796   2.525  25.174  0.00  0.00    +0.139 A 
ATOM     28  C   UNL     1       0.021   2.519  25.065  0.00  0.00    +0.037 A 
ATOM     29  C   UNL     1       0.205   1.898  24.554  0.00  0.00    +0.037 A 
ATOM     30  C   UNL     1      -0.499   1.521  24.347  0.00  0.00    +0.145 A 
ATOM     31  O   UNL     1      -1.118   1.908  24.731  0.00  0.00    -0.456 OA
ATOM     32  C   UNL     1      -0.485   0.873  23.837  0.00  0.00    +0.037 A 
ATOM     33  C   UNL     1       0.232   0.603  23.533  0.00  0.00    +0.003 A 
ATOM     34  C   UNL     1       0.936   0.980  23.739  0.00  0.00    +0.000 A 
ATOM     35  C   UNL     1       0.923   1.627  24.250  0.00  0.00    +0.003 A 
ENDBRANCH  26  27
ENDBRANCH  25  26
ENDBRANCH  19  21
TORSDOF 6
ENDMDL
MODEL 6
REMARK VINA RESULT:     -11.2      1.666      3.878
REMARK  Name = 
REMARK  6 active torsions:
REMARK  status: ('A' for Active; 'I' for Inactive)
REMARK    1  A    between atoms: C_2  and  C_4
REMARK    2  A    between atoms: N_7  and  C_10
REMARK    3  A    between atoms: C_12  and  C_16
REMARK    4  A    between atoms: C_19  and  C_21
REMARK    5  A    between atoms: N_25  and  C_26
REMARK    6  A    between atoms: C_26  and  C_27
REMARK                            x       y       z     vdW  Elec       q    Type
REMARK                         _______ _______ _______ _____ _____    ______ ____
ROOT
ATOM     16  C   UNL     1      -0.943  -0.488  24.545  0.00  0.00    +0.203 A 
ATOM     17  N   UNL     1      -0.749  -1.177  24.955  0.00  0.00    -0.056 NA
ATOM     18  O   UNL     1      -1.427  -1.643  25.007  0.00  0.00    -0.336 OA
ATOM     19  C   UNL     1      -2.041  -1.242  24.629  0.00  0.00    +0.251 A 
ATOM     20  N   UNL     1      -1.743  -0.529  24.344  0.00  0.00    -0.190 NA
ENDROOT
BRANCH  16  12
ATOM     10  C   UNL     1      -0.132   1.530  24.363  0.00  0.00    +0.132 A 
ATOM     11  C   UNL     1      -0.645   0.910  24.541  0.00  0.00    +0.037 A 
ATOM     12  C   UNL     1      -0.429   0.132  24.368  0.00  0.00    +0.043 A 
ATOM     13  C   UNL     1       0.301  -0.024  24.017  0.00  0.00    +0.024 A 
ATOM     14  C   UNL     1       0.815   0.597  23.839  0.00  0.00    +0.100 A 
ATOM     15  N   UNL     1       0.598   1.373  24.012  0.00  0.00    -0.229 NA
BRANCH  10   7
ATOM      4  C   UNL     1      -0.780   3.862  24.883  0.00  0.00    +0.083 C 
ATOM      5  C   UNL     1      -0.927   3.550  24.133  0.00  0.00    +0.031 C 
ATOM      6  C   UNL     1      -0.711   2.772  23.960  0.00  0.00    +0.093 C 
ATOM      7  N   UNL     1      -0.348   2.308  24.537  0.00  0.00    -0.293 N 
ATOM      8  C   UNL     1      -0.201   2.619  25.286  0.00  0.00    +0.093 C 
ATOM      9  C   UNL     1      -0.417   3.396  25.459  0.00  0.00    +0.031 C 
BRANCH   4   2
ATOM      1  N   UNL     1      -1.715   4.792  25.430  0.00  0.00    -0.088 NA
ATOM      2  C   UNL     1      -0.997   4.638  25.056  0.00  0.00    +0.260 C 
ATOM      3  O   UNL     1      -0.495   5.261  24.854  0.00  0.00    -0.272 OA
ENDBRANCH   4   2
ENDBRANCH  10   7
ENDBRANCH  16  12
BRANCH  19  21
ATOM     21  C   UNL     1      -2.818  -1.509  24.551  0.00  0.00    +0.138 C 
ATOM     22  C   UNL     1      -3.066  -2.150  24.094  0.00  0.00    +0.027 C 
ATOM     23  C   UNL     1      -3.884  -2.220  24.176  0.00  0.00    +0.019 C 
ATOM     24  C   UNL     1      -4.141  -1.622  24.683  0.00  0.00    +0.073 C 
ATOM     25  N   UNL     1      -3.483  -1.183  24.915  0.00  0.00    -0.260 NA
BRANCH  25  26
ATOM     26  C   UNL     1      -3.486  -0.533  25.422  0.00  0.00    +0.138 C 
BRANCH  26  27
ATOM     27  C   UNL     1      -3.994   0.101  25.278  0.00  0.00    +0.139 A 
ATOM     28  C   UNL     1      -4.774   0.167  25.538  0.00  0.00    +0.037 A 
ATOM     29  C   UNL     1      -5.073   0.886  25.268  0.00  0.00    +0.037 A 
ATOM     30  C   UNL     1      -4.478   1.265  24.841  0.00  0.00    +0.145 A 
ATOM     31  O   UNL     1      -3.811   0.780  24.846  0.00  0.00    -0.456 OA
ATOM     32  C   UNL     1      -4.621   2.004  24.501  0.00  0.00    +0.037 A 
ATOM     33  C   UNL     1      -5.358   2.363  24.590  0.00  0.00    +0.003 A 
ATOM     34  C   UNL     1      -5.953   1.984  25.017  0.00  0.00    +0.000 A 
ATOM     35  C   UNL     1      -5.811   1.246  25.357  0.00  0.00    +0.003 A 
ENDBRANCH  26  27
ENDBRANCH  25  26
ENDBRANCH  19  21
TORSDOF 6
ENDMDL
MODEL 7
REMARK VINA RESULT:     -10.7      1.609      5.941
REMARK  Name = 
REMARK  6 active torsions:
REMARK  status: ('A' for Active; 'I' for Inactive)
REMARK    1  A    between atoms: C_2  and  C_4
REMARK    2  A    between atoms: N_7  and  C_10
REMARK    3  A    between atoms: C_12  and  C_16
REMARK    4  A    between atoms: C_19  and  C_21
REMARK    5  A    between atoms: N_25  and  C_26
REMARK    6  A    between atoms: C_26  and  C_27
REMARK                            x       y       z     vdW  Elec       q    Type
REMARK                         _______ _______ _______ _____ _____    ______ ____
ROOT
ATOM     16  C   UNL     1      -4.095   0.090  24.870  0.00  0.00    +0.203 A 
ATOM     17  N   UNL     1      -4.804  -0.005  24.460  0.00  0.00    -0.056 NA
ATOM     18  O   UNL     1      -5.259   0.673  24.576  0.00  0.00    -0.336 OA
ATOM     19  C   UNL     1      -4.831   1.187  25.058  0.00  0.00    +0.251 A 
ATOM     20  N   UNL     1      -4.112   0.828  25.240  0.00  0.00    -0.190 NA
ENDROOT
BRANCH  16  12
ATOM     10  C   UNL     1      -2.116  -0.803  24.643  0.00  0.00    +0.132 A 
ATOM     11  C   UNL     1      -2.733  -0.257  24.608  0.00  0.00    +0.037 A 
ATOM     12  C   UNL     1      -3.478  -0.456  24.905  0.00  0.00    +0.043 A 
ATOM     13  C   UNL     1      -3.604  -1.201  25.235  0.00  0.00    +0.024 A 
ATOM     14  C   UNL     1      -2.986  -1.747  25.270  0.00  0.00    +0.100 A 
ATOM     15  N   UNL     1      -2.243  -1.548  24.974  0.00  0.00    -0.229 NA
BRANCH  10   7
ATOM      4  C   UNL     1       0.116  -0.206  23.754  0.00  0.00    +0.083 C 
ATOM      5  C   UNL     1      -0.075  -0.997  23.894  0.00  0.00    +0.031 C 
ATOM      6  C   UNL     1      -0.819  -1.196  24.191  0.00  0.00    +0.093 C 
ATOM      7  N   UNL     1      -1.372  -0.604  24.347  0.00  0.00    -0.293 N 
ATOM      8  C   UNL     1      -1.182   0.186  24.207  0.00  0.00    +0.093 C 
ATOM      9  C   UNL     1      -0.438   0.385  23.911  0.00  0.00    +0.031 C 
BRANCH   4   2
ATOM      1  N   UNL     1       1.150   0.758  23.555  0.00  0.00    -0.088 NA
ATOM      2  C   UNL     1       0.859  -0.008  23.458  0.00  0.00    +0.260 C 
ATOM      3  O   UNL     1       1.312  -0.575  23.065  0.00  0.00    -0.272 OA
ENDBRANCH   4   2
ENDBRANCH  10   7
ENDBRANCH  16  12
BRANCH  19  21
ATOM     21  C   UNL     1      -5.079   1.932  25.313  0.00  0.00    +0.138 C 
ATOM     22  C   UNL     1      -5.680   2.081  25.858  0.00  0.00    +0.027 C 
ATOM     23  C   UNL     1      -5.743   2.899  25.951  0.00  0.00    +0.019 C 
ATOM     24  C   UNL     1      -5.181   3.254  25.463  0.00  0.00    +0.073 C 
ATOM     25  N   UNL     1      -4.770   2.657  25.069  0.00  0.00    -0.260 NA
BRANCH  25  26
ATOM     26  C   UNL     1      -4.158   2.765  24.526  0.00  0.00    +0.138 C 
BRANCH  26  27
ATOM     27  C   UNL     1      -3.521   3.254  24.714  0.00  0.00    +0.139 A 
ATOM     28  C   UNL     1      -3.465   4.061  24.554  0.00  0.00    +0.037 A 
ATOM     29  C   UNL     1      -2.737   4.327  24.835  0.00  0.00    +0.037 A 
ATOM     30  C   UNL     1      -2.343   3.684  25.170  0.00  0.00    +0.145 A 
ATOM     31  O   UNL     1      -2.827   3.021  25.095  0.00  0.00    -0.456 OA
ATOM     32  C   UNL     1      -1.593   3.787  25.499  0.00  0.00    +0.037 A 
ATOM     33  C   UNL     1      -1.239   4.531  25.495  0.00  0.00    +0.003 A 
ATOM     34  C   UNL     1      -1.633   5.174  25.160  0.00  0.00    +0.000 A 
ATOM     35  C   UNL     1      -2.383   5.072  24.831  0.00  0.00    +0.003 A 
ENDBRANCH  26  27
ENDBRANCH  25  26
ENDBRANCH  19  21
TORSDOF 6
ENDMDL
MODEL 8
REMARK VINA RESULT:     -10.7      1.498      4.096
REMARK  Name = 
REMARK  6 active torsions:
REMARK  status: ('A' for Active; 'I' for Inactive)
REMARK    1  A    between atoms: C_2  and  C_4
REMARK    2  A    between atoms: N_7  and  C_10
REMARK    3  A    between atoms: C_12  and  C_16
REMARK    4  A    between atoms: C_19  and  C_21
REMARK    5  A    between atoms: N_25  and  C_26
REMARK    6  A    between atoms: C_26  and  C_27
REMARK                            x       y       z     vdW  Elec       q    Type
REMARK                         _______ _______ _______ _____ _____    ______ ____
ROOT
ATOM     16  C   UNL     1      -1.749  -0.494  24.653  0.00  0.00    +0.203 A 
ATOM     17  N   UNL     1      -1.168  -0.980  24.980  0.00  0.00    -0.056 NA
ATOM     18  O   UNL     1      -0.437  -0.615  24.869  0.00  0.00    -0.336 OA
ATOM     19  C   UNL     1      -0.565   0.097  24.473  0.00  0.00    +0.251 A 
ATOM     20  N   UNL     1      -1.375   0.172  24.339  0.00  0.00    -0.190 NA
ENDROOT
BRANCH  16  12
ATOM     10  C   UNL     1      -3.907  -0.183  24.753  0.00  0.00    +0.132 A 
ATOM     11  C   UNL     1      -3.096  -0.031  24.764  0.00  0.00    +0.037 A 
ATOM     12  C   UNL     1      -2.559  -0.646  24.641  0.00  0.00    +0.043 A 
ATOM     13  C   UNL     1      -2.834  -1.412  24.507  0.00  0.00    +0.024 A 
ATOM     14  C   UNL     1      -3.645  -1.564  24.495  0.00  0.00    +0.100 A 
ATOM     15  N   UNL     1      -4.181  -0.950  24.618  0.00  0.00    -0.229 NA
BRANCH  10   7
ATOM      4  C   UNL     1      -5.518   1.660  25.121  0.00  0.00    +0.083 C 
ATOM      5  C   UNL     1      -5.549   0.984  25.594  0.00  0.00    +0.031 C 
ATOM      6  C   UNL     1      -5.012   0.370  25.471  0.00  0.00    +0.093 C 
ATOM      7  N   UNL     1      -4.444   0.431  24.875  0.00  0.00    -0.293 N 
ATOM      8  C   UNL     1      -4.413   1.107  24.403  0.00  0.00    +0.093 C 
ATOM      9  C   UNL     1      -4.949   1.721  24.526  0.00  0.00    +0.031 C 
BRANCH   4   2
ATOM      1  N   UNL     1      -5.793   2.995  25.548  0.00  0.00    -0.088 NA
ATOM      2  C   UNL     1      -6.054   2.274  25.244  0.00  0.00    +0.260 C 
ATOM      3  O   UNL     1      -6.852   2.167  25.064  0.00  0.00    -0.272 OA
ENDBRANCH   4   2
ENDBRANCH  10   7
ENDBRANCH  16  12
BRANCH  19  21
ATOM     21  C   UNL     1       0.016   0.638  24.250  0.00  0.00    +0.138 C 
ATOM     22  C   UNL     1       0.550   0.547  23.628  0.00  0.00    +0.027 C 
ATOM     23  C   UNL     1       1.030   1.218  23.602  0.00  0.00    +0.019 C 
ATOM     24  C   UNL     1       0.791   1.724  24.208  0.00  0.00    +0.073 C 
ATOM     25  N   UNL     1       0.165   1.367  24.609  0.00  0.00    -0.260 NA
BRANCH  25  26
ATOM     26  C   UNL     1      -0.242   1.680  25.254  0.00  0.00    +0.138 C 
BRANCH  26  27
ATOM     27  C   UNL     1      -0.522   2.456  25.229  0.00  0.00    +0.139 A 
ATOM     28  C   UNL     1      -1.233   2.725  25.548  0.00  0.00    +0.037 A 
ATOM     29  C   UNL     1      -1.290   3.533  25.396  0.00  0.00    +0.037 A 
ATOM     30  C   UNL     1      -0.615   3.764  24.982  0.00  0.00    +0.145 A 
ATOM     31  O   UNL     1      -0.140   3.098  24.878  0.00  0.00    -0.456 OA
ATOM     32  C   UNL     1      -0.521   4.551  24.753  0.00  0.00    +0.037 A 
ATOM     33  C   UNL     1      -1.101   5.107  24.938  0.00  0.00    +0.003 A 
ATOM     34  C   UNL     1      -1.776   4.877  25.352  0.00  0.00    +0.000 A 
ATOM     35  C   UNL     1      -1.871   4.090  25.581  0.00  0.00    +0.003 A 
ENDBRANCH  26  27
ENDBRANCH  25  26
ENDBRANCH  19  21
TORSDOF 6
ENDMDL
