MODEL 1
REMARK VINA RESULT:      -8.5      0.000      0.000
REMARK  Name = 
REMARK  6 active torsions:
REMARK  status: ('A' for Active; 'I' for Inactive)
REMARK    1  A    between atoms: C_3  and  C_4
REMARK    2  A    between atoms: C_4  and  N_5
REMARK    3  A    between atoms: C_6  and  C_8
REMARK    4  A    between atoms: C_15  and  N_16
REMARK    5  A    between atoms: N_16  and  C_17
REMARK    6  A    between atoms: C_17  and  C_18
REMARK                            x       y       z     vdW  Elec       q    Type
REMARK                         _______ _______ _______ _____ _____    ______ ____
ROOT
ATOM      1  O   UNL     1      -1.168   0.274  25.154  0.00  0.00    -0.219 OA
ATOM      2  C   UNL     1      -1.879   0.676  25.040  0.00  0.00    +0.199 C 
ATOM      3  C   UNL     1      -1.990   1.491  25.094  0.00  0.00    +0.169 C 
ATOM     13  O   UNL     1      -2.784   1.651  24.940  0.00  0.00    -0.350 OA
ATOM     14  C   UNL     1      -3.165   0.935  24.790  0.00  0.00    +0.162 C 
ATOM     15  C   UNL     1      -2.606   0.332  24.852  0.00  0.00    +0.135 C 
ENDROOT
BRANCH   3   4
ATOM      4  C   UNL     1      -1.408   2.049  25.271  0.00  0.00    +0.148 C 
BRANCH   4   5
ATOM      5  N   UNL     1      -1.539   2.847  25.109  0.00  0.00    -0.199 NA
ATOM      6  C   UNL     1      -0.997   3.415  25.366  0.00  0.00    +0.271 C 
ATOM      7  O   UNL     1      -0.325   3.183  25.785  0.00  0.00    -0.268 OA
BRANCH   6   8
ATOM      8  C   UNL     1      -1.127   4.213  25.203  0.00  0.00    +0.084 A 
ATOM      9  C   UNL     1      -1.776   4.659  25.451  0.00  0.00    +0.012 A 
ATOM     10  C   UNL     1      -1.682   5.426  25.165  0.00  0.00    +0.008 A 
ATOM     11  C   UNL     1      -0.975   5.455  24.741  0.00  0.00    +0.036 A 
ATOM     12  S   UNL     1      -0.632   4.706  24.765  0.00  0.00    -0.082 S 
ENDBRANCH   6   8
ENDBRANCH   4   5
ENDBRANCH   3   4
BRANCH  15  16
ATOM     16  N   UNL     1      -2.747  -0.473  24.745  0.00  0.00    -0.209 NA
BRANCH  16  17
ATOM     17  C   UNL     1      -3.520  -0.761  24.759  0.00  0.00    +0.117 C 
BRANCH  17  18
ATOM     18  C   UNL     1      -3.670  -1.552  24.575  0.00  0.00    +0.014 A 
ATOM     19  C   UNL     1      -4.128  -1.743  23.916  0.00  0.00    +0.000 A 
ATOM     20  C   UNL     1      -4.277  -2.534  23.732  0.00  0.00    +0.020 A 
ATOM     21  C   UNL     1      -3.968  -3.133  24.208  0.00  0.00    +0.099 A 
ATOM     22  N   UNL     1      -3.509  -2.942  24.867  0.00  0.00    -0.243 NA
ATOM     23  C   UNL     1      -3.360  -2.151  25.050  0.00  0.00    +0.096 A 
ENDBRANCH  17  18
ENDBRANCH  16  17
ENDBRANCH  15  16
TORSDOF 6
ENDMDL
MODEL 2
REMARK VINA RESULT:      -8.3      1.962      5.960
REMARK  Name = 
REMARK  6 active torsions:
REMARK  status: ('A' for Active; 'I' for Inactive)
REMARK    1  A    between atoms: C_3  and  C_4
REMARK    2  A    between atoms: C_4  and  N_5
REMARK    3  A    between atoms: C_6  and  C_8
REMARK    4  A    between atoms: C_15  and  N_16
REMARK    5  A    between atoms: N_16  and  C_17
REMARK    6  A    between atoms: C_17  and  C_18
REMARK                            x       y       z     vdW  Elec       q    Type
REMARK                         _______ _______ _______ _____ _____    ______ ____
ROOT
ATOM      1  O   UNL     1      -3.750   2.095  24.096  0.00  0.00    -0.219 OA
ATOM      2  C   UNL     1      -3.125   1.726  24.488  0.00  0.00    +0.199 C 
ATOM      3  C   UNL     1      -3.061   0.919  24.647  0.00  0.00    +0.169 C 
ATOM     13  O   UNL     1      -2.351   0.794  25.047  0.00  0.00    -0.350 OA
ATOM     14  C   UNL     1      -1.976   1.523  25.135  0.00  0.00    +0.162 C 
ATOM     15  C   UNL     1      -2.453   2.100  24.790  0.00  0.00    +0.135 C 
ENDROOT
BRANCH   3   4
ATOM      4  C   UNL     1      -3.612   0.340  24.442  0.00  0.00    +0.148 C 
BRANCH   4   5
ATOM      5  N   UNL     1      -3.420  -0.458  24.524  0.00  0.00    -0.199 NA
ATOM      6  C   UNL     1      -3.991  -1.037  24.380  0.00  0.00    +0.271 C 
ATOM      7  O   UNL     1      -4.753  -0.816  24.154  0.00  0.00    -0.268 OA
BRANCH   6   8
ATOM      8  C   UNL     1      -3.799  -1.835  24.462  0.00  0.00    +0.084 A 
ATOM      9  C   UNL     1      -3.458  -2.186  25.126  0.00  0.00    +0.012 A 
ATOM     10  C   UNL     1      -3.364  -2.990  24.969  0.00  0.00    +0.008 A 
ATOM     11  C   UNL     1      -3.646  -3.136  24.208  0.00  0.00    +0.036 A 
ATOM     12  S   UNL     1      -3.915  -2.423  23.895  0.00  0.00    -0.082 S 
ENDBRANCH   6   8
ENDBRANCH   4   5
ENDBRANCH   3   4
BRANCH  15  16
ATOM     16  N   UNL     1      -2.290   2.907  24.753  0.00  0.00    -0.209 NA
BRANCH  16  17
ATOM     17  C   UNL     1      -1.698   3.230  25.228  0.00  0.00    +0.117 C 
BRANCH  17  18
ATOM     18  C   UNL     1      -1.479   4.020  25.134  0.00  0.00    +0.014 A 
ATOM     19  C   UNL     1      -0.750   4.209  24.799  0.00  0.00    +0.000 A 
ATOM     20  C   UNL     1      -0.531   5.000  24.706  0.00  0.00    +0.020 A 
ATOM     21  C   UNL     1      -1.042   5.600  24.948  0.00  0.00    +0.099 A 
ATOM     22  N   UNL     1      -1.771   5.411  25.283  0.00  0.00    -0.243 NA
ATOM     23  C   UNL     1      -1.990   4.621  25.377  0.00  0.00    +0.096 A 
ENDBRANCH  17  18
ENDBRANCH  16  17
ENDBRANCH  15  16
TORSDOF 6
ENDMDL
MODEL 3
REMARK VINA RESULT:      -7.2      3.035      4.497
REMARK  Name = 
REMARK  6 active torsions:
REMARK  status: ('A' for Active; 'I' for Inactive)
REMARK    1  A    between atoms: C_3  and  C_4
REMARK    2  A    between atoms: C_4  and  N_5
REMARK    3  A    between atoms: C_6  and  C_8
REMARK    4  A    between atoms: C_15  and  N_16
REMARK    5  A    between atoms: N_16  and  C_17
REMARK    6  A    between atoms: C_17  and  C_18
REMARK                            x       y       z     vdW  Elec       q    Type
REMARK                         _______ _______ _______ _____ _____    ______ ____
ROOT
ATOM      1  O   UNL     1      -1.936   0.646  25.322  0.00  0.00    -0.219 OA
ATOM      2  C   UNL     1      -1.876   1.055  24.608  0.00  0.00    +0.199 C 
ATOM      3  C   UNL     1      -1.312   0.926  24.021  0.00  0.00    +0.169 C 
ATOM     13  O   UNL     1      -1.458   1.455  23.406  0.00  0.00    -0.350 OA
ATOM     14  C   UNL     1      -2.113   1.911  23.612  0.00  0.00    +0.162 C 
ATOM     15  C   UNL     1      -2.372   1.664  24.355  0.00  0.00    +0.135 C 
ENDROOT
BRANCH   3   4
ATOM      4  C   UNL     1      -0.707   0.365  24.045  0.00  0.00    +0.148 C 
BRANCH   4   5
ATOM      5  N   UNL     1      -0.055   0.440  23.545  0.00  0.00    -0.199 NA
ATOM      6  C   UNL     1       0.497  -0.172  23.492  0.00  0.00    +0.271 C 
ATOM      7  O   UNL     1       0.395  -0.858  23.938  0.00  0.00    -0.268 OA
BRANCH   6   8
ATOM      8  C   UNL     1       1.149  -0.097  22.992  0.00  0.00    +0.084 A 
ATOM      9  C   UNL     1       1.182  -0.327  22.200  0.00  0.00    +0.012 A 
ATOM     10  C   UNL     1       1.936  -0.151  21.915  0.00  0.00    +0.008 A 
ATOM     11  C   UNL     1       2.368   0.188  22.531  0.00  0.00    +0.036 A 
ATOM     12  S   UNL     1       1.883   0.221  23.196  0.00  0.00    -0.082 S 
ENDBRANCH   6   8
ENDBRANCH   4   5
ENDBRANCH   3   4
BRANCH  15  16
ATOM     16  N   UNL     1      -3.013   1.972  24.772  0.00  0.00    -0.209 NA
BRANCH  16  17
ATOM     17  C   UNL     1      -3.636   2.329  24.366  0.00  0.00    +0.117 C 
BRANCH  17  18
ATOM     18  C   UNL     1      -4.299   2.595  24.779  0.00  0.00    +0.014 A 
ATOM     19  C   UNL     1      -4.997   2.155  24.768  0.00  0.00    +0.000 A 
ATOM     20  C   UNL     1      -5.660   2.421  25.181  0.00  0.00    +0.020 A 
ATOM     21  C   UNL     1      -5.625   3.128  25.605  0.00  0.00    +0.099 A 
ATOM     22  N   UNL     1      -4.928   3.569  25.616  0.00  0.00    -0.243 NA
ATOM     23  C   UNL     1      -4.264   3.302  25.203  0.00  0.00    +0.096 A 
ENDBRANCH  17  18
ENDBRANCH  16  17
ENDBRANCH  15  16
TORSDOF 6
ENDMDL
MODEL 4
REMARK VINA RESULT:      -6.4     15.961     18.355
REMARK  Name = 
REMARK  6 active torsions:
REMARK  status: ('A' for Active; 'I' for Inactive)
REMARK    1  A    between atoms: C_3  and  C_4
REMARK    2  A    between atoms: C_4  and  N_5
REMARK    3  A    between atoms: C_6  and  C_8
REMARK    4  A    between atoms: C_15  and  N_16
REMARK    5  A    between atoms: N_16  and  C_17
REMARK    6  A    between atoms: C_17  and  C_18
REMARK                            x       y       z     vdW  Elec       q    Type
REMARK                         _______ _______ _______ _____ _____    ______ ____
ROOT
ATOM      1  O   UNL     1      13.233   6.841  19.028  0.00  0.00    -0.219 OA
ATOM      2  C   UNL     1      13.573   7.543  19.296  0.00  0.00    +0.199 C 
ATOM      3  C   UNL     1      13.167   8.190  19.607  0.00  0.00    +0.169 C 
ATOM     13  O   UNL     1      13.721   8.768  19.804  0.00  0.00    -0.350 OA
ATOM     14  C   UNL     1      14.470   8.478  19.614  0.00  0.00    +0.162 C 
ATOM     15  C   UNL     1      14.379   7.721  19.301  0.00  0.00    +0.135 C 
ENDROOT
BRANCH   3   4
ATOM      4  C   UNL     1      12.349   8.248  19.704  0.00  0.00    +0.148 C 
BRANCH   4   5
ATOM      5  N   UNL     1      12.024   8.261  20.462  0.00  0.00    -0.199 NA
ATOM      6  C   UNL     1      11.206   8.316  20.559  0.00  0.00    +0.271 C 
ATOM      7  O   UNL     1      10.715   8.358  19.898  0.00  0.00    -0.268 OA
BRANCH   6   8
ATOM      8  C   UNL     1      10.881   8.329  21.317  0.00  0.00    +0.084 A 
ATOM      9  C   UNL     1      10.643   7.671  21.754  0.00  0.00    +0.012 A 
ATOM     10  C   UNL     1      10.352   7.937  22.478  0.00  0.00    +0.008 A 
ATOM     11  C   UNL     1      10.409   8.760  22.489  0.00  0.00    +0.036 A 
ATOM     12  S   UNL     1      10.735   9.002  21.772  0.00  0.00    -0.082 S 
ENDBRANCH   6   8
ENDBRANCH   4   5
ENDBRANCH   3   4
BRANCH  15  16
ATOM     16  N   UNL     1      14.986   7.229  19.038  0.00  0.00    -0.209 NA
BRANCH  16  17
ATOM     17  C   UNL     1      15.723   7.250  19.407  0.00  0.00    +0.117 C 
BRANCH  17  18
ATOM     18  C   UNL     1      16.280   6.662  19.250  0.00  0.00    +0.014 A 
ATOM     19  C   UNL     1      16.847   6.469  19.817  0.00  0.00    +0.000 A 
ATOM     20  C   UNL     1      17.405   5.881  19.660  0.00  0.00    +0.020 A 
ATOM     21  C   UNL     1      17.394   5.486  18.935  0.00  0.00    +0.099 A 
ATOM     22  N   UNL     1      16.827   5.679  18.368  0.00  0.00    -0.243 NA
ATOM     23  C   UNL     1      16.269   6.267  18.526  0.00  0.00    +0.096 A 
ENDBRANCH  17  18
ENDBRANCH  16  17
ENDBRANCH  15  16
TORSDOF 6
ENDMDL
MODEL 5
REMARK VINA RESULT:      -6.1     17.263     18.607
REMARK  Name = 
REMARK  6 active torsions:
REMARK  status: ('A' for Active; 'I' for Inactive)
REMARK    1  A    between atoms: C_3  and  C_4
REMARK    2  A    between atoms: C_4  and  N_5
REMARK    3  A    between atoms: C_6  and  C_8
REMARK    4  A    between atoms: C_15  and  N_16
REMARK    5  A    between atoms: N_16  and  C_17
REMARK    6  A    between atoms: C_17  and  C_18
REMARK                            x       y       z     vdW  Elec       q    Type
REMARK                         _______ _______ _______ _____ _____    ______ ____
ROOT
ATOM      1  O   UNL     1      13.576   8.710  19.502  0.00  0.00    -0.219 OA
ATOM      2  C   UNL     1      13.365   7.921  19.390  0.00  0.00    +0.199 C 
ATOM      3  C   UNL     1      12.655   7.649  19.071  0.00  0.00    +0.169 C 
ATOM     13  O   UNL     1      12.679   6.825  19.061  0.00  0.00    -0.350 OA
ATOM     14  C   UNL     1      13.404   6.587  19.375  0.00  0.00    +0.162 C 
ATOM     15  C   UNL     1      13.828   7.264  19.578  0.00  0.00    +0.135 C 
ENDROOT
BRANCH   3   4
ATOM      4  C   UNL     1      12.030   8.119  18.807  0.00  0.00    +0.148 C 
BRANCH   4   5
ATOM      5  N   UNL     1      11.963   8.305  18.006  0.00  0.00    -0.199 NA
ATOM      6  C   UNL     1      11.236   8.545  17.697  0.00  0.00    +0.271 C 
ATOM      7  O   UNL     1      10.577   8.598  18.190  0.00  0.00    -0.268 OA
BRANCH   6   8
ATOM      8  C   UNL     1      11.169   8.730  16.896  0.00  0.00    +0.084 A 
ATOM      9  C   UNL     1      11.785   8.965  16.400  0.00  0.00    +0.012 A 
ATOM     10  C   UNL     1      11.471   9.094  15.648  0.00  0.00    +0.008 A 
ATOM     11  C   UNL     1      10.661   8.939  15.680  0.00  0.00    +0.036 A 
ATOM     12  S   UNL     1      10.475   8.715  16.451  0.00  0.00    -0.082 S 
ENDBRANCH   6   8
ENDBRANCH   4   5
ENDBRANCH   3   4
BRANCH  15  16
ATOM     16  N   UNL     1      14.582   7.282  19.911  0.00  0.00    -0.209 NA
BRANCH  16  17
ATOM     17  C   UNL     1      14.970   6.577  20.093  0.00  0.00    +0.117 C 
BRANCH  17  18
ATOM     18  C   UNL     1      15.742   6.593  20.384  0.00  0.00    +0.014 A 
ATOM     19  C   UNL     1      16.372   6.745  19.873  0.00  0.00    +0.000 A 
ATOM     20  C   UNL     1      17.144   6.761  20.164  0.00  0.00    +0.020 A 
ATOM     21  C   UNL     1      17.285   6.626  20.966  0.00  0.00    +0.099 A 
ATOM     22  N   UNL     1      16.655   6.474  21.476  0.00  0.00    -0.243 NA
ATOM     23  C   UNL     1      15.883   6.458  21.185  0.00  0.00    +0.096 A 
ENDBRANCH  17  18
ENDBRANCH  16  17
ENDBRANCH  15  16
TORSDOF 6
ENDMDL
MODEL 6
REMARK VINA RESULT:      -5.5     15.690     18.100
REMARK  Name = 
REMARK  6 active torsions:
REMARK  status: ('A' for Active; 'I' for Inactive)
REMARK    1  A    between atoms: C_3  and  C_4
REMARK    2  A    between atoms: C_4  and  N_5
REMARK    3  A    between atoms: C_6  and  C_8
REMARK    4  A    between atoms: C_15  and  N_16
REMARK    5  A    between atoms: N_16  and  C_17
REMARK    6  A    between atoms: C_17  and  C_18
REMARK                            x       y       z     vdW  Elec       q    Type
REMARK                         _______ _______ _______ _____ _____    ______ ____
ROOT
ATOM      1  O   UNL     1      13.296   8.514  19.759  0.00  0.00    -0.219 OA
ATOM      2  C   UNL     1      13.128   7.716  19.887  0.00  0.00    +0.199 C 
ATOM      3  C   UNL     1      13.546   7.077  19.577  0.00  0.00    +0.169 C 
ATOM     13  O   UNL     1      13.189   6.384  19.847  0.00  0.00    -0.350 OA
ATOM     14  C   UNL     1      12.550   6.595  20.323  0.00  0.00    +0.162 C 
ATOM     15  C   UNL     1      12.512   7.418  20.349  0.00  0.00    +0.135 C 
ENDROOT
BRANCH   3   4
ATOM      4  C   UNL     1      14.206   7.122  19.084  0.00  0.00    +0.148 C 
BRANCH   4   5
ATOM      5  N   UNL     1      14.931   6.819  19.335  0.00  0.00    -0.199 NA
ATOM      6  C   UNL     1      15.558   6.753  18.802  0.00  0.00    +0.271 C 
ATOM      7  O   UNL     1      15.459   6.989  18.018  0.00  0.00    -0.268 OA
BRANCH   6   8
ATOM      8  C   UNL     1      16.283   6.449  19.054  0.00  0.00    +0.084 A 
ATOM      9  C   UNL     1      16.721   5.863  18.674  0.00  0.00    +0.012 A 
ATOM     10  C   UNL     1      17.405   5.731  19.114  0.00  0.00    +0.008 A 
ATOM     11  C   UNL     1      17.390   6.235  19.767  0.00  0.00    +0.036 A 
ATOM     12  S   UNL     1      16.697   6.679  19.730  0.00  0.00    -0.082 S 
ENDBRANCH   6   8
ENDBRANCH   4   5
ENDBRANCH   3   4
BRANCH  15  16
ATOM     16  N   UNL     1      11.956   7.865  20.763  0.00  0.00    -0.209 NA
BRANCH  16  17
ATOM     17  C   UNL     1      11.535   7.526  21.385  0.00  0.00    +0.117 C 
BRANCH  17  18
ATOM     18  C   UNL     1      11.123   8.006  21.915  0.00  0.00    +0.014 A 
ATOM     19  C   UNL     1      11.515   8.613  22.313  0.00  0.00    +0.000 A 
ATOM     20  C   UNL     1      11.103   9.093  22.843  0.00  0.00    +0.020 A 
ATOM     21  C   UNL     1      10.299   8.966  22.974  0.00  0.00    +0.099 A 
ATOM     22  N   UNL     1       9.906   8.359  22.577  0.00  0.00    -0.243 NA
ATOM     23  C   UNL     1      10.319   7.879  22.047  0.00  0.00    +0.096 A 
ENDBRANCH  17  18
ENDBRANCH  16  17
ENDBRANCH  15  16
TORSDOF 6
ENDMDL
MODEL 7
REMARK VINA RESULT:      -4.7     17.616     18.796
REMARK  Name = 
REMARK  6 active torsions:
REMARK  status: ('A' for Active; 'I' for Inactive)
REMARK    1  A    between atoms: C_3  and  C_4
REMARK    2  A    between atoms: C_4  and  N_5
REMARK    3  A    between atoms: C_6  and  C_8
REMARK    4  A    between atoms: C_15  and  N_16
REMARK    5  A    between atoms: N_16  and  C_17
REMARK    6  A    between atoms: C_17  and  C_18
REMARK                            x       y       z     vdW  Elec       q    Type
REMARK                         _______ _______ _______ _____ _____    ______ ____
ROOT
ATOM      1  O   UNL     1      12.900   6.738  18.928  0.00  0.00    -0.219 OA
ATOM      2  C   UNL     1      13.118   7.511  19.116  0.00  0.00    +0.199 C 
ATOM      3  C   UNL     1      13.648   7.736  19.706  0.00  0.00    +0.169 C 
ATOM     13  O   UNL     1      13.702   8.559  19.701  0.00  0.00    -0.350 OA
ATOM     14  C   UNL     1      13.204   8.843  19.108  0.00  0.00    +0.162 C 
ATOM     15  C   UNL     1      12.843   8.196  18.746  0.00  0.00    +0.135 C 
ENDROOT
BRANCH   3   4
ATOM      4  C   UNL     1      14.055   7.226  20.212  0.00  0.00    +0.148 C 
BRANCH   4   5
ATOM      5  N   UNL     1      14.879   7.191  20.188  0.00  0.00    -0.199 NA
ATOM      6  C   UNL     1      15.293   6.800  20.786  0.00  0.00    +0.271 C 
ATOM      7  O   UNL     1      14.883   6.447  21.408  0.00  0.00    -0.268 OA
BRANCH   6   8
ATOM      8  C   UNL     1      16.117   6.765  20.761  0.00  0.00    +0.084 A 
ATOM      9  C   UNL     1      16.567   6.278  20.270  0.00  0.00    +0.012 A 
ATOM     10  C   UNL     1      17.363   6.422  20.429  0.00  0.00    +0.008 A 
ATOM     11  C   UNL     1      17.405   6.998  21.017  0.00  0.00    +0.036 A 
ATOM     12  S   UNL     1      16.636   7.210  21.223  0.00  0.00    -0.082 S 
ENDBRANCH   6   8
ENDBRANCH   4   5
ENDBRANCH   3   4
BRANCH  15  16
ATOM     16  N   UNL     1      12.303   8.227  18.124  0.00  0.00    -0.209 NA
BRANCH  16  17
ATOM     17  C   UNL     1      12.223   8.919  17.682  0.00  0.00    +0.117 C 
BRANCH  17  18
ATOM     18  C   UNL     1      11.764   8.919  16.996  0.00  0.00    +0.014 A 
ATOM     19  C   UNL     1      10.958   8.748  17.038  0.00  0.00    +0.000 A 
ATOM     20  C   UNL     1      10.499   8.749  16.352  0.00  0.00    +0.020 A 
ATOM     21  C   UNL     1      10.847   8.920  15.624  0.00  0.00    +0.099 A 
ATOM     22  N   UNL     1      11.653   9.092  15.581  0.00  0.00    -0.243 NA
ATOM     23  C   UNL     1      12.112   9.091  16.267  0.00  0.00    +0.096 A 
ENDBRANCH  17  18
ENDBRANCH  16  17
ENDBRANCH  15  16
TORSDOF 6
ENDMDL
