MODEL 1
REMARK VINA RESULT:     -10.7      0.000      0.000
REMARK  Name = 
REMARK  5 active torsions:
REMARK  status: ('A' for Active; 'I' for Inactive)
REMARK    1  A    between atoms: O_2  and  C_3
REMARK    2  A    between atoms: C_6  and  C_9
REMARK    3  A    between atoms: N_11  and  C_12
REMARK    4  A    between atoms: N_22  and  C_23
REMARK    5  A    between atoms: C_25  and  C_29
REMARK                            x       y       z     vdW  Elec       q    Type
REMARK                         _______ _______ _______ _____ _____    ______ ____
ROOT
ATOM     12  C   UNL     1      -2.853   1.174  24.371  0.00  0.00    +0.146 C 
ATOM     13  C   UNL     1      -2.226   1.309  24.891  0.00  0.00    +0.119 C 
ATOM     14  N   UNL     1      -1.934   2.030  25.167  0.00  0.00    -0.261 N 
ATOM     15  C   UNL     1      -2.196   2.792  24.992  0.00  0.00    +0.095 C 
ATOM     16  C   UNL     1      -2.815   3.022  24.497  0.00  0.00    +0.024 C 
ATOM     17  C   UNL     1      -3.324   2.547  24.056  0.00  0.00    +0.037 C 
ATOM     18  C   UNL     1      -3.341   1.725  23.999  0.00  0.00    +0.174 C 
ATOM     19  O   UNL     1      -3.924   1.412  23.506  0.00  0.00    -0.221 OA
ATOM     20  C   UNL     1      -1.295   1.981  25.688  0.00  0.00    +0.328 C 
ATOM     21  O   UNL     1      -0.991   1.244  25.899  0.00  0.00    -0.250 OA
ATOM     22  N   UNL     1      -0.962   2.670  25.996  0.00  0.00    -0.162 NA
ENDROOT
BRANCH  22  23
ATOM     23  C   UNL     1      -1.266   3.407  25.785  0.00  0.00    +0.076 A 
ATOM     24  C   UNL     1      -0.836   3.904  25.287  0.00  0.00    +0.027 A 
ATOM     25  C   UNL     1      -1.140   4.641  25.076  0.00  0.00    +0.070 A 
ATOM     26  C   UNL     1      -1.876   4.881  25.362  0.00  0.00    +0.010 A 
ATOM     27  C   UNL     1      -2.307   4.384  25.860  0.00  0.00    +0.002 A 
ATOM     28  C   UNL     1      -2.003   3.647  26.071  0.00  0.00    +0.017 A 
BRANCH  25  29
ATOM     29  C   UNL     1      -0.709   5.138  24.578  0.00  0.00    +0.100 C 
ATOM     30  N   UNL     1      -0.278   5.635  24.080  0.00  0.00    -0.191 NA
ENDBRANCH  25  29
ENDBRANCH  22  23
BRANCH  12  11
ATOM      9  C   UNL     1      -3.415  -0.085  24.747  0.00  0.00    +0.265 C 
ATOM     10  O   UNL     1      -3.661   0.240  25.465  0.00  0.00    -0.268 OA
ATOM     11  N   UNL     1      -3.011   0.382  24.201  0.00  0.00    -0.199 NA
BRANCH   9   6
ATOM      3  C   UNL     1      -3.891  -2.459  24.236  0.00  0.00    +0.139 A 
ATOM      4  C   UNL     1      -3.287  -2.263  24.763  0.00  0.00    +0.037 A 
ATOM      5  C   UNL     1      -3.128  -1.472  24.933  0.00  0.00    +0.008 A 
ATOM      6  C   UNL     1      -3.574  -0.875  24.577  0.00  0.00    +0.055 A 
ATOM      7  C   UNL     1      -4.178  -1.072  24.051  0.00  0.00    +0.008 A 
ATOM      8  C   UNL     1      -4.336  -1.863  23.880  0.00  0.00    +0.037 A 
BRANCH   3   2
ATOM      1  C   UNL     1      -3.428  -3.776  23.934  0.00  0.00    +0.252 C 
ATOM      2  O   UNL     1      -4.049  -3.250  24.066  0.00  0.00    -0.471 OA
ENDBRANCH   3   2
ENDBRANCH   9   6
ENDBRANCH  12  11
TORSDOF 5
ENDMDL
MODEL 2
REMARK VINA RESULT:     -10.3      1.480      5.602
REMARK  Name = 
REMARK  5 active torsions:
REMARK  status: ('A' for Active; 'I' for Inactive)
REMARK    1  A    between atoms: O_2  and  C_3
REMARK    2  A    between atoms: C_6  and  C_9
REMARK    3  A    between atoms: N_11  and  C_12
REMARK    4  A    between atoms: N_22  and  C_23
REMARK    5  A    between atoms: C_25  and  C_29
REMARK                            x       y       z     vdW  Elec       q    Type
REMARK                         _______ _______ _______ _____ _____    ______ ____
ROOT
ATOM     12  C   UNL     1      -2.673   1.326  24.801  0.00  0.00    +0.146 C 
ATOM     13  C   UNL     1      -2.117   0.727  24.683  0.00  0.00    +0.119 C 
ATOM     14  N   UNL     1      -2.222  -0.089  24.735  0.00  0.00    -0.261 N 
ATOM     15  C   UNL     1      -2.908  -0.509  24.919  0.00  0.00    +0.095 C 
ATOM     16  C   UNL     1      -3.658  -0.216  25.096  0.00  0.00    +0.024 C 
ATOM     17  C   UNL     1      -3.908   0.569  25.132  0.00  0.00    +0.037 C 
ATOM     18  C   UNL     1      -3.470   1.255  25.001  0.00  0.00    +0.174 C 
ATOM     19  O   UNL     1      -3.883   1.965  25.081  0.00  0.00    -0.221 OA
ATOM     20  C   UNL     1      -1.552  -0.547  24.584  0.00  0.00    +0.328 C 
ATOM     21  O   UNL     1      -0.837  -0.181  24.395  0.00  0.00    -0.250 OA
ATOM     22  N   UNL     1      -1.597  -1.370  24.622  0.00  0.00    -0.162 NA
ENDROOT
BRANCH  22  23
ATOM     23  C   UNL     1      -2.312  -1.736  24.811  0.00  0.00    +0.076 A 
ATOM     24  C   UNL     1      -2.776  -2.068  24.216  0.00  0.00    +0.027 A 
ATOM     25  C   UNL     1      -3.491  -2.434  24.405  0.00  0.00    +0.070 A 
ATOM     26  C   UNL     1      -3.742  -2.467  25.191  0.00  0.00    +0.010 A 
ATOM     27  C   UNL     1      -3.278  -2.134  25.787  0.00  0.00    +0.002 A 
ATOM     28  C   UNL     1      -2.563  -1.768  25.597  0.00  0.00    +0.017 A 
BRANCH  25  29
ATOM     29  C   UNL     1      -3.954  -2.766  23.810  0.00  0.00    +0.100 C 
ATOM     30  N   UNL     1      -4.418  -3.100  23.214  0.00  0.00    -0.191 NA
ENDBRANCH  25  29
ENDBRANCH  22  23
BRANCH  12  11
ATOM      9  C   UNL     1      -1.863   2.413  25.253  0.00  0.00    +0.265 C 
ATOM     10  O   UNL     1      -1.611   1.958  25.893  0.00  0.00    -0.268 OA
ATOM     11  N   UNL     1      -2.394   2.096  24.707  0.00  0.00    -0.199 NA
BRANCH   9   6
ATOM      3  C   UNL     1      -1.026   4.725  24.970  0.00  0.00    +0.139 A 
ATOM      4  C   UNL     1      -0.642   4.098  24.596  0.00  0.00    +0.037 A 
ATOM      5  C   UNL     1      -0.921   3.328  24.691  0.00  0.00    +0.008 A 
ATOM      6  C   UNL     1      -1.584   3.183  25.159  0.00  0.00    +0.055 A 
ATOM      7  C   UNL     1      -1.969   3.810  25.532  0.00  0.00    +0.008 A 
ATOM      8  C   UNL     1      -1.690   4.580  25.438  0.00  0.00    +0.037 A 
BRANCH   3   2
ATOM      1  C   UNL     1      -1.278   6.114  24.749  0.00  0.00    +0.252 C 
ATOM      2  O   UNL     1      -0.748   5.495  24.876  0.00  0.00    -0.471 OA
ENDBRANCH   3   2
ENDBRANCH   9   6
ENDBRANCH  12  11
TORSDOF 5
ENDMDL
MODEL 3
REMARK VINA RESULT:      -9.8      2.808      4.286
REMARK  Name = 
REMARK  5 active torsions:
REMARK  status: ('A' for Active; 'I' for Inactive)
REMARK    1  A    between atoms: O_2  and  C_3
REMARK    2  A    between atoms: C_6  and  C_9
REMARK    3  A    between atoms: N_11  and  C_12
REMARK    4  A    between atoms: N_22  and  C_23
REMARK    5  A    between atoms: C_25  and  C_29
REMARK                            x       y       z     vdW  Elec       q    Type
REMARK                         _______ _______ _______ _____ _____    ______ ____
ROOT
ATOM     12  C   UNL     1      -1.175   2.139  24.322  0.00  0.00    +0.146 C 
ATOM     13  C   UNL     1      -1.801   2.174  23.785  0.00  0.00    +0.119 C 
ATOM     14  N   UNL     1      -2.572   2.440  23.912  0.00  0.00    -0.261 N 
ATOM     15  C   UNL     1      -2.907   2.736  24.605  0.00  0.00    +0.095 C 
ATOM     16  C   UNL     1      -2.554   2.839  25.343  0.00  0.00    +0.024 C 
ATOM     17  C   UNL     1      -1.779   2.672  25.570  0.00  0.00    +0.037 C 
ATOM     18  C   UNL     1      -1.165   2.360  25.116  0.00  0.00    +0.174 C 
ATOM     19  O   UNL     1      -0.447   2.256  25.508  0.00  0.00    -0.221 OA
ATOM     20  C   UNL     1      -3.074   2.405  23.257  0.00  0.00    +0.328 C 
ATOM     21  O   UNL     1      -2.793   2.118  22.537  0.00  0.00    -0.250 OA
ATOM     22  N   UNL     1      -3.856   2.657  23.324  0.00  0.00    -0.162 NA
ENDROOT
BRANCH  22  23
ATOM     23  C   UNL     1      -4.137   2.945  24.045  0.00  0.00    +0.076 A 
ATOM     24  C   UNL     1      -4.661   2.492  24.493  0.00  0.00    +0.027 A 
ATOM     25  C   UNL     1      -4.942   2.780  25.214  0.00  0.00    +0.070 A 
ATOM     26  C   UNL     1      -4.699   3.520  25.487  0.00  0.00    +0.010 A 
ATOM     27  C   UNL     1      -4.175   3.973  25.037  0.00  0.00    +0.002 A 
ATOM     28  C   UNL     1      -3.894   3.685  24.317  0.00  0.00    +0.017 A 
BRANCH  25  29
ATOM     29  C   UNL     1      -5.465   2.327  25.663  0.00  0.00    +0.100 C 
ATOM     30  N   UNL     1      -5.990   1.875  26.112  0.00  0.00    -0.191 NA
ENDBRANCH  25  29
ENDBRANCH  22  23
BRANCH  12  11
ATOM      9  C   UNL     1      -0.377   1.033  23.894  0.00  0.00    +0.265 C 
ATOM     10  O   UNL     1      -1.001   0.520  24.061  0.00  0.00    -0.268 OA
ATOM     11  N   UNL     1      -0.465   1.843  24.024  0.00  0.00    -0.199 NA
BRANCH   9   6
ATOM      3  C   UNL     1       1.753   0.145  23.000  0.00  0.00    +0.139 A 
ATOM      4  C   UNL     1       1.058  -0.293  22.923  0.00  0.00    +0.037 A 
ATOM      5  C   UNL     1       0.348   0.003  23.221  0.00  0.00    +0.008 A 
ATOM      6  C   UNL     1       0.332   0.737  23.596  0.00  0.00    +0.055 A 
ATOM      7  C   UNL     1       1.027   1.175  23.673  0.00  0.00    +0.008 A 
ATOM      8  C   UNL     1       1.737   0.879  23.375  0.00  0.00    +0.037 A 
BRANCH   3   2
ATOM      1  C   UNL     1       3.073   0.366  22.502  0.00  0.00    +0.252 C 
ATOM      2  O   UNL     1       2.462  -0.151  22.703  0.00  0.00    -0.471 OA
ENDBRANCH   3   2
ENDBRANCH   9   6
ENDBRANCH  12  11
TORSDOF 5
ENDMDL
MODEL 4
REMARK VINA RESULT:      -9.2      3.352      5.616
REMARK  Name = 
REMARK  5 active torsions:
REMARK  status: ('A' for Active; 'I' for Inactive)
REMARK    1  A    between atoms: O_2  and  C_3
REMARK    2  A    between atoms: C_6  and  C_9
REMARK    3  A    between atoms: N_11  and  C_12
REMARK    4  A    between atoms: N_22  and  C_23
REMARK    5  A    between atoms: C_25  and  C_29
REMARK                            x       y       z     vdW  Elec       q    Type
REMARK                         _______ _______ _______ _____ _____    ______ ____
ROOT
ATOM     12  C   UNL     1      -0.338   0.326  23.968  0.00  0.00    +0.146 C 
ATOM     13  C   UNL     1      -0.426  -0.361  24.418  0.00  0.00    +0.119 C 
ATOM     14  N   UNL     1      -1.121  -0.704  24.700  0.00  0.00    -0.261 N 
ATOM     15  C   UNL     1      -1.899  -0.448  24.602  0.00  0.00    +0.095 C 
ATOM     16  C   UNL     1      -2.174   0.216  24.197  0.00  0.00    +0.024 C 
ATOM     17  C   UNL     1      -1.740   0.787  23.791  0.00  0.00    +0.037 C 
ATOM     18  C   UNL     1      -0.923   0.836  23.689  0.00  0.00    +0.174 C 
ATOM     19  O   UNL     1      -0.656   1.481  23.250  0.00  0.00    -0.221 OA
ATOM     20  C   UNL     1      -1.025  -1.397  25.139  0.00  0.00    +0.328 C 
ATOM     21  O   UNL     1      -0.269  -1.701  25.270  0.00  0.00    -0.250 OA
ATOM     22  N   UNL     1      -1.684  -1.785  25.446  0.00  0.00    -0.162 NA
ENDROOT
BRANCH  22  23
ATOM     23  C   UNL     1      -2.440  -1.482  25.316  0.00  0.00    +0.076 A 
ATOM     24  C   UNL     1      -2.939  -1.839  24.764  0.00  0.00    +0.027 A 
ATOM     25  C   UNL     1      -3.695  -1.535  24.633  0.00  0.00    +0.070 A 
ATOM     26  C   UNL     1      -3.953  -0.874  25.055  0.00  0.00    +0.010 A 
ATOM     27  C   UNL     1      -3.454  -0.516  25.607  0.00  0.00    +0.002 A 
ATOM     28  C   UNL     1      -2.698  -0.820  25.737  0.00  0.00    +0.017 A 
BRANCH  25  29
ATOM     29  C   UNL     1      -4.193  -1.892  24.082  0.00  0.00    +0.100 C 
ATOM     30  N   UNL     1      -4.692  -2.250  23.530  0.00  0.00    -0.191 NA
ENDBRANCH  25  29
ENDBRANCH  22  23
BRANCH  12  11
ATOM      9  C   UNL     1       0.852   0.078  23.218  0.00  0.00    +0.265 C 
ATOM     10  O   UNL     1       0.492  -0.573  22.862  0.00  0.00    -0.268 OA
ATOM     11  N   UNL     1       0.437   0.527  23.771  0.00  0.00    -0.199 NA
BRANCH   9   6
ATOM      3  C   UNL     1       3.178   0.683  22.626  0.00  0.00    +0.139 A 
ATOM      4  C   UNL     1       2.793   0.078  22.220  0.00  0.00    +0.037 A 
ATOM      5  C   UNL     1       2.018  -0.124  22.417  0.00  0.00    +0.008 A 
ATOM      6  C   UNL     1       1.627   0.280  23.021  0.00  0.00    +0.055 A 
ATOM      7  C   UNL     1       2.012   0.885  23.427  0.00  0.00    +0.008 A 
ATOM      8  C   UNL     1       2.787   1.087  23.230  0.00  0.00    +0.037 A 
BRANCH   3   2
ATOM      1  C   UNL     1       4.581   0.599  22.881  0.00  0.00    +0.252 C 
ATOM      2  O   UNL     1       3.953   0.885  22.430  0.00  0.00    -0.471 OA
ENDBRANCH   3   2
ENDBRANCH   9   6
ENDBRANCH  12  11
TORSDOF 5
ENDMDL
