MODEL 1
REMARK VINA RESULT:      -9.9      0.000      0.000
REMARK  Name = 
REMARK  4 active torsions:
REMARK  status: ('A' for Active; 'I' for Inactive)
REMARK    1  A    between atoms: C_1  and  N_2
REMARK    2  A    between atoms: C_1  and  C_17
REMARK    3  A    between atoms: C_5  and  C_7
REMARK    4  A    between atoms: C_10  and  C_12
REMARK                            x       y       z     vdW  Elec       q    Type
REMARK                         _______ _______ _______ _____ _____    ______ ____
ROOT
ATOM      2  N   UNL     1      -3.207   3.558  25.299  0.00  0.00    -0.268 NA
ATOM      3  C   UNL     1      -3.632   3.745  24.617  0.00  0.00    +0.073 C 
ATOM      4  C   UNL     1      -4.052   3.075  24.385  0.00  0.00    +0.028 C 
ATOM      5  C   UNL     1      -3.887   2.471  24.924  0.00  0.00    +0.096 C 
ATOM      6  C   UNL     1      -3.364   2.770  25.489  0.00  0.00    +0.082 C 
ENDROOT
BRANCH   5   7
ATOM      7  C   UNL     1      -4.190   1.705  24.902  0.00  0.00    +0.228 A 
ATOM      8  N   UNL     1      -4.989   1.499  24.921  0.00  0.00    -0.111 NA
ATOM      9  N   UNL     1      -5.040   0.675  24.888  0.00  0.00    -0.104 NA
ATOM     10  C   UNL     1      -4.273   0.374  24.847  0.00  0.00    +0.285 A 
ATOM     11  O   UNL     1      -3.748   1.010  24.856  0.00  0.00    -0.417 OA
BRANCH  10  12
ATOM     12  C   UNL     1      -4.068  -0.424  24.805  0.00  0.00    +0.200 A 
ATOM     13  C   UNL     1      -4.111  -0.901  24.134  0.00  0.00    +0.046 A 
ATOM     14  C   UNL     1      -3.853  -1.657  24.342  0.00  0.00    +0.044 A 
ATOM     15  C   UNL     1      -3.651  -1.647  25.141  0.00  0.00    +0.180 A 
ATOM     16  O   UNL     1      -3.784  -0.885  25.428  0.00  0.00    -0.446 OA
ENDBRANCH  10  12
ENDBRANCH   5   7
BRANCH   2   1
ATOM      1  C   UNL     1      -2.711   4.068  25.717  0.00  0.00    +0.106 C 
BRANCH   1  17
ATOM     17  C   UNL     1      -1.954   4.231  25.433  0.00  0.00    +0.023 A 
ATOM     18  C   UNL     1      -1.712   4.935  25.076  0.00  0.00    +0.004 A 
ATOM     19  C   UNL     1      -0.914   4.859  24.879  0.00  0.00    +0.007 A 
ATOM     20  C   UNL     1      -0.664   4.109  25.114  0.00  0.00    +0.035 A 
ATOM     21  S   UNL     1      -1.307   3.722  25.457  0.00  0.00    -0.089 S 
ENDBRANCH   1  17
ENDBRANCH   2   1
TORSDOF 4
ENDMDL
MODEL 2
REMARK VINA RESULT:      -9.7      1.835      4.869
REMARK  Name = 
REMARK  4 active torsions:
REMARK  status: ('A' for Active; 'I' for Inactive)
REMARK    1  A    between atoms: C_1  and  N_2
REMARK    2  A    between atoms: C_1  and  C_17
REMARK    3  A    between atoms: C_5  and  C_7
REMARK    4  A    between atoms: C_10  and  C_12
REMARK                            x       y       z     vdW  Elec       q    Type
REMARK                         _______ _______ _______ _____ _____    ______ ____
ROOT
ATOM      2  N   UNL     1      -3.734  -0.192  25.214  0.00  0.00    -0.268 NA
ATOM      3  C   UNL     1      -4.466   0.102  24.973  0.00  0.00    +0.073 C 
ATOM      4  C   UNL     1      -4.351   0.864  24.678  0.00  0.00    +0.028 C 
ATOM      5  C   UNL     1      -3.546   1.041  24.737  0.00  0.00    +0.096 C 
ATOM      6  C   UNL     1      -3.165   0.389  25.069  0.00  0.00    +0.082 C 
ENDROOT
BRANCH   5   7
ATOM      7  C   UNL     1      -3.188   1.746  24.506  0.00  0.00    +0.228 A 
ATOM      8  N   UNL     1      -3.191   2.066  23.745  0.00  0.00    -0.111 NA
ATOM      9  N   UNL     1      -2.767   2.774  23.764  0.00  0.00    -0.104 NA
ATOM     10  C   UNL     1      -2.503   2.892  24.537  0.00  0.00    +0.285 A 
ATOM     11  O   UNL     1      -2.762   2.257  24.995  0.00  0.00    -0.417 OA
BRANCH  10  12
ATOM     12  C   UNL     1      -2.056   3.533  24.804  0.00  0.00    +0.200 A 
ATOM     13  C   UNL     1      -2.335   4.162  25.258  0.00  0.00    +0.046 A 
ATOM     14  C   UNL     1      -1.704   4.674  25.399  0.00  0.00    +0.044 A 
ATOM     15  C   UNL     1      -1.035   4.362  25.031  0.00  0.00    +0.180 A 
ATOM     16  O   UNL     1      -1.253   3.656  24.663  0.00  0.00    -0.446 OA
ENDBRANCH  10  12
ENDBRANCH   5   7
BRANCH   2   1
ATOM      1  C   UNL     1      -3.594  -0.936  25.543  0.00  0.00    +0.106 C 
BRANCH   1  17
ATOM     17  C   UNL     1      -3.421  -1.577  25.054  0.00  0.00    +0.023 A 
ATOM     18  C   UNL     1      -3.965  -2.004  24.604  0.00  0.00    +0.004 A 
ATOM     19  C   UNL     1      -3.554  -2.594  24.200  0.00  0.00    +0.007 A 
ATOM     20  C   UNL     1      -2.757  -2.532  24.401  0.00  0.00    +0.035 A 
ATOM     21  S   UNL     1      -2.675  -1.903  24.928  0.00  0.00    -0.089 S 
ENDBRANCH   1  17
ENDBRANCH   2   1
TORSDOF 4
ENDMDL
MODEL 3
REMARK VINA RESULT:      -9.7      2.311      5.172
REMARK  Name = 
REMARK  4 active torsions:
REMARK  status: ('A' for Active; 'I' for Inactive)
REMARK    1  A    between atoms: C_1  and  N_2
REMARK    2  A    between atoms: C_1  and  C_17
REMARK    3  A    between atoms: C_5  and  C_7
REMARK    4  A    between atoms: C_10  and  C_12
REMARK                            x       y       z     vdW  Elec       q    Type
REMARK                         _______ _______ _______ _____ _____    ______ ____
ROOT
ATOM      2  N   UNL     1      -2.723  -0.466  25.402  0.00  0.00    -0.268 NA
ATOM      3  C   UNL     1      -1.936  -0.638  25.578  0.00  0.00    +0.073 C 
ATOM      4  C   UNL     1      -1.477   0.013  25.365  0.00  0.00    +0.028 C 
ATOM      5  C   UNL     1      -1.982   0.590  25.056  0.00  0.00    +0.096 C 
ATOM      6  C   UNL     1      -2.752   0.293  25.079  0.00  0.00    +0.082 C 
ENDROOT
BRANCH   5   7
ATOM      7  C   UNL     1      -1.757   1.330  24.774  0.00  0.00    +0.228 A 
ATOM      8  N   UNL     1      -1.434   1.490  24.032  0.00  0.00    -0.111 NA
ATOM      9  N   UNL     1      -1.292   2.302  23.985  0.00  0.00    -0.104 NA
ATOM     10  C   UNL     1      -1.526   2.643  24.698  0.00  0.00    +0.285 A 
ATOM     11  O   UNL     1      -1.814   2.043  25.186  0.00  0.00    -0.417 OA
BRANCH  10  12
ATOM     12  C   UNL     1      -1.482   3.445  24.889  0.00  0.00    +0.200 A 
ATOM     13  C   UNL     1      -0.813   3.923  24.822  0.00  0.00    +0.046 A 
ATOM     14  C   UNL     1      -1.016   4.682  25.073  0.00  0.00    +0.044 A 
ATOM     15  C   UNL     1      -1.810   4.674  25.295  0.00  0.00    +0.180 A 
ATOM     16  O   UNL     1      -2.098   3.908  25.181  0.00  0.00    -0.446 OA
ENDBRANCH  10  12
ENDBRANCH   5   7
BRANCH   2   1
ATOM      1  C   UNL     1      -3.368  -0.965  25.526  0.00  0.00    +0.106 C 
BRANCH   1  17
ATOM     17  C   UNL     1      -3.592  -1.503  24.942  0.00  0.00    +0.023 A 
ATOM     18  C   UNL     1      -4.093  -1.345  24.305  0.00  0.00    +0.004 A 
ATOM     19  C   UNL     1      -4.165  -2.037  23.861  0.00  0.00    +0.007 A 
ATOM     20  C   UNL     1      -3.710  -2.621  24.223  0.00  0.00    +0.035 A 
ATOM     21  S   UNL     1      -3.356  -2.291  24.891  0.00  0.00    -0.089 S 
ENDBRANCH   1  17
ENDBRANCH   2   1
TORSDOF 4
ENDMDL
MODEL 4
REMARK VINA RESULT:      -9.6      0.983      1.338
REMARK  Name = 
REMARK  4 active torsions:
REMARK  status: ('A' for Active; 'I' for Inactive)
REMARK    1  A    between atoms: C_1  and  N_2
REMARK    2  A    between atoms: C_1  and  C_17
REMARK    3  A    between atoms: C_5  and  C_7
REMARK    4  A    between atoms: C_10  and  C_12
REMARK                            x       y       z     vdW  Elec       q    Type
REMARK                         _______ _______ _______ _____ _____    ______ ____
ROOT
ATOM      2  N   UNL     1      -3.422   2.775  24.155  0.00  0.00    -0.268 NA
ATOM      3  C   UNL     1      -3.013   2.451  23.516  0.00  0.00    +0.073 C 
ATOM      4  C   UNL     1      -3.157   1.639  23.505  0.00  0.00    +0.028 C 
ATOM      5  C   UNL     1      -3.656   1.461  24.138  0.00  0.00    +0.096 C 
ATOM      6  C   UNL     1      -3.820   2.163  24.539  0.00  0.00    +0.082 C 
ENDROOT
BRANCH   5   7
ATOM      7  C   UNL     1      -3.941   0.712  24.334  0.00  0.00    +0.228 A 
ATOM      8  N   UNL     1      -4.676   0.545  24.670  0.00  0.00    -0.111 NA
ATOM      9  N   UNL     1      -4.730  -0.272  24.772  0.00  0.00    -0.104 NA
ATOM     10  C   UNL     1      -4.028  -0.610  24.499  0.00  0.00    +0.285 A 
ATOM     11  O   UNL     1      -3.541  -0.001  24.229  0.00  0.00    -0.417 OA
BRANCH  10  12
ATOM     12  C   UNL     1      -3.846  -1.415  24.498  0.00  0.00    +0.200 A 
ATOM     13  C   UNL     1      -4.111  -1.971  23.950  0.00  0.00    +0.046 A 
ATOM     14  C   UNL     1      -3.796  -2.704  24.157  0.00  0.00    +0.044 A 
ATOM     15  C   UNL     1      -3.335  -2.601  24.834  0.00  0.00    +0.180 A 
ATOM     16  O   UNL     1      -3.367  -1.804  25.044  0.00  0.00    -0.446 OA
ENDBRANCH  10  12
ENDBRANCH   5   7
BRANCH   2   1
ATOM      1  C   UNL     1      -3.432   3.571  24.371  0.00  0.00    +0.106 C 
BRANCH   1  17
ATOM     17  C   UNL     1      -2.913   3.847  24.950  0.00  0.00    +0.023 A 
ATOM     18  C   UNL     1      -2.130   4.079  24.829  0.00  0.00    +0.004 A 
ATOM     19  C   UNL     1      -1.819   4.315  25.556  0.00  0.00    +0.007 A 
ATOM     20  C   UNL     1      -2.409   4.229  26.125  0.00  0.00    +0.035 A 
ATOM     21  S   UNL     1      -3.085   3.940  25.751  0.00  0.00    -0.089 S 
ENDBRANCH   1  17
ENDBRANCH   2   1
TORSDOF 4
ENDMDL
MODEL 5
REMARK VINA RESULT:      -9.4      2.298      2.732
REMARK  Name = 
REMARK  4 active torsions:
REMARK  status: ('A' for Active; 'I' for Inactive)
REMARK    1  A    between atoms: C_1  and  N_2
REMARK    2  A    between atoms: C_1  and  C_17
REMARK    3  A    between atoms: C_5  and  C_7
REMARK    4  A    between atoms: C_10  and  C_12
REMARK                            x       y       z     vdW  Elec       q    Type
REMARK                         _______ _______ _______ _____ _____    ______ ____
ROOT
ATOM      2  N   UNL     1      -0.539   1.890  25.406  0.00  0.00    -0.268 NA
ATOM      3  C   UNL     1      -0.103   1.761  24.717  0.00  0.00    +0.073 C 
ATOM      4  C   UNL     1      -0.277   1.003  24.442  0.00  0.00    +0.028 C 
ATOM      5  C   UNL     1      -0.822   0.663  24.962  0.00  0.00    +0.096 C 
ATOM      6  C   UNL     1      -0.983   1.211  25.557  0.00  0.00    +0.082 C 
ENDROOT
BRANCH   5   7
ATOM      7  C   UNL     1      -1.146  -0.092  24.896  0.00  0.00    +0.228 A 
ATOM      8  N   UNL     1      -0.740  -0.805  24.987  0.00  0.00    -0.111 NA
ATOM      9  N   UNL     1      -1.278  -1.421  24.875  0.00  0.00    -0.104 NA
ATOM     10  C   UNL     1      -2.016  -1.089  24.716  0.00  0.00    +0.285 A 
ATOM     11  O   UNL     1      -1.935  -0.267  24.729  0.00  0.00    -0.417 OA
BRANCH  10  12
ATOM     12  C   UNL     1      -2.714  -1.505  24.569  0.00  0.00    +0.200 A 
ATOM     13  C   UNL     1      -2.871  -2.282  24.794  0.00  0.00    +0.046 A 
ATOM     14  C   UNL     1      -3.631  -2.474  24.535  0.00  0.00    +0.044 A 
ATOM     15  C   UNL     1      -3.943  -1.815  24.151  0.00  0.00    +0.180 A 
ATOM     16  O   UNL     1      -3.376  -1.215  24.171  0.00  0.00    -0.446 OA
ENDBRANCH  10  12
ENDBRANCH   5   7
BRANCH   2   1
ATOM      1  C   UNL     1      -0.531   2.576  25.863  0.00  0.00    +0.106 C 
BRANCH   1  17
ATOM     17  C   UNL     1      -0.976   3.232  25.630  0.00  0.00    +0.023 A 
ATOM     18  C   UNL     1      -0.711   3.850  25.152  0.00  0.00    +0.004 A 
ATOM     19  C   UNL     1      -1.333   4.384  25.060  0.00  0.00    +0.007 A 
ATOM     20  C   UNL     1      -1.981   4.096  25.480  0.00  0.00    +0.035 A 
ATOM     21  S   UNL     1      -1.760   3.383  25.833  0.00  0.00    -0.089 S 
ENDBRANCH   1  17
ENDBRANCH   2   1
TORSDOF 4
ENDMDL
MODEL 6
REMARK VINA RESULT:      -7.7     16.294     18.525
REMARK  Name = 
REMARK  4 active torsions:
REMARK  status: ('A' for Active; 'I' for Inactive)
REMARK    1  A    between atoms: C_1  and  N_2
REMARK    2  A    between atoms: C_1  and  C_17
REMARK    3  A    between atoms: C_5  and  C_7
REMARK    4  A    between atoms: C_10  and  C_12
REMARK                            x       y       z     vdW  Elec       q    Type
REMARK                         _______ _______ _______ _____ _____    ______ ____
ROOT
ATOM      2  N   UNL     1      11.699   7.519  20.201  0.00  0.00    -0.268 NA
ATOM      3  C   UNL     1      11.774   6.704  20.303  0.00  0.00    +0.073 C 
ATOM      4  C   UNL     1      12.519   6.479  20.030  0.00  0.00    +0.028 C 
ATOM      5  C   UNL     1      12.906   7.156  19.759  0.00  0.00    +0.096 C 
ATOM      6  C   UNL     1      12.399   7.799  19.865  0.00  0.00    +0.082 C 
ENDROOT
BRANCH   5   7
ATOM      7  C   UNL     1      13.665   7.185  19.439  0.00  0.00    +0.228 A 
ATOM      8  N   UNL     1      13.894   7.608  18.769  0.00  0.00    -0.111 NA
ATOM      9  N   UNL     1      14.701   7.480  18.649  0.00  0.00    -0.104 NA
ATOM     10  C   UNL     1      14.970   6.977  19.245  0.00  0.00    +0.285 A 
ATOM     11  O   UNL     1      14.330   6.794  19.733  0.00  0.00    -0.417 OA
BRANCH  10  12
ATOM     12  C   UNL     1      15.743   6.704  19.337  0.00  0.00    +0.200 A 
ATOM     13  C   UNL     1      16.332   7.060  19.790  0.00  0.00    +0.046 A 
ATOM     14  C   UNL     1      17.016   6.603  19.725  0.00  0.00    +0.044 A 
ATOM     15  C   UNL     1      16.850   5.965  19.230  0.00  0.00    +0.180 A 
ATOM     16  O   UNL     1      16.062   6.027  18.990  0.00  0.00    -0.446 OA
ENDBRANCH  10  12
ENDBRANCH   5   7
BRANCH   2   1
ATOM      1  C   UNL     1      11.041   7.974  20.400  0.00  0.00    +0.106 C 
BRANCH   1  17
ATOM     17  C   UNL     1      10.962   8.273  21.165  0.00  0.00    +0.023 A 
ATOM     18  C   UNL     1      11.172   9.032  21.413  0.00  0.00    +0.004 A 
ATOM     19  C   UNL     1      11.000   9.094  22.217  0.00  0.00    +0.007 A 
ATOM     20  C   UNL     1      10.684   8.374  22.466  0.00  0.00    +0.035 A 
ATOM     21  S   UNL     1      10.661   7.867  21.816  0.00  0.00    -0.089 S 
ENDBRANCH   1  17
ENDBRANCH   2   1
TORSDOF 4
ENDMDL
MODEL 7
REMARK VINA RESULT:      -7.6     16.476     18.695
REMARK  Name = 
REMARK  4 active torsions:
REMARK  status: ('A' for Active; 'I' for Inactive)
REMARK    1  A    between atoms: C_1  and  N_2
REMARK    2  A    between atoms: C_1  and  C_17
REMARK    3  A    between atoms: C_5  and  C_7
REMARK    4  A    between atoms: C_10  and  C_12
REMARK                            x       y       z     vdW  Elec       q    Type
REMARK                         _______ _______ _______ _____ _____    ______ ____
ROOT
ATOM      2  N   UNL     1      15.189   6.850  19.401  0.00  0.00    -0.268 NA
ATOM      3  C   UNL     1      15.007   7.457  18.873  0.00  0.00    +0.073 C 
ATOM      4  C   UNL     1      14.197   7.603  18.920  0.00  0.00    +0.028 C 
ATOM      5  C   UNL     1      13.877   7.086  19.479  0.00  0.00    +0.096 C 
ATOM      6  C   UNL     1      14.490   6.621  19.776  0.00  0.00    +0.082 C 
ENDROOT
BRANCH   5   7
ATOM      7  C   UNL     1      13.084   7.043  19.701  0.00  0.00    +0.228 A 
ATOM      8  N   UNL     1      12.486   6.651  19.289  0.00  0.00    -0.111 NA
ATOM      9  N   UNL     1      11.781   6.750  19.708  0.00  0.00    -0.104 NA
ATOM     10  C   UNL     1      11.945   7.203  20.378  0.00  0.00    +0.285 A 
ATOM     11  O   UNL     1      12.750   7.384  20.373  0.00  0.00    -0.417 OA
BRANCH  10  12
ATOM     12  C   UNL     1      11.398   7.434  20.951  0.00  0.00    +0.200 A 
ATOM     13  C   UNL     1      11.015   8.163  20.990  0.00  0.00    +0.046 A 
ATOM     14  C   UNL     1      10.520   8.157  21.649  0.00  0.00    +0.044 A 
ATOM     15  C   UNL     1      10.597   7.424  22.019  0.00  0.00    +0.180 A 
ATOM     16  O   UNL     1      11.140   6.977  21.587  0.00  0.00    -0.446 OA
ENDBRANCH  10  12
ENDBRANCH   5   7
BRANCH   2   1
ATOM      1  C   UNL     1      15.938   6.529  19.532  0.00  0.00    +0.106 C 
BRANCH   1  17
ATOM     17  C   UNL     1      16.414   6.827  20.136  0.00  0.00    +0.023 A 
ATOM     18  C   UNL     1      16.873   7.512  20.098  0.00  0.00    +0.004 A 
ATOM     19  C   UNL     1      17.258   7.601  20.822  0.00  0.00    +0.007 A 
ATOM     20  C   UNL     1      17.037   6.972  21.307  0.00  0.00    +0.035 A 
ATOM     21  S   UNL     1      16.516   6.494  20.883  0.00  0.00    -0.089 S 
ENDBRANCH   1  17
ENDBRANCH   2   1
TORSDOF 4
ENDMDL
MODEL 8
REMARK VINA RESULT:      -7.3     17.599     18.578
REMARK  Name = 
REMARK  4 active torsions:
REMARK  status: ('A' for Active; 'I' for Inactive)
REMARK    1  A    between atoms: C_1  and  N_2
REMARK    2  A    between atoms: C_1  and  C_17
REMARK    3  A    between atoms: C_5  and  C_7
REMARK    4  A    between atoms: C_10  and  C_12
REMARK                            x       y       z     vdW  Elec       q    Type
REMARK                         _______ _______ _______ _____ _____    ______ ____
ROOT
ATOM      2  N   UNL     1      13.609   7.299  20.302  0.00  0.00    -0.268 NA
ATOM      3  C   UNL     1      13.160   6.608  20.278  0.00  0.00    +0.073 C 
ATOM      4  C   UNL     1      12.508   6.743  19.791  0.00  0.00    +0.028 C 
ATOM      5  C   UNL     1      12.555   7.519  19.512  0.00  0.00    +0.096 C 
ATOM      6  C   UNL     1      13.236   7.862  19.829  0.00  0.00    +0.082 C 
ENDROOT
BRANCH   5   7
ATOM      7  C   UNL     1      12.017   7.885  19.007  0.00  0.00    +0.228 A 
ATOM      8  N   UNL     1      11.286   8.201  19.224  0.00  0.00    -0.111 NA
ATOM      9  N   UNL     1      10.932   8.512  18.546  0.00  0.00    -0.104 NA
ATOM     10  C   UNL     1      11.444   8.389  17.912  0.00  0.00    +0.285 A 
ATOM     11  O   UNL     1      12.115   8.001  18.197  0.00  0.00    -0.417 OA
BRANCH  10  12
ATOM     12  C   UNL     1      11.309   8.613  17.129  0.00  0.00    +0.200 A 
ATOM     13  C   UNL     1      10.598   8.537  16.718  0.00  0.00    +0.046 A 
ATOM     14  C   UNL     1      10.712   8.830  15.955  0.00  0.00    +0.044 A 
ATOM     15  C   UNL     1      11.493   9.087  15.894  0.00  0.00    +0.180 A 
ATOM     16  O   UNL     1      11.862   8.953  16.620  0.00  0.00    -0.446 OA
ENDBRANCH  10  12
ENDBRANCH   5   7
BRANCH   2   1
ATOM      1  C   UNL     1      14.309   7.408  20.725  0.00  0.00    +0.106 C 
BRANCH   1  17
ATOM     17  C   UNL     1      15.031   7.188  20.391  0.00  0.00    +0.023 A 
ATOM     18  C   UNL     1      15.371   6.436  20.423  0.00  0.00    +0.004 A 
ATOM     19  C   UNL     1      16.089   6.465  20.019  0.00  0.00    +0.007 A 
ATOM     20  C   UNL     1      16.193   7.232  19.737  0.00  0.00    +0.035 A 
ATOM     21  S   UNL     1      15.539   7.679  19.967  0.00  0.00    -0.089 S 
ENDBRANCH   1  17
ENDBRANCH   2   1
TORSDOF 4
ENDMDL
MODEL 9
REMARK VINA RESULT:      -7.2     16.184     18.180
REMARK  Name = 
REMARK  4 active torsions:
REMARK  status: ('A' for Active; 'I' for Inactive)
REMARK    1  A    between atoms: C_1  and  N_2
REMARK    2  A    between atoms: C_1  and  C_17
REMARK    3  A    between atoms: C_5  and  C_7
REMARK    4  A    between atoms: C_10  and  C_12
REMARK                            x       y       z     vdW  Elec       q    Type
REMARK                         _______ _______ _______ _____ _____    ______ ____
ROOT
ATOM      2  N   UNL     1      12.582   7.552  20.909  0.00  0.00    -0.268 NA
ATOM      3  C   UNL     1      12.796   6.767  20.772  0.00  0.00    +0.073 C 
ATOM      4  C   UNL     1      12.829   6.650  19.956  0.00  0.00    +0.028 C 
ATOM      5  C   UNL     1      12.636   7.364  19.588  0.00  0.00    +0.096 C 
ATOM      6  C   UNL     1      12.484   7.921  20.177  0.00  0.00    +0.082 C 
ENDROOT
BRANCH   5   7
ATOM      7  C   UNL     1      12.602   7.496  18.775  0.00  0.00    +0.228 A 
ATOM      8  N   UNL     1      12.071   7.147  18.248  0.00  0.00    -0.111 NA
ATOM      9  N   UNL     1      12.234   7.436  17.493  0.00  0.00    -0.104 NA
ATOM     10  C   UNL     1      12.866   7.963  17.552  0.00  0.00    +0.285 A 
ATOM     11  O   UNL     1      13.094   8.000  18.345  0.00  0.00    -0.417 OA
BRANCH  10  12
ATOM     12  C   UNL     1      13.210   8.380  16.929  0.00  0.00    +0.200 A 
ATOM     13  C   UNL     1      14.009   8.574  16.858  0.00  0.00    +0.046 A 
ATOM     14  C   UNL     1      14.108   8.990  16.152  0.00  0.00    +0.044 A 
ATOM     15  C   UNL     1      13.372   9.053  15.787  0.00  0.00    +0.180 A 
ATOM     16  O   UNL     1      12.816   8.676  16.268  0.00  0.00    -0.446 OA
ENDBRANCH  10  12
ENDBRANCH   5   7
BRANCH   2   1
ATOM      1  C   UNL     1      12.484   7.906  21.647  0.00  0.00    +0.106 C 
BRANCH   1  17
ATOM     17  C   UNL     1      11.727   8.083  21.923  0.00  0.00    +0.023 A 
ATOM     18  C   UNL     1      11.157   7.534  22.157  0.00  0.00    +0.004 A 
ATOM     19  C   UNL     1      10.484   7.951  22.391  0.00  0.00    +0.007 A 
ATOM     20  C   UNL     1      10.638   8.755  22.301  0.00  0.00    +0.035 A 
ATOM     21  S   UNL     1      11.406   8.837  22.011  0.00  0.00    -0.089 S 
ENDBRANCH   1  17
ENDBRANCH   2   1
TORSDOF 4
ENDMDL
