REMARK  Name = 
REMARK  6 active torsions:
REMARK  status: ('A' for Active; 'I' for Inactive)
REMARK    1  A    between atoms: O_2  and  C_3
REMARK    2  A    between atoms: C_3  and  C_4
REMARK    3  A    between atoms: C_4  and  O_5
REMARK    4  A    between atoms: O_5  and  C_6
REMARK    5  A    between atoms: C_8  and  C_12
REMARK    6  A    between atoms: C_15  and  C_17
REMARK                            x       y       z     vdW  Elec       q    Type
REMARK                         _______ _______ _______ _____ _____    ______ ____
ROOT
ATOM      6  C   UNL     1       3.572  -2.888   0.000  0.00  0.00    +0.225 A 
ATOM      7  C   UNL     1       4.287  -2.475   0.000  0.00  0.00    +0.061 A 
ATOM      8  C   UNL     1       5.001  -2.888   0.000  0.00  0.00    +0.045 A 
ATOM      9  C   UNL     1       5.001  -3.712   0.000  0.00  0.00    +0.024 A 
ATOM     10  C   UNL     1       4.287  -4.125   0.000  0.00  0.00    +0.102 A 
ATOM     11  N   UNL     1       3.572  -3.712   0.000  0.00  0.00    -0.210 NA
ENDROOT
BRANCH   8  12
ATOM     12  C   UNL     1       5.716  -2.475   0.000  0.00  0.00    +0.204 A 
ATOM     13  N   UNL     1       5.802  -1.655   0.000  0.00  0.00    -0.056 NA
ATOM     14  O   UNL     1       6.609  -1.483   0.000  0.00  0.00    -0.336 OA
ATOM     15  C   UNL     1       7.021  -2.197   0.000  0.00  0.00    +0.252 A 
ATOM     16  N   UNL     1       6.469  -2.811   0.000  0.00  0.00    -0.190 NA
BRANCH  15  17
ATOM     17  C   UNL     1       7.842  -2.284   0.000  0.00  0.00    +0.151 C 
ATOM     18  C   UNL     1       8.394  -1.671   0.000  0.00  0.00    +0.028 C 
ATOM     19  C   UNL     1       9.148  -2.006   0.000  0.00  0.00    +0.021 C 
ATOM     20  C   UNL     1       9.061  -2.827   0.000  0.00  0.00    +0.089 C 
ATOM     21  N   UNL     1       8.255  -2.998   0.000  0.00  0.00    -0.210 NA
ENDBRANCH  15  17
ENDBRANCH   8  12
BRANCH   6   5
ATOM      5  O   UNL     1       2.858  -2.475   0.000  0.00  0.00    -0.457 OA
BRANCH   5   4
ATOM      4  C   UNL     1       2.143  -2.888   0.000  0.00  0.00    +0.239 C 
BRANCH   4   3
ATOM      3  C   UNL     1       1.429  -2.475   0.000  0.00  0.00    +0.189 C 
BRANCH   3   2
ATOM      1  C   UNL     1       0.000  -2.475   0.000  0.00  0.00    +0.174 C 
ATOM      2  O   UNL     1       0.715  -2.888   0.000  0.00  0.00    -0.347 OA
ENDBRANCH   3   2
ENDBRANCH   4   3
ENDBRANCH   5   4
ENDBRANCH   6   5
TORSDOF 6
