MODEL 1
REMARK VINA RESULT:      -9.2      0.000      0.000
REMARK  Name = 
REMARK  5 active torsions:
REMARK  status: ('A' for Active; 'I' for Inactive)
REMARK    1  A    between atoms: O_2  and  C_3
REMARK    2  A    between atoms: C_6  and  C_7
REMARK    3  A    between atoms: C_7  and  C_8
REMARK    4  A    between atoms: N_17  and  C_18
REMARK    5  A    between atoms: C_18  and  C_19
REMARK                            x       y       z     vdW  Elec       q    Type
REMARK                         _______ _______ _______ _____ _____    ______ ____
ROOT
ATOM      8  C   UNL     1      -0.373   0.594  23.693  0.00  0.00    +0.230 C 
ATOM      9  O   UNL     1      -0.213   1.305  23.305  0.00  0.00    -0.275 OA
ATOM     10  N   UNL     1      -1.127   0.450  23.995  0.00  0.00    -0.279 N 
ATOM     11  C   UNL     1      -1.286  -0.261  24.383  0.00  0.00    +0.093 C 
ATOM     12  C   UNL     1      -2.040  -0.406  24.685  0.00  0.00    +0.022 C 
ATOM     13  C   UNL     1      -2.635   0.160  24.599  0.00  0.00    +0.012 C 
ATOM     14  C   UNL     1      -3.343  -0.094  24.939  0.00  0.00    +0.085 C 
ATOM     15  C   UNL     1      -4.066   0.301  24.975  0.00  0.00    +0.226 C 
ATOM     16  O   UNL     1      -4.676  -0.103  25.356  0.00  0.00    -0.275 OA
ATOM     17  N   UNL     1      -4.260   1.047  24.680  0.00  0.00    -0.275 N 
ATOM     25  C   UNL     1      -3.779   1.581  24.277  0.00  0.00    +0.094 C 
ATOM     26  C   UNL     1      -2.984   1.503  24.068  0.00  0.00    +0.023 C 
ATOM     27  C   UNL     1      -2.475   0.871  24.212  0.00  0.00    +0.022 C 
ATOM     28  C   UNL     1      -1.721   1.015  23.910  0.00  0.00    +0.093 C 
ENDROOT
BRANCH   8   7
ATOM      7  C   UNL     1       0.221   0.029  23.778  0.00  0.00    +0.112 C 
BRANCH   7   6
ATOM      3  C   UNL     1       2.382   0.314  22.604  0.00  0.00    +0.139 A 
ATOM      4  C   UNL     1       2.217   0.760  23.279  0.00  0.00    +0.037 A 
ATOM      5  C   UNL     1       1.497   0.664  23.670  0.00  0.00    -0.001 A 
ATOM      6  C   UNL     1       0.942   0.124  23.387  0.00  0.00    -0.013 A 
ATOM     29  C   UNL     1       1.106  -0.321  22.713  0.00  0.00    -0.001 A 
ATOM     30  C   UNL     1       1.826  -0.227  22.321  0.00  0.00    +0.037 A 
BRANCH   3   2
ATOM      1  C   UNL     1       3.746   0.740  22.606  0.00  0.00    +0.252 C 
ATOM      2  O   UNL     1       3.102   0.408  22.213  0.00  0.00    -0.471 OA
ENDBRANCH   3   2
ENDBRANCH   7   6
ENDBRANCH   8   7
BRANCH  17  18
ATOM     18  C   UNL     1      -5.038   1.290  24.805  0.00  0.00    +0.122 C 
BRANCH  18  19
ATOM     19  C   UNL     1      -5.191   2.035  25.124  0.00  0.00    +0.017 A 
ATOM     20  C   UNL     1      -5.127   2.707  24.650  0.00  0.00    +0.001 A 
ATOM     21  C   UNL     1      -5.280   3.453  24.967  0.00  0.00    +0.020 A 
ATOM     22  C   UNL     1      -5.496   3.527  25.761  0.00  0.00    +0.099 A 
ATOM     23  N   UNL     1      -5.560   2.855  26.235  0.00  0.00    -0.243 NA
ATOM     24  C   UNL     1      -5.407   2.109  25.916  0.00  0.00    +0.096 A 
ENDBRANCH  18  19
ENDBRANCH  17  18
TORSDOF 5
ENDMDL
MODEL 2
REMARK VINA RESULT:      -9.1      3.416      4.750
REMARK  Name = 
REMARK  5 active torsions:
REMARK  status: ('A' for Active; 'I' for Inactive)
REMARK    1  A    between atoms: O_2  and  C_3
REMARK    2  A    between atoms: C_6  and  C_7
REMARK    3  A    between atoms: C_7  and  C_8
REMARK    4  A    between atoms: N_17  and  C_18
REMARK    5  A    between atoms: C_18  and  C_19
REMARK                            x       y       z     vdW  Elec       q    Type
REMARK                         _______ _______ _______ _____ _____    ______ ____
ROOT
ATOM      8  C   UNL     1      -3.989   0.140  24.027  0.00  0.00    +0.230 C 
ATOM      9  O   UNL     1      -3.459   0.019  23.405  0.00  0.00    -0.275 OA
ATOM     10  N   UNL     1      -4.000   0.863  24.423  0.00  0.00    -0.279 N 
ATOM     11  C   UNL     1      -4.530   0.984  25.045  0.00  0.00    +0.093 C 
ATOM     12  C   UNL     1      -4.542   1.706  25.442  0.00  0.00    +0.022 C 
ATOM     13  C   UNL     1      -4.025   2.309  25.217  0.00  0.00    +0.012 C 
ATOM     14  C   UNL     1      -4.127   2.983  25.683  0.00  0.00    +0.085 C 
ATOM     15  C   UNL     1      -3.725   3.702  25.642  0.00  0.00    +0.226 C 
ATOM     16  O   UNL     1      -3.958   4.273  26.190  0.00  0.00    -0.275 OA
ATOM     17  N   UNL     1      -3.122   3.926  25.126  0.00  0.00    -0.275 N 
ATOM     25  C   UNL     1      -2.772   3.485  24.523  0.00  0.00    +0.094 C 
ATOM     26  C   UNL     1      -2.938   2.712  24.287  0.00  0.00    +0.023 C 
ATOM     27  C   UNL     1      -3.496   2.189  24.596  0.00  0.00    +0.022 C 
ATOM     28  C   UNL     1      -3.484   1.465  24.199  0.00  0.00    +0.093 C 
ENDROOT
BRANCH   8   7
ATOM      7  C   UNL     1      -4.505  -0.463  24.251  0.00  0.00    +0.112 C 
BRANCH   7   6
ATOM      3  C   UNL     1      -3.704  -2.801  24.373  0.00  0.00    +0.139 A 
ATOM      4  C   UNL     1      -4.156  -2.554  23.730  0.00  0.00    +0.037 A 
ATOM      5  C   UNL     1      -4.423  -1.774  23.689  0.00  0.00    -0.001 A 
ATOM      6  C   UNL     1      -4.238  -1.242  24.291  0.00  0.00    -0.013 A 
ATOM     29  C   UNL     1      -3.785  -1.490  24.935  0.00  0.00    -0.001 A 
ATOM     30  C   UNL     1      -3.518  -2.269  24.977  0.00  0.00    +0.037 A 
BRANCH   3   2
ATOM      1  C   UNL     1      -2.659  -3.762  24.208  0.00  0.00    +0.252 C 
ATOM      2  O   UNL     1      -3.436  -3.580  24.415  0.00  0.00    -0.471 OA
ENDBRANCH   3   2
ENDBRANCH   7   6
ENDBRANCH   8   7
BRANCH  17  18
ATOM     18  C   UNL     1      -2.831   4.691  25.225  0.00  0.00    +0.122 C 
BRANCH  18  19
ATOM     19  C   UNL     1      -2.025   4.840  25.131  0.00  0.00    +0.017 A 
ATOM     20  C   UNL     1      -1.775   5.475  24.667  0.00  0.00    +0.001 A 
ATOM     21  C   UNL     1      -0.969   5.625  24.573  0.00  0.00    +0.020 A 
ATOM     22  C   UNL     1      -0.413   5.140  24.943  0.00  0.00    +0.099 A 
ATOM     23  N   UNL     1      -0.663   4.506  25.407  0.00  0.00    -0.243 NA
ATOM     24  C   UNL     1      -1.469   4.356  25.501  0.00  0.00    +0.096 A 
ENDBRANCH  18  19
ENDBRANCH  17  18
TORSDOF 5
ENDMDL
MODEL 3
REMARK VINA RESULT:      -8.8      2.359      3.177
REMARK  Name = 
REMARK  5 active torsions:
REMARK  status: ('A' for Active; 'I' for Inactive)
REMARK    1  A    between atoms: O_2  and  C_3
REMARK    2  A    between atoms: C_6  and  C_7
REMARK    3  A    between atoms: C_7  and  C_8
REMARK    4  A    between atoms: N_17  and  C_18
REMARK    5  A    between atoms: C_18  and  C_19
REMARK                            x       y       z     vdW  Elec       q    Type
REMARK                         _______ _______ _______ _____ _____    ______ ____
ROOT
ATOM      8  C   UNL     1       1.447   0.048  23.122  0.00  0.00    +0.230 C 
ATOM      9  O   UNL     1       1.647  -0.721  22.901  0.00  0.00    -0.275 OA
ATOM     10  N   UNL     1       0.737   0.190  23.519  0.00  0.00    -0.279 N 
ATOM     11  C   UNL     1       0.537   0.959  23.740  0.00  0.00    +0.093 C 
ATOM     12  C   UNL     1      -0.172   1.103  24.136  0.00  0.00    +0.022 C 
ATOM     13  C   UNL     1      -0.681   0.477  24.311  0.00  0.00    +0.012 C 
ATOM     14  C   UNL     1      -1.356   0.740  24.707  0.00  0.00    +0.085 C 
ATOM     15  C   UNL     1      -1.997   0.297  24.980  0.00  0.00    +0.226 C 
ATOM     16  O   UNL     1      -2.591   0.725  25.358  0.00  0.00    -0.275 OA
ATOM     17  N   UNL     1      -2.121  -0.517  24.923  0.00  0.00    -0.275 N 
ATOM     25  C   UNL     1      -1.635  -1.088  24.581  0.00  0.00    +0.094 C 
ATOM     26  C   UNL     1      -0.905  -0.989  24.210  0.00  0.00    +0.023 C 
ATOM     27  C   UNL     1      -0.481  -0.292  24.090  0.00  0.00    +0.022 C 
ATOM     28  C   UNL     1       0.229  -0.435  23.694  0.00  0.00    +0.093 C 
ENDROOT
BRANCH   8   7
ATOM      7  C   UNL     1       1.955   0.673  22.947  0.00  0.00    +0.112 C 
BRANCH   7   6
ATOM      3  C   UNL     1       4.404   0.313  22.928  0.00  0.00    +0.139 A 
ATOM      4  C   UNL     1       3.897  -0.311  23.115  0.00  0.00    +0.037 A 
ATOM      5  C   UNL     1       3.081  -0.190  23.121  0.00  0.00    -0.001 A 
ATOM      6  C   UNL     1       2.771   0.552  22.941  0.00  0.00    -0.013 A 
ATOM     29  C   UNL     1       3.278   1.176  22.754  0.00  0.00    -0.001 A 
ATOM     30  C   UNL     1       4.094   1.057  22.747  0.00  0.00    +0.037 A 
BRANCH   3   2
ATOM      1  C   UNL     1       5.617   0.018  23.622  0.00  0.00    +0.252 C 
ATOM      2  O   UNL     1       5.220   0.194  22.921  0.00  0.00    -0.471 OA
ENDBRANCH   3   2
ENDBRANCH   7   6
ENDBRANCH   8   7
BRANCH  17  18
ATOM     18  C   UNL     1      -2.824  -0.795  25.253  0.00  0.00    +0.122 C 
BRANCH  18  19
ATOM     19  C   UNL     1      -3.264  -1.371  24.859  0.00  0.00    +0.017 A 
ATOM     20  C   UNL     1      -3.801  -1.151  24.274  0.00  0.00    +0.001 A 
ATOM     21  C   UNL     1      -4.242  -1.726  23.879  0.00  0.00    +0.020 A 
ATOM     22  C   UNL     1      -4.145  -2.523  24.071  0.00  0.00    +0.099 A 
ATOM     23  N   UNL     1      -3.607  -2.744  24.657  0.00  0.00    -0.243 NA
ATOM     24  C   UNL     1      -3.167  -2.167  25.051  0.00  0.00    +0.096 A 
ENDBRANCH  18  19
ENDBRANCH  17  18
TORSDOF 5
ENDMDL
MODEL 4
REMARK VINA RESULT:      -8.5      1.450      2.179
REMARK  Name = 
REMARK  5 active torsions:
REMARK  status: ('A' for Active; 'I' for Inactive)
REMARK    1  A    between atoms: O_2  and  C_3
REMARK    2  A    between atoms: C_6  and  C_7
REMARK    3  A    between atoms: C_7  and  C_8
REMARK    4  A    between atoms: N_17  and  C_18
REMARK    5  A    between atoms: C_18  and  C_19
REMARK                            x       y       z     vdW  Elec       q    Type
REMARK                         _______ _______ _______ _____ _____    ______ ____
ROOT
ATOM      8  C   UNL     1       1.630   0.768  23.289  0.00  0.00    +0.230 C 
ATOM      9  O   UNL     1       1.979   1.500  23.441  0.00  0.00    -0.275 OA
ATOM     10  N   UNL     1       0.845   0.632  23.506  0.00  0.00    -0.279 N 
ATOM     11  C   UNL     1       0.497  -0.100  23.354  0.00  0.00    +0.093 C 
ATOM     12  C   UNL     1      -0.288  -0.237  23.570  0.00  0.00    +0.022 C 
ATOM     13  C   UNL     1      -0.724   0.360  23.938  0.00  0.00    +0.012 C 
ATOM     14  C   UNL     1      -1.492   0.110  24.107  0.00  0.00    +0.085 C 
ATOM     15  C   UNL     1      -2.101   0.532  24.469  0.00  0.00    +0.226 C 
ATOM     16  O   UNL     1      -2.813   0.125  24.561  0.00  0.00    -0.275 OA
ATOM     17  N   UNL     1      -2.093   1.307  24.752  0.00  0.00    -0.275 N 
ATOM     25  C   UNL     1      -1.473   1.851  24.743  0.00  0.00    +0.094 C 
ATOM     26  C   UNL     1      -0.709   1.756  24.448  0.00  0.00    +0.023 C 
ATOM     27  C   UNL     1      -0.375   1.092  24.090  0.00  0.00    +0.022 C 
ATOM     28  C   UNL     1       0.410   1.228  23.873  0.00  0.00    +0.093 C 
ENDROOT
BRANCH   8   7
ATOM      7  C   UNL     1       2.066   0.172  22.922  0.00  0.00    +0.112 C 
BRANCH   7   6
ATOM      3  C   UNL     1       4.539   0.218  22.998  0.00  0.00    +0.139 A 
ATOM      4  C   UNL     1       4.127   0.826  22.623  0.00  0.00    +0.037 A 
ATOM      5  C   UNL     1       3.303   0.810  22.597  0.00  0.00    -0.001 A 
ATOM      6  C   UNL     1       2.890   0.188  22.947  0.00  0.00    -0.013 A 
ATOM     29  C   UNL     1       3.303  -0.420  23.322  0.00  0.00    -0.001 A 
ATOM     30  C   UNL     1       4.127  -0.406  23.348  0.00  0.00    +0.037 A 
BRANCH   3   2
ATOM      1  C   UNL     1       5.756   0.135  23.743  0.00  0.00    +0.252 C 
ATOM      2  O   UNL     1       5.364   0.232  23.024  0.00  0.00    -0.471 OA
ENDBRANCH   3   2
ENDBRANCH   7   6
ENDBRANCH   8   7
BRANCH  17  18
ATOM     18  C   UNL     1      -2.797   1.573  25.090  0.00  0.00    +0.122 C 
BRANCH  18  19
ATOM     19  C   UNL     1      -3.122   2.293  24.852  0.00  0.00    +0.017 A 
ATOM     20  C   UNL     1      -3.600   2.328  24.180  0.00  0.00    +0.001 A 
ATOM     21  C   UNL     1      -3.925   3.047  23.941  0.00  0.00    +0.020 A 
ATOM     22  C   UNL     1      -3.772   3.733  24.375  0.00  0.00    +0.099 A 
ATOM     23  N   UNL     1      -3.294   3.698  25.047  0.00  0.00    -0.243 NA
ATOM     24  C   UNL     1      -2.970   2.978  25.285  0.00  0.00    +0.096 A 
ENDBRANCH  18  19
ENDBRANCH  17  18
TORSDOF 5
ENDMDL
MODEL 5
REMARK VINA RESULT:      -8.3      3.062      4.811
REMARK  Name = 
REMARK  5 active torsions:
REMARK  status: ('A' for Active; 'I' for Inactive)
REMARK    1  A    between atoms: O_2  and  C_3
REMARK    2  A    between atoms: C_6  and  C_7
REMARK    3  A    between atoms: C_7  and  C_8
REMARK    4  A    between atoms: N_17  and  C_18
REMARK    5  A    between atoms: C_18  and  C_19
REMARK                            x       y       z     vdW  Elec       q    Type
REMARK                         _______ _______ _______ _____ _____    ______ ____
ROOT
ATOM      8  C   UNL     1      -1.657   2.429  25.278  0.00  0.00    +0.230 C 
ATOM      9  O   UNL     1      -2.349   2.674  24.902  0.00  0.00    -0.275 OA
ATOM     10  N   UNL     1      -1.455   1.629  25.290  0.00  0.00    -0.279 N 
ATOM     11  C   UNL     1      -0.763   1.384  25.666  0.00  0.00    +0.093 C 
ATOM     12  C   UNL     1      -0.560   0.585  25.678  0.00  0.00    +0.022 C 
ATOM     13  C   UNL     1      -1.050   0.030  25.313  0.00  0.00    +0.012 C 
ATOM     14  C   UNL     1      -0.748  -0.735  25.389  0.00  0.00    +0.085 C 
ATOM     15  C   UNL     1      -1.064  -1.442  25.106  0.00  0.00    +0.226 C 
ATOM     16  O   UNL     1      -0.626  -2.121  25.273  0.00  0.00    -0.275 OA
ATOM     17  N   UNL     1      -1.759  -1.561  24.678  0.00  0.00    -0.275 N 
ATOM     25  C   UNL     1      -2.310  -1.001  24.427  0.00  0.00    +0.094 C 
ATOM     26  C   UNL     1      -2.303  -0.184  24.542  0.00  0.00    +0.023 C 
ATOM     27  C   UNL     1      -1.742   0.275  24.936  0.00  0.00    +0.022 C 
ATOM     28  C   UNL     1      -1.944   1.075  24.925  0.00  0.00    +0.093 C 
ENDROOT
BRANCH   8   7
ATOM      7  C   UNL     1      -1.168   2.984  25.643  0.00  0.00    +0.112 C 
BRANCH   7   6
ATOM      3  C   UNL     1      -1.331   5.376  25.028  0.00  0.00    +0.139 A 
ATOM      4  C   UNL     1      -1.907   5.034  25.510  0.00  0.00    +0.037 A 
ATOM      5  C   UNL     1      -1.853   4.236  25.715  0.00  0.00    -0.001 A 
ATOM      6  C   UNL     1      -1.223   3.781  25.438  0.00  0.00    -0.013 A 
ATOM     29  C   UNL     1      -0.647   4.123  24.957  0.00  0.00    -0.001 A 
ATOM     30  C   UNL     1      -0.700   4.920  24.752  0.00  0.00    +0.037 A 
BRANCH   3   2
ATOM      1  C   UNL     1      -2.122   6.514  24.681  0.00  0.00    +0.252 C 
ATOM      2  O   UNL     1      -1.385   6.173  24.823  0.00  0.00    -0.471 OA
ENDBRANCH   3   2
ENDBRANCH   7   6
ENDBRANCH   8   7
BRANCH  17  18
ATOM     18  C   UNL     1      -1.925  -2.343  24.474  0.00  0.00    +0.122 C 
BRANCH  18  19
ATOM     19  C   UNL     1      -2.707  -2.602  24.437  0.00  0.00    +0.017 A 
ATOM     20  C   UNL     1      -3.111  -2.592  23.718  0.00  0.00    +0.001 A 
ATOM     21  C   UNL     1      -3.893  -2.851  23.680  0.00  0.00    +0.020 A 
ATOM     22  C   UNL     1      -4.272  -3.120  24.362  0.00  0.00    +0.099 A 
ATOM     23  N   UNL     1      -3.868  -3.130  25.082  0.00  0.00    -0.243 NA
ATOM     24  C   UNL     1      -3.086  -2.871  25.118  0.00  0.00    +0.096 A 
ENDBRANCH  18  19
ENDBRANCH  17  18
TORSDOF 5
ENDMDL
MODEL 6
REMARK VINA RESULT:      -7.9     14.578     16.344
REMARK  Name = 
REMARK  5 active torsions:
REMARK  status: ('A' for Active; 'I' for Inactive)
REMARK    1  A    between atoms: O_2  and  C_3
REMARK    2  A    between atoms: C_6  and  C_7
REMARK    3  A    between atoms: C_7  and  C_8
REMARK    4  A    between atoms: N_17  and  C_18
REMARK    5  A    between atoms: C_18  and  C_19
REMARK                            x       y       z     vdW  Elec       q    Type
REMARK                         _______ _______ _______ _____ _____    ______ ____
ROOT
ATOM      8  C   UNL     1      -4.500 -10.634  15.690  0.00  0.00    +0.230 C 
ATOM      9  O   UNL     1      -5.305 -10.638  15.511  0.00  0.00    -0.275 OA
ATOM     10  N   UNL     1      -3.942 -10.650  15.082  0.00  0.00    -0.279 N 
ATOM     11  C   UNL     1      -3.137 -10.646  15.261  0.00  0.00    +0.093 C 
ATOM     12  C   UNL     1      -2.579 -10.662  14.654  0.00  0.00    +0.022 C 
ATOM     13  C   UNL     1      -2.826 -10.680  13.866  0.00  0.00    +0.012 C 
ATOM     14  C   UNL     1      -2.184 -10.693  13.349  0.00  0.00    +0.085 C 
ATOM     15  C   UNL     1      -2.189 -10.713  12.524  0.00  0.00    +0.226 C 
ATOM     16  O   UNL     1      -1.447 -10.723  12.163  0.00  0.00    -0.275 OA
ATOM     17  N   UNL     1      -2.836 -10.725  12.013  0.00  0.00    -0.275 N 
ATOM     25  C   UNL     1      -3.639 -10.719  12.201  0.00  0.00    +0.094 C 
ATOM     26  C   UNL     1      -3.993 -10.701  12.946  0.00  0.00    +0.023 C 
ATOM     27  C   UNL     1      -3.632 -10.683  13.687  0.00  0.00    +0.022 C 
ATOM     28  C   UNL     1      -4.189 -10.668  14.295  0.00  0.00    +0.093 C 
ENDROOT
BRANCH   8   7
ATOM      7  C   UNL     1      -4.253 -10.616  16.476  0.00  0.00    +0.112 C 
BRANCH   7   6
ATOM      3  C   UNL     1      -5.924 -10.500  18.298  0.00  0.00    +0.139 A 
ATOM      4  C   UNL     1      -5.149 -10.726  18.464  0.00  0.00    +0.037 A 
ATOM      5  C   UNL     1      -4.591 -10.764  17.856  0.00  0.00    -0.001 A 
ATOM      6  C   UNL     1      -4.810 -10.577  17.084  0.00  0.00    -0.013 A 
ATOM     29  C   UNL     1      -5.585 -10.352  16.917  0.00  0.00    -0.001 A 
ATOM     30  C   UNL     1      -6.143 -10.313  17.524  0.00  0.00    +0.037 A 
BRANCH   3   2
ATOM      1  C   UNL     1      -7.285 -10.395  18.724  0.00  0.00    +0.252 C 
ATOM      2  O   UNL     1      -6.482 -10.461  18.904  0.00  0.00    -0.471 OA
ENDBRANCH   3   2
ENDBRANCH   7   6
ENDBRANCH   8   7
BRANCH  17  18
ATOM     18  C   UNL     1      -2.657 -10.744  11.208  0.00  0.00    +0.122 C 
BRANCH  18  19
ATOM     19  C   UNL     1      -3.091 -10.284  10.678  0.00  0.00    +0.017 A 
ATOM     20  C   UNL     1      -2.907  -9.486  10.580  0.00  0.00    +0.001 A 
ATOM     21  C   UNL     1      -3.340  -9.025  10.050  0.00  0.00    +0.020 A 
ATOM     22  C   UNL     1      -3.958  -9.363   9.619  0.00  0.00    +0.099 A 
ATOM     23  N   UNL     1      -4.142 -10.161   9.718  0.00  0.00    -0.243 NA
ATOM     24  C   UNL     1      -3.708 -10.621  10.248  0.00  0.00    +0.096 A 
ENDBRANCH  18  19
ENDBRANCH  17  18
TORSDOF 5
ENDMDL
MODEL 7
REMARK VINA RESULT:      -7.8      3.170      4.721
REMARK  Name = 
REMARK  5 active torsions:
REMARK  status: ('A' for Active; 'I' for Inactive)
REMARK    1  A    between atoms: O_2  and  C_3
REMARK    2  A    between atoms: C_6  and  C_7
REMARK    3  A    between atoms: C_7  and  C_8
REMARK    4  A    between atoms: N_17  and  C_18
REMARK    5  A    between atoms: C_18  and  C_19
REMARK                            x       y       z     vdW  Elec       q    Type
REMARK                         _______ _______ _______ _____ _____    ______ ____
ROOT
ATOM      8  C   UNL     1      -2.092  -0.524  24.648  0.00  0.00    +0.230 C 
ATOM      9  O   UNL     1      -2.575  -0.389  23.993  0.00  0.00    -0.275 OA
ATOM     10  N   UNL     1      -1.643   0.092  24.964  0.00  0.00    -0.279 N 
ATOM     11  C   UNL     1      -1.161  -0.043  25.619  0.00  0.00    +0.093 C 
ATOM     12  C   UNL     1      -0.712   0.572  25.935  0.00  0.00    +0.022 C 
ATOM     13  C   UNL     1      -0.746   1.324  25.596  0.00  0.00    +0.012 C 
ATOM     14  C   UNL     1      -0.257   1.856  25.995  0.00  0.00    +0.085 C 
ATOM     15  C   UNL     1      -0.132   2.656  25.836  0.00  0.00    +0.226 C 
ATOM     16  O   UNL     1       0.395   3.042  26.339  0.00  0.00    -0.275 OA
ATOM     17  N   UNL     1      -0.463   3.121  25.240  0.00  0.00    -0.275 N 
ATOM     25  C   UNL     1      -1.001   2.900  24.656  0.00  0.00    +0.094 C 
ATOM     26  C   UNL     1      -1.342   2.161  24.523  0.00  0.00    +0.023 C 
ATOM     27  C   UNL     1      -1.229   1.459  24.941  0.00  0.00    +0.022 C 
ATOM     28  C   UNL     1      -1.677   0.843  24.625  0.00  0.00    +0.093 C 
ENDROOT
BRANCH   8   7
ATOM      7  C   UNL     1      -2.058  -1.275  24.987  0.00  0.00    +0.112 C 
BRANCH   7   6
ATOM      3  C   UNL     1      -3.659  -3.027  24.282  0.00  0.00    +0.139 A 
ATOM      4  C   UNL     1      -3.920  -2.386  24.732  0.00  0.00    +0.037 A 
ATOM      5  C   UNL     1      -3.386  -1.803  24.967  0.00  0.00    -0.001 A 
ATOM      6  C   UNL     1      -2.592  -1.859  24.752  0.00  0.00    -0.013 A 
ATOM     29  C   UNL     1      -2.331  -2.499  24.302  0.00  0.00    -0.001 A 
ATOM     30  C   UNL     1      -2.864  -3.083  24.067  0.00  0.00    +0.037 A 
BRANCH   3   2
ATOM      1  C   UNL     1      -4.700  -3.475  23.412  0.00  0.00    +0.252 C 
ATOM      2  O   UNL     1      -4.192  -3.611  24.047  0.00  0.00    -0.471 OA
ENDBRANCH   3   2
ENDBRANCH   7   6
ENDBRANCH   8   7
BRANCH  17  18
ATOM     18  C   UNL     1      -0.223   3.910  25.227  0.00  0.00    +0.122 C 
BRANCH  18  19
ATOM     19  C   UNL     1      -0.785   4.510  25.156  0.00  0.00    +0.017 A 
ATOM     20  C   UNL     1      -0.668   5.123  24.616  0.00  0.00    +0.001 A 
ATOM     21  C   UNL     1      -1.229   5.723  24.544  0.00  0.00    +0.020 A 
ATOM     22  C   UNL     1      -1.909   5.710  25.012  0.00  0.00    +0.099 A 
ATOM     23  N   UNL     1      -2.026   5.097  25.552  0.00  0.00    -0.243 NA
ATOM     24  C   UNL     1      -1.464   4.497  25.623  0.00  0.00    +0.096 A 
ENDBRANCH  18  19
ENDBRANCH  17  18
TORSDOF 5
ENDMDL
MODEL 8
REMARK VINA RESULT:      -7.3     14.015     14.802
REMARK  Name = 
REMARK  5 active torsions:
REMARK  status: ('A' for Active; 'I' for Inactive)
REMARK    1  A    between atoms: O_2  and  C_3
REMARK    2  A    between atoms: C_6  and  C_7
REMARK    3  A    between atoms: C_7  and  C_8
REMARK    4  A    between atoms: N_17  and  C_18
REMARK    5  A    between atoms: C_18  and  C_19
REMARK                            x       y       z     vdW  Elec       q    Type
REMARK                         _______ _______ _______ _____ _____    ______ ____
ROOT
ATOM      8  C   UNL     1      -4.240 -10.437  14.040  0.00  0.00    +0.230 C 
ATOM      9  O   UNL     1      -4.744 -10.112  13.473  0.00  0.00    -0.275 OA
ATOM     10  N   UNL     1      -4.465 -10.446  14.834  0.00  0.00    -0.279 N 
ATOM     11  C   UNL     1      -3.962 -10.771  15.401  0.00  0.00    +0.093 C 
ATOM     12  C   UNL     1      -4.185 -10.781  16.195  0.00  0.00    +0.022 C 
ATOM     13  C   UNL     1      -4.914 -10.466  16.422  0.00  0.00    +0.012 C 
ATOM     14  C   UNL     1      -5.030 -10.531  17.237  0.00  0.00    +0.085 C 
ATOM     15  C   UNL     1      -5.678 -10.287  17.685  0.00  0.00    +0.226 C 
ATOM     16  O   UNL     1      -5.626 -10.431  18.495  0.00  0.00    -0.275 OA
ATOM     17  N   UNL     1      -6.370  -9.918  17.430  0.00  0.00    -0.275 N 
ATOM     25  C   UNL     1      -6.585  -9.702  16.663  0.00  0.00    +0.094 C 
ATOM     26  C   UNL     1      -6.161  -9.801  15.963  0.00  0.00    +0.023 C 
ATOM     27  C   UNL     1      -5.418 -10.141  15.855  0.00  0.00    +0.022 C 
ATOM     28  C   UNL     1      -5.193 -10.131  15.061  0.00  0.00    +0.093 C 
ENDROOT
BRANCH   8   7
ATOM      7  C   UNL     1      -3.513 -10.751  13.814  0.00  0.00    +0.112 C 
BRANCH   7   6
ATOM      3  C   UNL     1      -2.565 -10.205  11.593  0.00  0.00    +0.139 A 
ATOM      4  C   UNL     1      -2.090 -10.162  12.266  0.00  0.00    +0.037 A 
ATOM      5  C   UNL     1      -2.406 -10.344  13.006  0.00  0.00    -0.001 A 
ATOM      6  C   UNL     1      -3.196 -10.569  13.074  0.00  0.00    -0.013 A 
ATOM     29  C   UNL     1      -3.671 -10.613  12.400  0.00  0.00    -0.001 A 
ATOM     30  C   UNL     1      -3.356 -10.431  11.660  0.00  0.00    +0.037 A 
BRANCH   3   2
ATOM      1  C   UNL     1      -2.512  -9.356  10.445  0.00  0.00    +0.252 C 
ATOM      2  O   UNL     1      -2.250 -10.023  10.853  0.00  0.00    -0.471 OA
ENDBRANCH   3   2
ENDBRANCH   7   6
ENDBRANCH   8   7
BRANCH  17  18
ATOM     18  C   UNL     1      -6.920  -9.741  18.019  0.00  0.00    +0.122 C 
BRANCH  18  19
ATOM     19  C   UNL     1      -7.726  -9.837  17.872  0.00  0.00    +0.017 A 
ATOM     20  C   UNL     1      -8.161  -9.218  17.544  0.00  0.00    +0.001 A 
ATOM     21  C   UNL     1      -8.967  -9.312  17.397  0.00  0.00    +0.020 A 
ATOM     22  C   UNL     1      -9.338 -10.027  17.578  0.00  0.00    +0.099 A 
ATOM     23  N   UNL     1      -8.903 -10.646  17.905  0.00  0.00    -0.243 NA
ATOM     24  C   UNL     1      -8.097 -10.551  18.052  0.00  0.00    +0.096 A 
ENDBRANCH  18  19
ENDBRANCH  17  18
TORSDOF 5
ENDMDL
MODEL 9
REMARK VINA RESULT:      -7.3      1.972      6.655
REMARK  Name = 
REMARK  5 active torsions:
REMARK  status: ('A' for Active; 'I' for Inactive)
REMARK    1  A    between atoms: O_2  and  C_3
REMARK    2  A    between atoms: C_6  and  C_7
REMARK    3  A    between atoms: C_7  and  C_8
REMARK    4  A    between atoms: N_17  and  C_18
REMARK    5  A    between atoms: C_18  and  C_19
REMARK                            x       y       z     vdW  Elec       q    Type
REMARK                         _______ _______ _______ _____ _____    ______ ____
ROOT
ATOM      8  C   UNL     1      -0.941   1.951  24.837  0.00  0.00    +0.230 C 
ATOM      9  O   UNL     1      -0.628   2.673  25.086  0.00  0.00    -0.275 OA
ATOM     10  N   UNL     1      -0.482   1.439  24.381  0.00  0.00    -0.279 N 
ATOM     11  C   UNL     1      -0.795   0.717  24.132  0.00  0.00    +0.093 C 
ATOM     12  C   UNL     1      -0.337   0.204  23.677  0.00  0.00    +0.022 C 
ATOM     13  C   UNL     1       0.434   0.413  23.470  0.00  0.00    +0.012 C 
ATOM     14  C   UNL     1       0.794  -0.175  23.016  0.00  0.00    +0.085 C 
ATOM     15  C   UNL     1       1.556  -0.185  22.699  0.00  0.00    +0.226 C 
ATOM     16  O   UNL     1       1.753  -0.859  22.266  0.00  0.00    -0.275 OA
ATOM     17  N   UNL     1       2.145   0.389  22.757  0.00  0.00    -0.275 N 
ATOM     25  C   UNL     1       2.119   1.115  23.147  0.00  0.00    +0.094 C 
ATOM     26  C   UNL     1       1.497   1.447  23.575  0.00  0.00    +0.023 C 
ATOM     27  C   UNL     1       0.747   1.135  23.719  0.00  0.00    +0.022 C 
ATOM     28  C   UNL     1       0.288   1.647  24.175  0.00  0.00    +0.093 C 
ENDROOT
BRANCH   8   7
ATOM      7  C   UNL     1      -1.711   1.743  25.043  0.00  0.00    +0.112 C 
BRANCH   7   6
ATOM      3  C   UNL     1      -3.475   3.476  25.165  0.00  0.00    +0.139 A 
ATOM      4  C   UNL     1      -2.890   3.441  25.746  0.00  0.00    +0.037 A 
ATOM      5  C   UNL     1      -2.302   2.864  25.705  0.00  0.00    -0.001 A 
ATOM      6  C   UNL     1      -2.299   2.321  25.084  0.00  0.00    -0.013 A 
ATOM     29  C   UNL     1      -2.884   2.355  24.504  0.00  0.00    -0.001 A 
ATOM     30  C   UNL     1      -3.472   2.932  24.543  0.00  0.00    +0.037 A 
BRANCH   3   2
ATOM      1  C   UNL     1      -4.833   3.844  25.413  0.00  0.00    +0.252 C 
ATOM      2  O   UNL     1      -4.063   4.053  25.205  0.00  0.00    -0.471 OA
ENDBRANCH   3   2
ENDBRANCH   7   6
ENDBRANCH   8   7
BRANCH  17  18
ATOM     18  C   UNL     1       2.855   0.213  22.375  0.00  0.00    +0.122 C 
BRANCH  18  19
ATOM     19  C   UNL     1       3.570   0.288  22.780  0.00  0.00    +0.017 A 
ATOM     20  C   UNL     1       3.896  -0.365  23.164  0.00  0.00    +0.001 A 
ATOM     21  C   UNL     1       4.611  -0.292  23.569  0.00  0.00    +0.020 A 
ATOM     22  C   UNL     1       5.000   0.436  23.589  0.00  0.00    +0.099 A 
ATOM     23  N   UNL     1       4.675   1.089  23.205  0.00  0.00    -0.243 NA
ATOM     24  C   UNL     1       3.959   1.014  22.800  0.00  0.00    +0.096 A 
ENDBRANCH  18  19
ENDBRANCH  17  18
TORSDOF 5
ENDMDL
MODEL 10
REMARK VINA RESULT:      -7.3      1.526      6.215
REMARK  Name = 
REMARK  5 active torsions:
REMARK  status: ('A' for Active; 'I' for Inactive)
REMARK    1  A    between atoms: O_2  and  C_3
REMARK    2  A    between atoms: C_6  and  C_7
REMARK    3  A    between atoms: C_7  and  C_8
REMARK    4  A    between atoms: N_17  and  C_18
REMARK    5  A    between atoms: C_18  and  C_19
REMARK                            x       y       z     vdW  Elec       q    Type
REMARK                         _______ _______ _______ _____ _____    ______ ____
ROOT
ATOM      8  C   UNL     1      -3.555   1.595  24.349  0.00  0.00    +0.230 C 
ATOM      9  O   UNL     1      -3.394   2.292  23.939  0.00  0.00    -0.275 OA
ATOM     10  N   UNL     1      -2.965   1.024  24.438  0.00  0.00    -0.279 N 
ATOM     11  C   UNL     1      -3.125   0.327  24.848  0.00  0.00    +0.093 C 
ATOM     12  C   UNL     1      -2.537  -0.244  24.937  0.00  0.00    +0.022 C 
ATOM     13  C   UNL     1      -1.787  -0.118  24.615  0.00  0.00    +0.012 C 
ATOM     14  C   UNL     1      -1.283  -0.754  24.767  0.00  0.00    +0.085 C 
ATOM     15  C   UNL     1      -0.495  -0.848  24.544  0.00  0.00    +0.226 C 
ATOM     16  O   UNL     1      -0.139  -1.553  24.781  0.00  0.00    -0.275 OA
ATOM     17  N   UNL     1      -0.015  -0.331  24.116  0.00  0.00    -0.275 N 
ATOM     25  C   UNL     1      -0.206   0.408  23.805  0.00  0.00    +0.094 C 
ATOM     26  C   UNL     1      -0.923   0.814  23.844  0.00  0.00    +0.023 C 
ATOM     27  C   UNL     1      -1.627   0.580  24.205  0.00  0.00    +0.022 C 
ATOM     28  C   UNL     1      -2.217   1.151  24.117  0.00  0.00    +0.093 C 
ENDROOT
BRANCH   8   7
ATOM      7  C   UNL     1      -4.303   1.469  24.671  0.00  0.00    +0.112 C 
BRANCH   7   6
ATOM      3  C   UNL     1      -5.592   3.370  25.594  0.00  0.00    +0.139 A 
ATOM      4  C   UNL     1      -5.982   2.679  25.365  0.00  0.00    +0.037 A 
ATOM      5  C   UNL     1      -5.552   2.046  25.057  0.00  0.00    -0.001 A 
ATOM      6  C   UNL     1      -4.733   2.102  24.978  0.00  0.00    -0.013 A 
ATOM     29  C   UNL     1      -4.343   2.792  25.207  0.00  0.00    -0.001 A 
ATOM     30  C   UNL     1      -4.772   3.426  25.515  0.00  0.00    +0.037 A 
BRANCH   3   2
ATOM      1  C   UNL     1      -5.978   4.745  25.541  0.00  0.00    +0.252 C 
ATOM      2  O   UNL     1      -6.021   4.004  25.901  0.00  0.00    -0.471 OA
ENDBRANCH   3   2
ENDBRANCH   7   6
ENDBRANCH   8   7
BRANCH  17  18
ATOM     18  C   UNL     1       0.757  -0.588  23.982  0.00  0.00    +0.122 C 
BRANCH  18  19
ATOM     19  C   UNL     1       1.156  -0.353  23.298  0.00  0.00    +0.017 A 
ATOM     20  C   UNL     1       0.952  -0.680  22.569  0.00  0.00    +0.001 A 
ATOM     21  C   UNL     1       1.350  -0.447  21.886  0.00  0.00    +0.020 A 
ATOM     22  C   UNL     1       1.953   0.115  21.932  0.00  0.00    +0.099 A 
ATOM     23  N   UNL     1       2.158   0.442  22.661  0.00  0.00    -0.243 NA
ATOM     24  C   UNL     1       1.759   0.207  23.344  0.00  0.00    +0.096 A 
ENDBRANCH  18  19
ENDBRANCH  17  18
TORSDOF 5
ENDMDL
