MODEL 1
REMARK VINA RESULT:     -13.0      0.000      0.000
REMARK  Name = 
REMARK  7 active torsions:
REMARK  status: ('A' for Active; 'I' for Inactive)
REMARK    1  A    between atoms: C_2  and  C_3
REMARK    2  A    between atoms: C_11  and  C_12
REMARK    3  A    between atoms: C_12  and  C_13
REMARK    4  A    between atoms: N_15  and  C_16
REMARK    5  A    between atoms: C_16  and  C_17
REMARK    6  A    between atoms: C_17  and  N_18
REMARK    7  A    between atoms: C_31  and  C_33
REMARK                            x       y       z     vdW  Elec       q    Type
REMARK                         _______ _______ _______ _____ _____    ______ ____
ROOT
ATOM      1  C   UNL     1      -2.695   4.864  25.382  0.00  0.00    +0.005 C 
ATOM      2  C   UNL     1      -2.360   4.117  25.282  0.00  0.00    +0.059 C 
ATOM      5  C   UNL     1      -1.677   4.573  25.348  0.00  0.00    +0.154 C 
ATOM      6  O   UNL     1      -1.733   5.389  25.459  0.00  0.00    -0.223 OA
ATOM      7  C   UNL     1      -0.934   4.213  25.303  0.00  0.00    +0.033 C 
ATOM      8  C   UNL     1      -0.878   3.399  25.192  0.00  0.00    +0.003 C 
ATOM      9  C   UNL     1      -1.561   2.942  25.126  0.00  0.00    +0.006 C 
ATOM     10  C   UNL     1      -0.821   2.584  25.081  0.00  0.00    +0.000 C 
ATOM     11  C   UNL     1      -1.505   2.127  25.016  0.00  0.00    +0.050 C 
ATOM     24  C   UNL     1      -2.188   1.671  24.950  0.00  0.00    +0.063 A 
ATOM     25  C   UNL     1      -2.930   2.030  24.995  0.00  0.00    +0.023 A 
ATOM     26  C   UNL     1      -2.987   2.845  25.106  0.00  0.00    +0.034 C 
ATOM     27  C   UNL     1      -2.303   3.302  25.171  0.00  0.00    +0.010 C 
ATOM     28  S   UNL     1      -3.503   1.442  24.912  0.00  0.00    -0.054 S 
ATOM     29  C   UNL     1      -3.117   0.720  24.815  0.00  0.00    +0.185 A 
ATOM     30  N   UNL     1      -3.479  -0.014  24.713  0.00  0.00    -0.150 NA
ATOM     31  C   UNL     1      -3.018  -0.692  24.623  0.00  0.00    +0.275 C 
ATOM     32  O   UNL     1      -2.195  -0.636  24.635  0.00  0.00    -0.268 OA
ATOM     41  N   UNL     1      -2.304   0.861  24.839  0.00  0.00    -0.227 NA
ENDROOT
BRANCH  31  33
ATOM     33  C   UNL     1      -3.380  -1.426  24.521  0.00  0.00    +0.110 A 
ATOM     34  C   UNL     1      -3.797  -1.588  23.827  0.00  0.00    +0.147 A 
ATOM     35  F   UNL     1      -3.851  -1.015  23.236  0.00  0.00    -0.204 F 
ATOM     36  C   UNL     1      -4.159  -2.322  23.725  0.00  0.00    +0.030 A 
ATOM     37  C   UNL     1      -4.104  -2.894  24.317  0.00  0.00    +0.005 A 
ATOM     38  C   UNL     1      -3.688  -2.733  25.010  0.00  0.00    +0.030 A 
ATOM     39  C   UNL     1      -3.326  -1.999  25.112  0.00  0.00    +0.147 A 
ATOM     40  F   UNL     1      -2.909  -1.837  25.806  0.00  0.00    -0.204 F 
ENDBRANCH  31  33
BRANCH   2   3
ATOM      3  C   UNL     1      -3.161   3.921  25.251  0.00  0.00    +0.184 C 
ATOM      4  O   UNL     1      -3.734   4.506  25.352  0.00  0.00    -0.220 OA
ENDBRANCH   2   3
BRANCH  11  12
ATOM     12  C   UNL     1      -0.763   1.767  24.971  0.00  0.00    +0.093 C 
BRANCH  12  13
ATOM     13  C   UNL     1      -0.465   1.526  24.239  0.00  0.00    +0.242 C 
ATOM     14  O   UNL     1      -0.785   1.831  23.543  0.00  0.00    -0.273 OA
ATOM     15  N   UNL     1       0.152   0.981  24.206  0.00  0.00    -0.204 NA
BRANCH  15  16
ATOM     16  C   UNL     1       0.450   0.740  23.475  0.00  0.00    +0.132 C 
BRANCH  16  17
ATOM     17  C   UNL     1       0.937   0.076  23.427  0.00  0.00    +0.096 C 
BRANCH  17  18
ATOM     18  N   UNL     1       1.533   0.042  22.859  0.00  0.00    -0.267 NA
ATOM     19  C   UNL     1       2.282   0.347  23.026  0.00  0.00    +0.105 C 
ATOM     20  C   UNL     1       2.879   0.313  22.457  0.00  0.00    +0.159 C 
ATOM     21  O   UNL     1       2.727  -0.025  21.720  0.00  0.00    -0.351 OA
ATOM     22  C   UNL     1       1.978  -0.330  21.552  0.00  0.00    +0.159 C 
ATOM     23  C   UNL     1       1.382  -0.296  22.122  0.00  0.00    +0.105 C 
ENDBRANCH  17  18
ENDBRANCH  16  17
ENDBRANCH  15  16
ENDBRANCH  12  13
ENDBRANCH  11  12
TORSDOF 7
ENDMDL
MODEL 2
REMARK VINA RESULT:     -12.0      2.334      5.031
REMARK  Name = 
REMARK  7 active torsions:
REMARK  status: ('A' for Active; 'I' for Inactive)
REMARK    1  A    between atoms: C_2  and  C_3
REMARK    2  A    between atoms: C_11  and  C_12
REMARK    3  A    between atoms: C_12  and  C_13
REMARK    4  A    between atoms: N_15  and  C_16
REMARK    5  A    between atoms: C_16  and  C_17
REMARK    6  A    between atoms: C_17  and  N_18
REMARK    7  A    between atoms: C_31  and  C_33
REMARK                            x       y       z     vdW  Elec       q    Type
REMARK                         _______ _______ _______ _____ _____    ______ ____
ROOT
ATOM      1  C   UNL     1      -3.752  -3.114  23.930  0.00  0.00    +0.005 C 
ATOM      2  C   UNL     1      -3.492  -2.400  24.252  0.00  0.00    +0.059 C 
ATOM      5  C   UNL     1      -2.833  -2.873  24.400  0.00  0.00    +0.154 C 
ATOM      6  O   UNL     1      -2.832  -3.665  24.169  0.00  0.00    -0.223 OA
ATOM      7  C   UNL     1      -2.173  -2.554  24.780  0.00  0.00    +0.033 C 
ATOM      8  C   UNL     1      -2.173  -1.762  25.012  0.00  0.00    +0.003 C 
ATOM      9  C   UNL     1      -2.832  -1.290  24.863  0.00  0.00    +0.006 C 
ATOM     10  C   UNL     1      -2.174  -0.971  25.243  0.00  0.00    +0.000 C 
ATOM     11  C   UNL     1      -2.833  -0.497  25.095  0.00  0.00    +0.050 C 
ATOM     24  C   UNL     1      -3.492  -0.025  24.946  0.00  0.00    +0.063 A 
ATOM     25  C   UNL     1      -4.152  -0.344  24.566  0.00  0.00    +0.023 A 
ATOM     26  C   UNL     1      -4.152  -1.135  24.335  0.00  0.00    +0.034 C 
ATOM     27  C   UNL     1      -3.492  -1.609  24.483  0.00  0.00    +0.010 C 
ATOM     28  S   UNL     1      -4.717   0.252  24.495  0.00  0.00    -0.054 S 
ATOM     29  C   UNL     1      -4.408   0.940  24.830  0.00  0.00    +0.185 A 
ATOM     30  N   UNL     1      -4.789   1.670  24.878  0.00  0.00    -0.150 NA
ATOM     31  C   UNL     1      -4.409   2.311  25.231  0.00  0.00    +0.275 C 
ATOM     32  O   UNL     1      -3.647   2.222  25.536  0.00  0.00    -0.268 OA
ATOM     41  N   UNL     1      -3.651   0.768  25.109  0.00  0.00    -0.227 NA
ENDROOT
BRANCH  31  33
ATOM     33  C   UNL     1      -4.790   3.041  25.278  0.00  0.00    +0.110 A 
ATOM     34  C   UNL     1      -4.542   3.668  24.802  0.00  0.00    +0.147 A 
ATOM     35  F   UNL     1      -3.913   3.564  24.279  0.00  0.00    -0.204 F 
ATOM     36  C   UNL     1      -4.922   4.398  24.850  0.00  0.00    +0.030 A 
ATOM     37  C   UNL     1      -5.551   4.501  25.374  0.00  0.00    +0.005 A 
ATOM     38  C   UNL     1      -5.799   3.875  25.850  0.00  0.00    +0.030 A 
ATOM     39  C   UNL     1      -5.418   3.145  25.802  0.00  0.00    +0.147 A 
ATOM     40  F   UNL     1      -5.666   2.518  26.278  0.00  0.00    -0.204 F 
ENDBRANCH  31  33
BRANCH   2   3
ATOM      3  C   UNL     1      -4.242  -2.176  23.992  0.00  0.00    +0.184 C 
ATOM      4  O   UNL     1      -4.712  -2.711  23.576  0.00  0.00    -0.220 OA
ENDBRANCH   2   3
BRANCH  11  12
ATOM     12  C   UNL     1      -2.174  -0.179  25.474  0.00  0.00    +0.093 C 
BRANCH  12  13
ATOM     13  C   UNL     1      -1.668   0.330  25.066  0.00  0.00    +0.242 C 
ATOM     14  O   UNL     1      -1.582   0.257  24.249  0.00  0.00    -0.273 OA
ATOM     15  N   UNL     1      -1.249   0.910  25.474  0.00  0.00    -0.204 NA
BRANCH  15  16
ATOM     16  C   UNL     1      -0.743   1.419  25.066  0.00  0.00    +0.132 C 
BRANCH  16  17
ATOM     17  C   UNL     1      -0.374   2.040  25.464  0.00  0.00    +0.096 C 
BRANCH  17  18
ATOM     18  N   UNL     1      -0.426   2.808  25.167  0.00  0.00    -0.267 NA
ATOM     19  C   UNL     1      -0.735   3.412  25.636  0.00  0.00    +0.105 C 
ATOM     20  C   UNL     1      -0.787   4.181  25.339  0.00  0.00    +0.159 C 
ATOM     21  O   UNL     1      -0.530   4.345  24.573  0.00  0.00    -0.351 OA
ATOM     22  C   UNL     1      -0.220   3.740  24.103  0.00  0.00    +0.159 C 
ATOM     23  C   UNL     1      -0.169   2.972  24.400  0.00  0.00    +0.105 C 
ENDBRANCH  17  18
ENDBRANCH  16  17
ENDBRANCH  15  16
ENDBRANCH  12  13
ENDBRANCH  11  12
TORSDOF 7
ENDMDL
MODEL 3
REMARK VINA RESULT:     -11.9      2.535      6.210
REMARK  Name = 
REMARK  7 active torsions:
REMARK  status: ('A' for Active; 'I' for Inactive)
REMARK    1  A    between atoms: C_2  and  C_3
REMARK    2  A    between atoms: C_11  and  C_12
REMARK    3  A    between atoms: C_12  and  C_13
REMARK    4  A    between atoms: N_15  and  C_16
REMARK    5  A    between atoms: C_16  and  C_17
REMARK    6  A    between atoms: C_17  and  N_18
REMARK    7  A    between atoms: C_31  and  C_33
REMARK                            x       y       z     vdW  Elec       q    Type
REMARK                         _______ _______ _______ _____ _____    ______ ____
ROOT
ATOM      1  C   UNL     1      -2.233  -3.136  24.629  0.00  0.00    +0.005 C 
ATOM      2  C   UNL     1      -2.540  -2.376  24.540  0.00  0.00    +0.059 C 
ATOM      5  C   UNL     1      -3.209  -2.822  24.357  0.00  0.00    +0.154 C 
ATOM      6  O   UNL     1      -3.172  -3.646  24.372  0.00  0.00    -0.223 OA
ATOM      7  C   UNL     1      -3.916  -2.444  24.159  0.00  0.00    +0.033 C 
ATOM      8  C   UNL     1      -3.953  -1.620  24.144  0.00  0.00    +0.003 C 
ATOM      9  C   UNL     1      -3.284  -1.174  24.327  0.00  0.00    +0.006 C 
ATOM     10  C   UNL     1      -3.990  -0.797  24.129  0.00  0.00    +0.000 C 
ATOM     11  C   UNL     1      -3.320  -0.350  24.312  0.00  0.00    +0.050 C 
ATOM     24  C   UNL     1      -2.652   0.096  24.495  0.00  0.00    +0.063 A 
ATOM     25  C   UNL     1      -1.945  -0.282  24.693  0.00  0.00    +0.023 A 
ATOM     26  C   UNL     1      -1.908  -1.105  24.708  0.00  0.00    +0.034 C 
ATOM     27  C   UNL     1      -2.577  -1.552  24.525  0.00  0.00    +0.010 C 
ATOM     28  S   UNL     1      -1.380   0.300  24.846  0.00  0.00    -0.054 S 
ATOM     29  C   UNL     1      -1.736   1.037  24.743  0.00  0.00    +0.185 A 
ATOM     30  N   UNL     1      -1.372   1.770  24.840  0.00  0.00    -0.150 NA
ATOM     31  C   UNL     1      -1.801   2.463  24.718  0.00  0.00    +0.275 C 
ATOM     32  O   UNL     1      -2.595   2.424  24.498  0.00  0.00    -0.268 OA
ATOM     41  N   UNL     1      -2.522   0.911  24.526  0.00  0.00    -0.227 NA
ENDROOT
BRANCH  31  33
ATOM     33  C   UNL     1      -1.436   3.197  24.814  0.00  0.00    +0.110 A 
ATOM     34  C   UNL     1      -0.887   3.462  24.257  0.00  0.00    +0.147 A 
ATOM     35  F   UNL     1      -0.704   2.993  23.604  0.00  0.00    -0.204 F 
ATOM     36  C   UNL     1      -0.522   4.195  24.354  0.00  0.00    +0.030 A 
ATOM     37  C   UNL     1      -0.706   4.664  25.008  0.00  0.00    +0.005 A 
ATOM     38  C   UNL     1      -1.253   4.399  25.565  0.00  0.00    +0.030 A 
ATOM     39  C   UNL     1      -1.618   3.666  25.468  0.00  0.00    +0.147 A 
ATOM     40  F   UNL     1      -2.167   3.401  26.025  0.00  0.00    -0.204 F 
ENDBRANCH  31  33
BRANCH   2   3
ATOM      3  C   UNL     1      -1.764  -2.194  24.754  0.00  0.00    +0.184 C 
ATOM      4  O   UNL     1      -1.227  -2.800  24.911  0.00  0.00    -0.220 OA
ENDBRANCH   2   3
BRANCH  11  12
ATOM     12  C   UNL     1      -4.027   0.028  24.114  0.00  0.00    +0.093 C 
BRANCH  12  13
ATOM     13  C   UNL     1      -4.483   0.385  24.703  0.00  0.00    +0.242 C 
ATOM     14  O   UNL     1      -4.454   0.100  25.476  0.00  0.00    -0.273 OA
ATOM     15  N   UNL     1      -4.966   1.027  24.517  0.00  0.00    -0.204 NA
BRANCH  15  16
ATOM     16  C   UNL     1      -5.421   1.384  25.104  0.00  0.00    +0.132 C 
BRANCH  16  17
ATOM     17  C   UNL     1      -5.852   2.067  24.934  0.00  0.00    +0.096 C 
BRANCH  17  18
ATOM     18  N   UNL     1      -5.674   2.773  25.321  0.00  0.00    -0.267 NA
ATOM     19  C   UNL     1      -5.508   3.453  24.885  0.00  0.00    +0.105 C 
ATOM     20  C   UNL     1      -5.330   4.160  25.272  0.00  0.00    +0.159 C 
ATOM     21  O   UNL     1      -5.319   4.187  26.097  0.00  0.00    -0.351 OA
ATOM     22  C   UNL     1      -5.485   3.507  26.534  0.00  0.00    +0.159 C 
ATOM     23  C   UNL     1      -5.663   2.800  26.146  0.00  0.00    +0.105 C 
ENDBRANCH  17  18
ENDBRANCH  16  17
ENDBRANCH  15  16
ENDBRANCH  12  13
ENDBRANCH  11  12
TORSDOF 7
ENDMDL
MODEL 4
REMARK VINA RESULT:     -11.7      1.507      2.145
REMARK  Name = 
REMARK  7 active torsions:
REMARK  status: ('A' for Active; 'I' for Inactive)
REMARK    1  A    between atoms: C_2  and  C_3
REMARK    2  A    between atoms: C_11  and  C_12
REMARK    3  A    between atoms: C_12  and  C_13
REMARK    4  A    between atoms: N_15  and  C_16
REMARK    5  A    between atoms: C_16  and  C_17
REMARK    6  A    between atoms: C_17  and  N_18
REMARK    7  A    between atoms: C_31  and  C_33
REMARK                            x       y       z     vdW  Elec       q    Type
REMARK                         _______ _______ _______ _____ _____    ______ ____
ROOT
ATOM      1  C   UNL     1      -5.670   4.024  25.730  0.00  0.00    +0.005 C 
ATOM      2  C   UNL     1      -5.146   3.518  25.344  0.00  0.00    +0.059 C 
ATOM      5  C   UNL     1      -4.848   4.246  25.099  0.00  0.00    +0.154 C 
ATOM      6  O   UNL     1      -5.205   4.945  25.353  0.00  0.00    -0.223 OA
ATOM      7  C   UNL     1      -4.191   4.277  24.599  0.00  0.00    +0.033 C 
ATOM      8  C   UNL     1      -3.833   3.579  24.345  0.00  0.00    +0.003 C 
ATOM      9  C   UNL     1      -4.131   2.850  24.590  0.00  0.00    +0.006 C 
ATOM     10  C   UNL     1      -3.476   2.881  24.092  0.00  0.00    +0.000 C 
ATOM     11  C   UNL     1      -3.774   2.151  24.336  0.00  0.00    +0.050 C 
ATOM     24  C   UNL     1      -4.072   1.422  24.581  0.00  0.00    +0.063 A 
ATOM     25  C   UNL     1      -4.729   1.392  25.081  0.00  0.00    +0.023 A 
ATOM     26  C   UNL     1      -5.086   2.090  25.335  0.00  0.00    +0.034 C 
ATOM     27  C   UNL     1      -4.788   2.820  25.090  0.00  0.00    +0.010 C 
ATOM     28  S   UNL     1      -4.898   0.598  25.230  0.00  0.00    -0.054 S 
ATOM     29  C   UNL     1      -4.347   0.138  24.823  0.00  0.00    +0.185 A 
ATOM     30  N   UNL     1      -4.313  -0.686  24.818  0.00  0.00    -0.150 NA
ATOM     31  C   UNL     1      -3.728  -1.071  24.383  0.00  0.00    +0.275 C 
ATOM     32  O   UNL     1      -3.176  -0.633  23.953  0.00  0.00    -0.268 OA
ATOM     41  N   UNL     1      -3.837   0.648  24.423  0.00  0.00    -0.227 NA
ENDROOT
BRANCH  31  33
ATOM     33  C   UNL     1      -3.693  -1.895  24.378  0.00  0.00    +0.110 A 
ATOM     34  C   UNL     1      -4.124  -2.323  23.818  0.00  0.00    +0.147 A 
ATOM     35  F   UNL     1      -4.589  -1.926  23.264  0.00  0.00    -0.204 F 
ATOM     36  C   UNL     1      -4.090  -3.147  23.813  0.00  0.00    +0.030 A 
ATOM     37  C   UNL     1      -3.625  -3.544  24.367  0.00  0.00    +0.005 A 
ATOM     38  C   UNL     1      -3.194  -3.117  24.926  0.00  0.00    +0.030 A 
ATOM     39  C   UNL     1      -3.229  -2.293  24.932  0.00  0.00    +0.147 A 
ATOM     40  F   UNL     1      -2.798  -1.865  25.491  0.00  0.00    -0.204 F 
ENDBRANCH  31  33
BRANCH   2   3
ATOM      3  C   UNL     1      -5.626   2.965  25.723  0.00  0.00    +0.184 C 
ATOM      4  O   UNL     1      -6.209   3.217  26.251  0.00  0.00    -0.220 OA
ENDBRANCH   2   3
BRANCH  11  12
ATOM     12  C   UNL     1      -3.118   2.182  23.837  0.00  0.00    +0.093 C 
BRANCH  12  13
ATOM     13  C   UNL     1      -2.369   1.988  24.127  0.00  0.00    +0.242 C 
ATOM     14  O   UNL     1      -2.182   2.135  24.916  0.00  0.00    -0.273 OA
ATOM     15  N   UNL     1      -1.809   1.648  23.627  0.00  0.00    -0.204 NA
BRANCH  15  16
ATOM     16  C   UNL     1      -1.061   1.454  23.916  0.00  0.00    +0.132 C 
BRANCH  16  17
ATOM     17  C   UNL     1      -0.439   1.315  23.391  0.00  0.00    +0.096 C 
BRANCH  17  18
ATOM     18  N   UNL     1       0.022   0.637  23.471  0.00  0.00    -0.267 NA
ATOM     19  C   UNL     1       0.712   0.552  23.026  0.00  0.00    +0.105 C 
ATOM     20  C   UNL     1       1.175  -0.127  23.105  0.00  0.00    +0.159 C 
ATOM     21  O   UNL     1       0.947  -0.722  23.629  0.00  0.00    -0.351 OA
ATOM     22  C   UNL     1       0.257  -0.638  24.075  0.00  0.00    +0.159 C 
ATOM     23  C   UNL     1      -0.205   0.042  23.995  0.00  0.00    +0.105 C 
ENDBRANCH  17  18
ENDBRANCH  16  17
ENDBRANCH  15  16
ENDBRANCH  12  13
ENDBRANCH  11  12
TORSDOF 7
ENDMDL
MODEL 5
REMARK VINA RESULT:     -11.7      1.708      4.604
REMARK  Name = 
REMARK  7 active torsions:
REMARK  status: ('A' for Active; 'I' for Inactive)
REMARK    1  A    between atoms: C_2  and  C_3
REMARK    2  A    between atoms: C_11  and  C_12
REMARK    3  A    between atoms: C_12  and  C_13
REMARK    4  A    between atoms: N_15  and  C_16
REMARK    5  A    between atoms: C_16  and  C_17
REMARK    6  A    between atoms: C_17  and  N_18
REMARK    7  A    between atoms: C_31  and  C_33
REMARK                            x       y       z     vdW  Elec       q    Type
REMARK                         _______ _______ _______ _____ _____    ______ ____
ROOT
ATOM      1  C   UNL     1      -4.017  -2.249  24.339  0.00  0.00    +0.005 C 
ATOM      2  C   UNL     1      -3.351  -1.769  24.420  0.00  0.00    +0.059 C 
ATOM      5  C   UNL     1      -2.990  -2.509  24.377  0.00  0.00    +0.154 C 
ATOM      6  O   UNL     1      -3.449  -3.189  24.291  0.00  0.00    -0.223 OA
ATOM      7  C   UNL     1      -2.167  -2.570  24.421  0.00  0.00    +0.033 C 
ATOM      8  C   UNL     1      -1.708  -1.891  24.507  0.00  0.00    +0.003 C 
ATOM      9  C   UNL     1      -2.069  -1.152  24.550  0.00  0.00    +0.006 C 
ATOM     10  C   UNL     1      -1.248  -1.212  24.593  0.00  0.00    +0.000 C 
ATOM     11  C   UNL     1      -1.609  -0.472  24.636  0.00  0.00    +0.050 C 
ATOM     24  C   UNL     1      -1.970   0.268  24.679  0.00  0.00    +0.063 A 
ATOM     25  C   UNL     1      -2.793   0.329  24.635  0.00  0.00    +0.023 A 
ATOM     26  C   UNL     1      -3.252  -0.350  24.549  0.00  0.00    +0.034 C 
ATOM     27  C   UNL     1      -2.891  -1.091  24.506  0.00  0.00    +0.010 C 
ATOM     28  S   UNL     1      -2.992   1.128  24.693  0.00  0.00    -0.054 S 
ATOM     29  C   UNL     1      -2.294   1.560  24.772  0.00  0.00    +0.185 A 
ATOM     30  N   UNL     1      -2.237   2.380  24.846  0.00  0.00    -0.150 NA
ATOM     31  C   UNL     1      -1.498   2.737  24.921  0.00  0.00    +0.275 C 
ATOM     32  O   UNL     1      -0.814   2.275  24.922  0.00  0.00    -0.268 OA
ATOM     41  N   UNL     1      -1.663   1.029  24.763  0.00  0.00    -0.227 NA
ENDROOT
BRANCH  31  33
ATOM     33  C   UNL     1      -1.441   3.556  24.996  0.00  0.00    +0.110 A 
ATOM     34  C   UNL     1      -1.856   3.947  25.593  0.00  0.00    +0.147 A 
ATOM     35  F   UNL     1      -2.328   3.516  26.115  0.00  0.00    -0.204 F 
ATOM     36  C   UNL     1      -1.799   4.766  25.668  0.00  0.00    +0.030 A 
ATOM     37  C   UNL     1      -1.327   5.196  25.145  0.00  0.00    +0.005 A 
ATOM     38  C   UNL     1      -0.912   4.806  24.548  0.00  0.00    +0.030 A 
ATOM     39  C   UNL     1      -0.969   3.987  24.474  0.00  0.00    +0.147 A 
ATOM     40  F   UNL     1      -0.554   3.597  23.876  0.00  0.00    -0.204 F 
ENDBRANCH  31  33
BRANCH   2   3
ATOM      3  C   UNL     1      -3.944  -1.196  24.435  0.00  0.00    +0.184 C 
ATOM      4  O   UNL     1      -4.722  -1.402  24.250  0.00  0.00    -0.220 OA
ENDBRANCH   2   3
BRANCH  11  12
ATOM     12  C   UNL     1      -0.788  -0.533  24.679  0.00  0.00    +0.093 C 
BRANCH  12  13
ATOM     13  C   UNL     1      -0.325  -0.365  24.016  0.00  0.00    +0.242 C 
ATOM     14  O   UNL     1      -0.665  -0.375  23.264  0.00  0.00    -0.273 OA
ATOM     15  N   UNL     1       0.474  -0.188  24.105  0.00  0.00    -0.204 NA
BRANCH  15  16
ATOM     16  C   UNL     1       0.937  -0.021  23.443  0.00  0.00    +0.132 C 
BRANCH  16  17
ATOM     17  C   UNL     1       1.562   0.514  23.500  0.00  0.00    +0.096 C 
BRANCH  17  18
ATOM     18  N   UNL     1       2.204   0.454  22.986  0.00  0.00    -0.267 NA
ATOM     19  C   UNL     1       2.911   0.842  23.160  0.00  0.00    +0.105 C 
ATOM     20  C   UNL     1       3.554   0.782  22.646  0.00  0.00    +0.159 C 
ATOM     21  O   UNL     1       3.489   0.333  21.957  0.00  0.00    -0.351 OA
ATOM     22  C   UNL     1       2.782  -0.056  21.782  0.00  0.00    +0.159 C 
ATOM     23  C   UNL     1       2.140   0.005  22.297  0.00  0.00    +0.105 C 
ENDBRANCH  17  18
ENDBRANCH  16  17
ENDBRANCH  15  16
ENDBRANCH  12  13
ENDBRANCH  11  12
TORSDOF 7
ENDMDL
