MODEL 1
REMARK VINA RESULT:     -11.7      0.000      0.000
REMARK  Name = 
REMARK  7 active torsions:
REMARK  status: ('A' for Active; 'I' for Inactive)
REMARK    1  A    between atoms: C_4  and  C_5
REMARK    2  A    between atoms: C_5  and  C_6
REMARK    3  A    between atoms: C_9  and  C_10
REMARK    4  A    between atoms: C_10  and  C_11
REMARK    5  A    between atoms: C_15  and  N_16
REMARK    6  A    between atoms: N_19  and  C_20
REMARK    7  A    between atoms: C_20  and  C_21
REMARK                            x       y       z     vdW  Elec       q    Type
REMARK                         _______ _______ _______ _____ _____    ______ ____
ROOT
ATOM      1  C   UNL     1      -5.552   3.145  25.477  0.00  0.00    +0.002 C 
ATOM      2  C   UNL     1      -5.066   2.507  25.283  0.00  0.00    +0.019 C 
ATOM      3  C   UNL     1      -5.728   2.016  25.240  0.00  0.00    +0.002 C 
ATOM      4  C   UNL     1      -4.404   2.996  25.326  0.00  0.00    +0.009 C 
ATOM     14  C   UNL     1      -3.919   2.358  25.132  0.00  0.00    +0.022 C 
ATOM     15  C   UNL     1      -4.581   1.868  25.089  0.00  0.00    +0.097 C 
ENDROOT
BRANCH  15  16
ATOM     16  N   UNL     1      -4.707   1.069  24.921  0.00  0.00    -0.189 NA
ATOM     17  C   UNL     1      -4.063   0.569  24.795  0.00  0.00    +0.340 C 
ATOM     18  O   UNL     1      -3.295   0.866  24.837  0.00  0.00    -0.249 OA
ATOM     19  N   UNL     1      -4.189  -0.229  24.627  0.00  0.00    -0.182 NA
BRANCH  19  20
ATOM     20  C   UNL     1      -3.545  -0.730  24.501  0.00  0.00    +0.143 C 
BRANCH  20  21
ATOM     21  C   UNL     1      -3.666  -1.541  24.413  0.00  0.00    -0.001 A 
ATOM     22  C   UNL     1      -3.278  -2.072  24.913  0.00  0.00    -0.003 A 
ATOM     23  C   UNL     1      -3.398  -2.883  24.825  0.00  0.00    -0.000 A 
ATOM     24  C   UNL     1      -3.906  -3.164  24.239  0.00  0.00    -0.000 A 
ATOM     25  C   UNL     1      -4.294  -2.634  23.740  0.00  0.00    -0.000 A 
ATOM     26  C   UNL     1      -4.173  -1.822  23.828  0.00  0.00    -0.003 A 
ENDBRANCH  20  21
ENDBRANCH  19  20
ENDBRANCH  15  16
BRANCH   4   5
ATOM      5  C   UNL     1      -4.279   3.795  25.494  0.00  0.00    +0.049 C 
BRANCH   5   6
ATOM      6  C   UNL     1      -3.515   4.070  25.640  0.00  0.00    +0.100 A 
ATOM      7  N   UNL     1      -3.108   4.017  26.356  0.00  0.00    -0.082 NA
ATOM      8  O   UNL     1      -2.365   4.360  26.254  0.00  0.00    -0.358 OA
ATOM      9  C   UNL     1      -2.313   4.626  25.474  0.00  0.00    +0.157 A 
ATOM     13  C   UNL     1      -3.023   4.447  25.095  0.00  0.00    +0.054 A 
BRANCH   9  10
ATOM     10  C   UNL     1      -1.663   5.005  25.134  0.00  0.00    +0.103 C 
BRANCH  10  11
ATOM     11  C   UNL     1      -0.951   4.600  25.041  0.00  0.00    +0.190 C 
ATOM     12  O   UNL     1      -0.316   4.964  24.662  0.00  0.00    -0.220 OA
ENDBRANCH  10  11
ENDBRANCH   9  10
ENDBRANCH   5   6
ENDBRANCH   4   5
TORSDOF 7
ENDMDL
MODEL 2
REMARK VINA RESULT:     -10.3      1.437      5.566
REMARK  Name = 
REMARK  7 active torsions:
REMARK  status: ('A' for Active; 'I' for Inactive)
REMARK    1  A    between atoms: C_4  and  C_5
REMARK    2  A    between atoms: C_5  and  C_6
REMARK    3  A    between atoms: C_9  and  C_10
REMARK    4  A    between atoms: C_10  and  C_11
REMARK    5  A    between atoms: C_15  and  N_16
REMARK    6  A    between atoms: N_19  and  C_20
REMARK    7  A    between atoms: C_20  and  C_21
REMARK                            x       y       z     vdW  Elec       q    Type
REMARK                         _______ _______ _______ _____ _____    ______ ____
ROOT
ATOM      1  C   UNL     1      -5.467   0.748  25.012  0.00  0.00    +0.002 C 
ATOM      2  C   UNL     1      -4.728   1.100  24.906  0.00  0.00    +0.019 C 
ATOM      3  C   UNL     1      -5.065   1.844  25.025  0.00  0.00    +0.002 C 
ATOM      4  C   UNL     1      -4.391   0.357  24.787  0.00  0.00    +0.009 C 
ATOM     14  C   UNL     1      -3.652   0.709  24.681  0.00  0.00    +0.022 C 
ATOM     15  C   UNL     1      -3.990   1.452  24.800  0.00  0.00    +0.097 C 
ENDROOT
BRANCH  15  16
ATOM     16  N   UNL     1      -3.705   2.227  24.810  0.00  0.00    -0.189 NA
ATOM     17  C   UNL     1      -2.913   2.373  24.989  0.00  0.00    +0.340 C 
ATOM     18  O   UNL     1      -2.406   1.746  25.158  0.00  0.00    -0.249 OA
ATOM     19  N   UNL     1      -2.630   3.148  24.998  0.00  0.00    -0.182 NA
BRANCH  19  20
ATOM     20  C   UNL     1      -1.837   3.295  25.177  0.00  0.00    +0.143 C 
BRANCH  20  21
ATOM     21  C   UNL     1      -1.528   4.053  25.083  0.00  0.00    -0.001 A 
ATOM     22  C   UNL     1      -1.984   4.712  25.282  0.00  0.00    -0.003 A 
ATOM     23  C   UNL     1      -1.674   5.471  25.188  0.00  0.00    -0.000 A 
ATOM     24  C   UNL     1      -0.910   5.571  24.896  0.00  0.00    -0.000 A 
ATOM     25  C   UNL     1      -0.454   4.914  24.697  0.00  0.00    -0.000 A 
ATOM     26  C   UNL     1      -0.764   4.154  24.791  0.00  0.00    -0.003 A 
ENDBRANCH  20  21
ENDBRANCH  19  20
ENDBRANCH  15  16
BRANCH   4   5
ATOM      5  C   UNL     1      -4.675  -0.418  24.777  0.00  0.00    +0.049 C 
BRANCH   5   6
ATOM      6  C   UNL     1      -4.190  -1.031  24.516  0.00  0.00    +0.100 A 
ATOM      7  N   UNL     1      -4.180  -1.354  23.757  0.00  0.00    -0.082 NA
ATOM      8  O   UNL     1      -3.612  -1.952  23.740  0.00  0.00    -0.358 OA
ATOM      9  C   UNL     1      -3.270  -1.999  24.490  0.00  0.00    +0.157 A 
ATOM     13  C   UNL     1      -3.627  -1.430  24.969  0.00  0.00    +0.054 A 
BRANCH   9  10
ATOM     10  C   UNL     1      -2.675  -2.523  24.719  0.00  0.00    +0.103 C 
BRANCH  10  11
ATOM     11  C   UNL     1      -1.894  -2.385  24.494  0.00  0.00    +0.190 C 
ATOM     12  O   UNL     1      -1.279  -2.780  24.876  0.00  0.00    -0.220 OA
ENDBRANCH  10  11
ENDBRANCH   9  10
ENDBRANCH   5   6
ENDBRANCH   4   5
TORSDOF 7
ENDMDL
MODEL 3
REMARK VINA RESULT:      -9.5      2.428      6.357
REMARK  Name = 
REMARK  7 active torsions:
REMARK  status: ('A' for Active; 'I' for Inactive)
REMARK    1  A    between atoms: C_4  and  C_5
REMARK    2  A    between atoms: C_5  and  C_6
REMARK    3  A    between atoms: C_9  and  C_10
REMARK    4  A    between atoms: C_10  and  C_11
REMARK    5  A    between atoms: C_15  and  N_16
REMARK    6  A    between atoms: N_19  and  C_20
REMARK    7  A    between atoms: C_20  and  C_21
REMARK                            x       y       z     vdW  Elec       q    Type
REMARK                         _______ _______ _______ _____ _____    ______ ____
ROOT
ATOM      1  C   UNL     1       0.023  -0.840  23.891  0.00  0.00    +0.002 C 
ATOM      2  C   UNL     1      -0.335  -0.187  24.246  0.00  0.00    +0.019 C 
ATOM      3  C   UNL     1       0.203   0.313  23.869  0.00  0.00    +0.002 C 
ATOM      4  C   UNL     1      -0.873  -0.685  24.622  0.00  0.00    +0.009 C 
ATOM     14  C   UNL     1      -1.231  -0.032  24.977  0.00  0.00    +0.022 C 
ATOM     15  C   UNL     1      -0.693   0.467  24.600  0.00  0.00    +0.097 C 
ENDROOT
BRANCH  15  16
ATOM     16  N   UNL     1      -0.566   1.283  24.584  0.00  0.00    -0.189 NA
ATOM     17  C   UNL     1      -1.035   1.782  25.043  0.00  0.00    +0.340 C 
ATOM     18  O   UNL     1      -1.631   1.466  25.519  0.00  0.00    -0.249 OA
ATOM     19  N   UNL     1      -0.907   2.596  25.027  0.00  0.00    -0.182 NA
BRANCH  19  20
ATOM     20  C   UNL     1      -1.377   3.096  25.487  0.00  0.00    +0.143 C 
BRANCH  20  21
ATOM     21  C   UNL     1      -1.393   3.906  25.330  0.00  0.00    -0.001 A 
ATOM     22  C   UNL     1      -2.075   4.343  25.490  0.00  0.00    -0.003 A 
ATOM     23  C   UNL     1      -2.091   5.153  25.333  0.00  0.00    -0.000 A 
ATOM     24  C   UNL     1      -1.428   5.525  25.016  0.00  0.00    -0.000 A 
ATOM     25  C   UNL     1      -0.747   5.088  24.855  0.00  0.00    -0.000 A 
ATOM     26  C   UNL     1      -0.730   4.278  25.013  0.00  0.00    -0.003 A 
ENDBRANCH  20  21
ENDBRANCH  19  20
ENDBRANCH  15  16
BRANCH   4   5
ATOM      5  C   UNL     1      -1.000  -1.501  24.638  0.00  0.00    +0.049 C 
BRANCH   5   6
ATOM      6  C   UNL     1      -1.749  -1.797  24.815  0.00  0.00    +0.100 A 
ATOM      7  N   UNL     1      -2.099  -1.819  25.561  0.00  0.00    -0.082 NA
ATOM      8  O   UNL     1      -2.847  -2.159  25.484  0.00  0.00    -0.358 OA
ATOM      9  C   UNL     1      -2.958  -2.348  24.688  0.00  0.00    +0.157 A 
ATOM     13  C   UNL     1      -2.280  -2.125  24.275  0.00  0.00    +0.054 A 
BRANCH   9  10
ATOM     10  C   UNL     1      -3.631  -2.699  24.363  0.00  0.00    +0.103 C 
BRANCH  10  11
ATOM     11  C   UNL     1      -4.174  -2.242  23.944  0.00  0.00    +0.190 C 
ATOM     12  O   UNL     1      -4.820  -2.600  23.578  0.00  0.00    -0.220 OA
ENDBRANCH  10  11
ENDBRANCH   9  10
ENDBRANCH   5   6
ENDBRANCH   4   5
TORSDOF 7
ENDMDL
MODEL 4
REMARK VINA RESULT:      -9.1      2.346      3.122
REMARK  Name = 
REMARK  7 active torsions:
REMARK  status: ('A' for Active; 'I' for Inactive)
REMARK    1  A    between atoms: C_4  and  C_5
REMARK    2  A    between atoms: C_5  and  C_6
REMARK    3  A    between atoms: C_9  and  C_10
REMARK    4  A    between atoms: C_10  and  C_11
REMARK    5  A    between atoms: C_15  and  N_16
REMARK    6  A    between atoms: N_19  and  C_20
REMARK    7  A    between atoms: C_20  and  C_21
REMARK                            x       y       z     vdW  Elec       q    Type
REMARK                         _______ _______ _______ _____ _____    ______ ____
ROOT
ATOM      1  C   UNL     1       0.601   1.285  23.869  0.00  0.00    +0.002 C 
ATOM      2  C   UNL     1      -0.067   0.902  24.167  0.00  0.00    +0.019 C 
ATOM      3  C   UNL     1       0.113   0.236  23.715  0.00  0.00    +0.002 C 
ATOM      4  C   UNL     1      -0.247   1.568  24.619  0.00  0.00    +0.009 C 
ATOM     14  C   UNL     1      -0.914   1.185  24.918  0.00  0.00    +0.022 C 
ATOM     15  C   UNL     1      -0.734   0.519  24.466  0.00  0.00    +0.097 C 
ENDROOT
BRANCH  15  16
ATOM     16  N   UNL     1      -1.079  -0.223  24.357  0.00  0.00    -0.189 NA
ATOM     17  C   UNL     1      -1.823  -0.382  24.675  0.00  0.00    +0.340 C 
ATOM     18  O   UNL     1      -2.223   0.200  25.101  0.00  0.00    -0.249 OA
ATOM     19  N   UNL     1      -2.167  -1.124  24.566  0.00  0.00    -0.182 NA
BRANCH  19  20
ATOM     20  C   UNL     1      -2.912  -1.283  24.884  0.00  0.00    +0.143 C 
BRANCH  20  21
ATOM     21  C   UNL     1      -3.379  -1.881  24.559  0.00  0.00    -0.001 A 
ATOM     22  C   UNL     1      -3.979  -1.691  24.025  0.00  0.00    -0.003 A 
ATOM     23  C   UNL     1      -4.445  -2.289  23.701  0.00  0.00    -0.000 A 
ATOM     24  C   UNL     1      -4.313  -3.075  23.910  0.00  0.00    -0.000 A 
ATOM     25  C   UNL     1      -3.714  -3.265  24.444  0.00  0.00    -0.000 A 
ATOM     26  C   UNL     1      -3.246  -2.667  24.768  0.00  0.00    -0.003 A 
ENDBRANCH  20  21
ENDBRANCH  19  20
ENDBRANCH  15  16
BRANCH   4   5
ATOM      5  C   UNL     1       0.098   2.310  24.728  0.00  0.00    +0.049 C 
BRANCH   5   6
ATOM      6  C   UNL     1      -0.322   2.907  25.112  0.00  0.00    +0.100 A 
ATOM      7  N   UNL     1      -0.404   2.997  25.927  0.00  0.00    -0.082 NA
ATOM      8  O   UNL     1      -0.867   3.665  26.066  0.00  0.00    -0.358 OA
ATOM      9  C   UNL     1      -1.073   3.988  25.335  0.00  0.00    +0.157 A 
ATOM     13  C   UNL     1      -0.737   3.520  24.745  0.00  0.00    +0.054 A 
BRANCH   9  10
ATOM     10  C   UNL     1      -1.535   4.662  25.216  0.00  0.00    +0.103 C 
BRANCH  10  11
ATOM     11  C   UNL     1      -1.183   5.365  24.968  0.00  0.00    +0.190 C 
ATOM     12  O   UNL     1      -1.612   6.069  24.983  0.00  0.00    -0.220 OA
ENDBRANCH  10  11
ENDBRANCH   9  10
ENDBRANCH   5   6
ENDBRANCH   4   5
TORSDOF 7
ENDMDL
MODEL 5
REMARK VINA RESULT:      -8.6      2.114      5.071
REMARK  Name = 
REMARK  7 active torsions:
REMARK  status: ('A' for Active; 'I' for Inactive)
REMARK    1  A    between atoms: C_4  and  C_5
REMARK    2  A    between atoms: C_5  and  C_6
REMARK    3  A    between atoms: C_9  and  C_10
REMARK    4  A    between atoms: C_10  and  C_11
REMARK    5  A    between atoms: C_15  and  N_16
REMARK    6  A    between atoms: N_19  and  C_20
REMARK    7  A    between atoms: C_20  and  C_21
REMARK                            x       y       z     vdW  Elec       q    Type
REMARK                         _______ _______ _______ _____ _____    ______ ____
ROOT
ATOM      1  C   UNL     1      -3.446  -2.290  24.423  0.00  0.00    +0.002 C 
ATOM      2  C   UNL     1      -3.513  -1.483  24.579  0.00  0.00    +0.019 C 
ATOM      3  C   UNL     1      -4.333  -1.535  24.497  0.00  0.00    +0.002 C 
ATOM      4  C   UNL     1      -2.695  -1.430  24.661  0.00  0.00    +0.009 C 
ATOM     14  C   UNL     1      -2.762  -0.622  24.817  0.00  0.00    +0.022 C 
ATOM     15  C   UNL     1      -3.581  -0.676  24.735  0.00  0.00    +0.097 C 
ENDROOT
BRANCH  15  16
ATOM     16  N   UNL     1      -4.209  -0.142  24.787  0.00  0.00    -0.189 NA
ATOM     17  C   UNL     1      -4.085   0.657  24.620  0.00  0.00    +0.340 C 
ATOM     18  O   UNL     1      -3.335   0.922  24.401  0.00  0.00    -0.249 OA
ATOM     19  N   UNL     1      -4.712   1.190  24.672  0.00  0.00    -0.182 NA
BRANCH  19  20
ATOM     20  C   UNL     1      -4.589   1.989  24.505  0.00  0.00    +0.143 C 
BRANCH  20  21
ATOM     21  C   UNL     1      -4.997   2.566  24.930  0.00  0.00    -0.001 A 
ATOM     22  C   UNL     1      -4.665   3.316  25.030  0.00  0.00    -0.003 A 
ATOM     23  C   UNL     1      -5.072   3.893  25.455  0.00  0.00    -0.000 A 
ATOM     24  C   UNL     1      -5.810   3.722  25.781  0.00  0.00    -0.000 A 
ATOM     25  C   UNL     1      -6.141   2.973  25.682  0.00  0.00    -0.000 A 
ATOM     26  C   UNL     1      -5.734   2.395  25.256  0.00  0.00    -0.003 A 
ENDBRANCH  20  21
ENDBRANCH  19  20
ENDBRANCH  15  16
BRANCH   4   5
ATOM      5  C   UNL     1      -2.067  -1.964  24.609  0.00  0.00    +0.049 C 
BRANCH   5   6
ATOM      6  C   UNL     1      -1.290  -1.688  24.614  0.00  0.00    +0.100 A 
ATOM      7  N   UNL     1      -0.804  -1.614  25.276  0.00  0.00    -0.082 NA
ATOM      8  O   UNL     1      -0.076  -1.317  25.028  0.00  0.00    -0.358 OA
ATOM      9  C   UNL     1      -0.112  -1.207  24.211  0.00  0.00    +0.157 A 
ATOM     13  C   UNL     1      -0.862  -1.436  23.955  0.00  0.00    +0.054 A 
BRANCH   9  10
ATOM     10  C   UNL     1       0.497  -0.918  23.734  0.00  0.00    +0.103 C 
BRANCH  10  11
ATOM     11  C   UNL     1       0.498  -0.128  23.499  0.00  0.00    +0.190 C 
ATOM     12  O   UNL     1       1.090   0.154  22.999  0.00  0.00    -0.220 OA
ENDBRANCH  10  11
ENDBRANCH   9  10
ENDBRANCH   5   6
ENDBRANCH   4   5
TORSDOF 7
ENDMDL
MODEL 6
REMARK VINA RESULT:      -8.1      2.921      4.386
REMARK  Name = 
REMARK  7 active torsions:
REMARK  status: ('A' for Active; 'I' for Inactive)
REMARK    1  A    between atoms: C_4  and  C_5
REMARK    2  A    between atoms: C_5  and  C_6
REMARK    3  A    between atoms: C_9  and  C_10
REMARK    4  A    between atoms: C_10  and  C_11
REMARK    5  A    between atoms: C_15  and  N_16
REMARK    6  A    between atoms: N_19  and  C_20
REMARK    7  A    between atoms: C_20  and  C_21
REMARK                            x       y       z     vdW  Elec       q    Type
REMARK                         _______ _______ _______ _____ _____    ______ ____
ROOT
ATOM      1  C   UNL     1      -3.988  -0.984  24.962  0.00  0.00    +0.002 C 
ATOM      2  C   UNL     1      -3.321  -0.544  24.755  0.00  0.00    +0.019 C 
ATOM      3  C   UNL     1      -2.874  -1.237  24.727  0.00  0.00    +0.002 C 
ATOM      4  C   UNL     1      -3.768   0.148  24.782  0.00  0.00    +0.009 C 
ATOM     14  C   UNL     1      -3.101   0.587  24.575  0.00  0.00    +0.022 C 
ATOM     15  C   UNL     1      -2.654  -0.106  24.547  0.00  0.00    +0.097 C 
ENDROOT
BRANCH  15  16
ATOM     16  N   UNL     1      -1.866  -0.286  24.381  0.00  0.00    -0.189 NA
ATOM     17  C   UNL     1      -1.350   0.311  24.139  0.00  0.00    +0.340 C 
ATOM     18  O   UNL     1      -1.621   1.086  24.064  0.00  0.00    -0.249 OA
ATOM     19  N   UNL     1      -0.562   0.131  23.973  0.00  0.00    -0.182 NA
BRANCH  19  20
ATOM     20  C   UNL     1      -0.045   0.728  23.731  0.00  0.00    +0.143 C 
BRANCH  20  21
ATOM     21  C   UNL     1       0.692   0.531  23.417  0.00  0.00    -0.001 A 
ATOM     22  C   UNL     1       0.767  -0.124  22.921  0.00  0.00    -0.003 A 
ATOM     23  C   UNL     1       1.504  -0.320  22.606  0.00  0.00    -0.000 A 
ATOM     24  C   UNL     1       2.165   0.137  22.787  0.00  0.00    -0.000 A 
ATOM     25  C   UNL     1       2.090   0.793  23.282  0.00  0.00    -0.000 A 
ATOM     26  C   UNL     1       1.353   0.989  23.597  0.00  0.00    -0.003 A 
ENDBRANCH  20  21
ENDBRANCH  19  20
ENDBRANCH  15  16
BRANCH   4   5
ATOM      5  C   UNL     1      -4.556   0.327  24.949  0.00  0.00    +0.049 C 
BRANCH   5   6
ATOM      6  C   UNL     1      -4.819   1.108  24.904  0.00  0.00    +0.100 A 
ATOM      7  N   UNL     1      -4.868   1.566  24.220  0.00  0.00    -0.082 NA
ATOM      8  O   UNL     1      -5.158   2.309  24.430  0.00  0.00    -0.358 OA
ATOM      9  C   UNL     1      -5.289   2.310  25.244  0.00  0.00    +0.157 A 
ATOM     13  C   UNL     1      -5.079   1.568  25.538  0.00  0.00    +0.054 A 
BRANCH   9  10
ATOM     10  C   UNL     1      -5.579   2.944  25.688  0.00  0.00    +0.103 C 
BRANCH  10  11
ATOM     11  C   UNL     1      -5.442   3.718  25.439  0.00  0.00    +0.190 C 
ATOM     12  O   UNL     1      -5.874   4.339  25.767  0.00  0.00    -0.220 OA
ENDBRANCH  10  11
ENDBRANCH   9  10
ENDBRANCH   5   6
ENDBRANCH   4   5
TORSDOF 7
ENDMDL
