MODEL 1
REMARK VINA RESULT:     -10.6      0.000      0.000
REMARK  Name = 
REMARK  4 active torsions:
REMARK  status: ('A' for Active; 'I' for Inactive)
REMARK    1  A    between atoms: O_2  and  C_3
REMARK    2  A    between atoms: C_6  and  C_9
REMARK    3  A    between atoms: C_15  and  N_16
REMARK    4  A    between atoms: C_17  and  C_19
REMARK                            x       y       z     vdW  Elec       q    Type
REMARK                         _______ _______ _______ _____ _____    ______ ____
ROOT
ATOM      9  C   UNL     1      -4.503   0.639  24.839  0.00  0.00    +0.048 C 
ATOM     10  C   UNL     1      -5.139   0.895  25.298  0.00  0.00    +0.042 C 
ATOM     11  C   UNL     1      -5.249   1.700  25.154  0.00  0.00    +0.184 C 
ATOM     12  O   UNL     1      -5.826   2.179  25.498  0.00  0.00    -0.220 OA
ATOM     13  C   UNL     1      -4.681   1.942  24.607  0.00  0.00    +0.202 C 
ATOM     14  O   UNL     1      -4.590   2.705  24.307  0.00  0.00    -0.219 OA
ATOM     15  C   UNL     1      -4.219   1.286  24.412  0.00  0.00    +0.132 C 
ENDROOT
BRANCH   9   6
ATOM      3  C   UNL     1      -3.602  -1.665  24.758  0.00  0.00    +0.139 A 
ATOM      4  C   UNL     1      -3.430  -1.178  25.400  0.00  0.00    +0.037 A 
ATOM      5  C   UNL     1      -3.730  -0.410  25.427  0.00  0.00    -0.001 A 
ATOM      6  C   UNL     1      -4.203  -0.129  24.812  0.00  0.00    -0.020 A 
ATOM      7  C   UNL     1      -4.375  -0.617  24.169  0.00  0.00    -0.001 A 
ATOM      8  C   UNL     1      -4.074  -1.385  24.142  0.00  0.00    +0.037 A 
BRANCH   3   2
ATOM      1  C   UNL     1      -2.520  -2.563  24.498  0.00  0.00    +0.252 C 
ATOM      2  O   UNL     1      -3.301  -2.433  24.731  0.00  0.00    -0.471 OA
ENDBRANCH   3   2
ENDBRANCH   9   6
BRANCH  15  16
ATOM     16  N   UNL     1      -3.586   1.278  23.883  0.00  0.00    -0.204 NA
ATOM     17  C   UNL     1      -2.981   1.834  23.957  0.00  0.00    +0.241 C 
ATOM     18  O   UNL     1      -3.009   2.397  24.559  0.00  0.00    -0.273 OA
BRANCH  17  19
ATOM     19  C   UNL     1      -2.348   1.826  23.428  0.00  0.00    +0.078 C 
ATOM     20  C   UNL     1      -1.576   1.750  23.710  0.00  0.00    +0.010 C 
ATOM     21  C   UNL     1      -2.486   1.894  22.617  0.00  0.00    +0.010 C 
ENDBRANCH  17  19
ENDBRANCH  15  16
TORSDOF 4
ENDMDL
MODEL 2
REMARK VINA RESULT:     -10.1      0.911      2.295
REMARK  Name = 
REMARK  4 active torsions:
REMARK  status: ('A' for Active; 'I' for Inactive)
REMARK    1  A    between atoms: O_2  and  C_3
REMARK    2  A    between atoms: C_6  and  C_9
REMARK    3  A    between atoms: C_15  and  N_16
REMARK    4  A    between atoms: C_17  and  C_19
REMARK                            x       y       z     vdW  Elec       q    Type
REMARK                         _______ _______ _______ _____ _____    ______ ____
ROOT
ATOM      9  C   UNL     1      -3.306   0.895  24.033  0.00  0.00    +0.048 C 
ATOM     10  C   UNL     1      -2.635   1.149  23.628  0.00  0.00    +0.042 C 
ATOM     11  C   UNL     1      -2.752   1.935  23.407  0.00  0.00    +0.184 C 
ATOM     12  O   UNL     1      -2.219   2.406  22.990  0.00  0.00    -0.220 OA
ATOM     13  C   UNL     1      -3.497   2.167  23.676  0.00  0.00    +0.202 C 
ATOM     14  O   UNL     1      -3.838   2.911  23.576  0.00  0.00    -0.219 OA
ATOM     15  C   UNL     1      -3.839   1.524  24.064  0.00  0.00    +0.132 C 
ENDROOT
BRANCH   9   6
ATOM      3  C   UNL     1      -3.662  -1.359  24.992  0.00  0.00    +0.139 A 
ATOM      4  C   UNL     1      -3.206  -0.806  25.399  0.00  0.00    +0.037 A 
ATOM      5  C   UNL     1      -3.088  -0.054  25.079  0.00  0.00    -0.001 A 
ATOM      6  C   UNL     1      -3.425   0.143  24.353  0.00  0.00    -0.020 A 
ATOM      7  C   UNL     1      -3.882  -0.411  23.946  0.00  0.00    -0.001 A 
ATOM      8  C   UNL     1      -4.000  -1.162  24.266  0.00  0.00    +0.037 A 
BRANCH   3   2
ATOM      1  C   UNL     1      -3.432  -2.770  24.957  0.00  0.00    +0.252 C 
ATOM      2  O   UNL     1      -3.781  -2.110  25.312  0.00  0.00    -0.471 OA
ENDBRANCH   3   2
ENDBRANCH   9   6
BRANCH  15  16
ATOM     16  N   UNL     1      -4.584   1.513  24.419  0.00  0.00    -0.204 NA
ATOM     17  C   UNL     1      -4.799   2.110  24.946  0.00  0.00    +0.241 C 
ATOM     18  O   UNL     1      -4.269   2.719  25.117  0.00  0.00    -0.273 OA
BRANCH  17  19
ATOM     19  C   UNL     1      -5.544   2.099  25.300  0.00  0.00    +0.078 C 
ATOM     20  C   UNL     1      -5.630   2.337  26.085  0.00  0.00    +0.010 C 
ATOM     21  C   UNL     1      -6.202   1.849  24.870  0.00  0.00    +0.010 C 
ENDBRANCH  17  19
ENDBRANCH  15  16
TORSDOF 4
ENDMDL
MODEL 3
REMARK VINA RESULT:      -9.9      1.382      3.650
REMARK  Name = 
REMARK  4 active torsions:
REMARK  status: ('A' for Active; 'I' for Inactive)
REMARK    1  A    between atoms: O_2  and  C_3
REMARK    2  A    between atoms: C_6  and  C_9
REMARK    3  A    between atoms: C_15  and  N_16
REMARK    4  A    between atoms: C_17  and  C_19
REMARK                            x       y       z     vdW  Elec       q    Type
REMARK                         _______ _______ _______ _____ _____    ______ ____
ROOT
ATOM      9  C   UNL     1      -3.848  -0.795  24.382  0.00  0.00    +0.048 C 
ATOM     10  C   UNL     1      -4.328  -1.343  23.994  0.00  0.00    +0.042 C 
ATOM     11  C   UNL     1      -3.995  -2.091  24.095  0.00  0.00    +0.184 C 
ATOM     12  O   UNL     1      -4.296  -2.799  23.798  0.00  0.00    -0.220 OA
ATOM     13  C   UNL     1      -3.309  -2.006  24.546  0.00  0.00    +0.202 C 
ATOM     14  O   UNL     1      -2.803  -2.615  24.778  0.00  0.00    -0.219 OA
ATOM     15  C   UNL     1      -3.218  -1.205  24.723  0.00  0.00    +0.132 C 
ENDROOT
BRANCH   9   6
ATOM      3  C   UNL     1      -4.229   1.647  24.501  0.00  0.00    +0.139 A 
ATOM      4  C   UNL     1      -3.824   1.324  23.860  0.00  0.00    +0.037 A 
ATOM      5  C   UNL     1      -3.697   0.510  23.821  0.00  0.00    -0.001 A 
ATOM      6  C   UNL     1      -3.975   0.019  24.422  0.00  0.00    -0.020 A 
ATOM      7  C   UNL     1      -4.382   0.342  25.063  0.00  0.00    -0.001 A 
ATOM      8  C   UNL     1      -4.509   1.157  25.103  0.00  0.00    +0.037 A 
BRANCH   3   2
ATOM      1  C   UNL     1      -3.760   2.959  24.821  0.00  0.00    +0.252 C 
ATOM      2  O   UNL     1      -4.356   2.461  24.541  0.00  0.00    -0.471 OA
ENDBRANCH   3   2
ENDBRANCH   9   6
BRANCH  15  16
ATOM     16  N   UNL     1      -2.605  -0.873  25.164  0.00  0.00    -0.204 NA
ATOM     17  C   UNL     1      -1.820  -1.041  24.972  0.00  0.00    +0.241 C 
ATOM     18  O   UNL     1      -1.650  -1.543  24.339  0.00  0.00    -0.273 OA
BRANCH  17  19
ATOM     19  C   UNL     1      -1.208  -0.709  25.413  0.00  0.00    +0.078 C 
ATOM     20  C   UNL     1      -0.594  -0.312  25.031  0.00  0.00    +0.010 C 
ATOM     21  C   UNL     1      -1.208  -0.774  26.235  0.00  0.00    +0.010 C 
ENDBRANCH  17  19
ENDBRANCH  15  16
TORSDOF 4
ENDMDL
MODEL 4
REMARK VINA RESULT:      -9.5      1.205      3.109
REMARK  Name = 
REMARK  4 active torsions:
REMARK  status: ('A' for Active; 'I' for Inactive)
REMARK    1  A    between atoms: O_2  and  C_3
REMARK    2  A    between atoms: C_6  and  C_9
REMARK    3  A    between atoms: C_15  and  N_16
REMARK    4  A    between atoms: C_17  and  C_19
REMARK                            x       y       z     vdW  Elec       q    Type
REMARK                         _______ _______ _______ _____ _____    ______ ____
ROOT
ATOM      9  C   UNL     1      -3.749   2.237  24.686  0.00  0.00    +0.048 C 
ATOM     10  C   UNL     1      -4.206   2.886  24.909  0.00  0.00    +0.042 C 
ATOM     11  C   UNL     1      -4.982   2.626  25.020  0.00  0.00    +0.184 C 
ATOM     12  O   UNL     1      -5.622   3.094  25.246  0.00  0.00    -0.220 OA
ATOM     13  C   UNL     1      -5.004   1.816  24.866  0.00  0.00    +0.202 C 
ATOM     14  O   UNL     1      -5.670   1.332  24.910  0.00  0.00    -0.219 OA
ATOM     15  C   UNL     1      -4.242   1.575  24.659  0.00  0.00    +0.132 C 
ENDROOT
BRANCH   9   6
ATOM      3  C   UNL     1      -1.325   2.267  24.186  0.00  0.00    +0.139 A 
ATOM      4  C   UNL     1      -1.585   2.286  24.968  0.00  0.00    +0.037 A 
ATOM      5  C   UNL     1      -2.393   2.276  25.135  0.00  0.00    -0.001 A 
ATOM      6  C   UNL     1      -2.941   2.247  24.519  0.00  0.00    -0.020 A 
ATOM      7  C   UNL     1      -2.681   2.227  23.736  0.00  0.00    -0.001 A 
ATOM      8  C   UNL     1      -1.873   2.237  23.569  0.00  0.00    +0.037 A 
BRANCH   3   2
ATOM      1  C   UNL     1      -0.008   1.759  24.411  0.00  0.00    +0.252 C 
ATOM      2  O   UNL     1      -0.517   2.276  24.019  0.00  0.00    -0.471 OA
ENDBRANCH   3   2
ENDBRANCH   9   6
BRANCH  15  16
ATOM     16  N   UNL     1      -4.013   0.807  24.460  0.00  0.00    -0.204 NA
ATOM     17  C   UNL     1      -4.216   0.176  24.951  0.00  0.00    +0.241 C 
ATOM     18  O   UNL     1      -4.647   0.313  25.641  0.00  0.00    -0.273 OA
BRANCH  17  19
ATOM     19  C   UNL     1      -3.987  -0.590  24.753  0.00  0.00    +0.078 C 
ATOM     20  C   UNL     1      -3.583  -1.055  25.301  0.00  0.00    +0.010 C 
ATOM     21  C   UNL     1      -4.163  -0.893  24.005  0.00  0.00    +0.010 C 
ENDBRANCH  17  19
ENDBRANCH  15  16
TORSDOF 4
ENDMDL
