MODEL 1
REMARK VINA RESULT:     -11.1      0.000      0.000
REMARK  Name = 
REMARK  5 active torsions:
REMARK  status: ('A' for Active; 'I' for Inactive)
REMARK    1  A    between atoms: C_2  and  C_3
REMARK    2  A    between atoms: C_6  and  C_7
REMARK    3  A    between atoms: C_7  and  N_8
REMARK    4  A    between atoms: C_13  and  C_14
REMARK    5  A    between atoms: C_16  and  C_19
REMARK                            x       y       z     vdW  Elec       q    Type
REMARK                         _______ _______ _______ _____ _____    ______ ____
ROOT
ATOM      8  N   UNL     1      -3.716   2.488  25.034  0.00  0.00    -0.258 NA
ATOM      9  C   UNL     1      -4.153   3.099  25.376  0.00  0.00    +0.106 C 
ATOM     10  C   UNL     1      -4.941   2.862  25.410  0.00  0.00    +0.170 C 
ATOM     11  O   UNL     1      -5.569   3.305  25.712  0.00  0.00    -0.222 OA
ATOM     12  C   UNL     1      -4.994   2.104  25.089  0.00  0.00    +0.060 C 
ATOM     13  C   UNL     1      -4.237   1.873  24.857  0.00  0.00    +0.141 C 
ENDROOT
BRANCH  13  14
ATOM     14  C   UNL     1      -4.035   1.152  24.508  0.00  0.00    +0.251 A 
ATOM     15  N   UNL     1      -4.068   0.413  24.870  0.00  0.00    -0.188 NA
ATOM     16  C   UNL     1      -3.818  -0.151  24.322  0.00  0.00    +0.221 A 
ATOM     17  N   UNL     1      -3.630   0.240  23.621  0.00  0.00    -0.054 NA
ATOM     18  O   UNL     1      -3.764   1.046  23.736  0.00  0.00    -0.336 OA
BRANCH  16  19
ATOM     19  C   UNL     1      -3.765  -0.964  24.453  0.00  0.00    +0.120 A 
ATOM     20  N   UNL     1      -3.380  -1.251  25.124  0.00  0.00    -0.241 NA
ATOM     21  C   UNL     1      -3.327  -2.063  25.254  0.00  0.00    +0.099 A 
ATOM     22  C   UNL     1      -3.660  -2.591  24.713  0.00  0.00    +0.021 A 
ATOM     23  C   UNL     1      -4.045  -2.304  24.042  0.00  0.00    +0.003 A 
ATOM     24  C   UNL     1      -4.098  -1.491  23.912  0.00  0.00    +0.022 A 
ENDBRANCH  16  19
ENDBRANCH  13  14
BRANCH   8   7
ATOM      7  C   UNL     1      -2.904   2.492  24.894  0.00  0.00    +0.138 C 
BRANCH   7   6
ATOM      3  C   UNL     1      -1.828   4.304  25.229  0.00  0.00    +0.156 A 
ATOM      4  C   UNL     1      -1.632   3.874  25.905  0.00  0.00    +0.038 A 
ATOM      5  C   UNL     1      -2.010   3.144  25.862  0.00  0.00    +0.037 A 
ATOM      6  C   UNL     1      -2.442   3.122  25.158  0.00  0.00    +0.139 A 
ATOM     25  O   UNL     1      -2.328   3.839  24.768  0.00  0.00    -0.458 OA
BRANCH   3   2
ATOM      1  O   UNL     1      -0.764   5.213  24.933  0.00  0.00    -0.212 OA
ATOM      2  C   UNL     1      -1.569   5.066  25.047  0.00  0.00    +0.246 C 
ENDBRANCH   3   2
ENDBRANCH   7   6
ENDBRANCH   8   7
TORSDOF 5
ENDMDL
MODEL 2
REMARK VINA RESULT:     -10.7      1.429      4.682
REMARK  Name = 
REMARK  5 active torsions:
REMARK  status: ('A' for Active; 'I' for Inactive)
REMARK    1  A    between atoms: C_2  and  C_3
REMARK    2  A    between atoms: C_6  and  C_7
REMARK    3  A    between atoms: C_7  and  N_8
REMARK    4  A    between atoms: C_13  and  C_14
REMARK    5  A    between atoms: C_16  and  C_19
REMARK                            x       y       z     vdW  Elec       q    Type
REMARK                         _______ _______ _______ _____ _____    ______ ____
ROOT
ATOM      8  N   UNL     1      -4.564   1.297  24.861  0.00  0.00    -0.258 NA
ATOM      9  C   UNL     1      -5.227   0.994  25.248  0.00  0.00    +0.106 C 
ATOM     10  C   UNL     1      -5.630   1.624  25.595  0.00  0.00    +0.170 C 
ATOM     11  O   UNL     1      -6.326   1.571  26.037  0.00  0.00    -0.222 OA
ATOM     12  C   UNL     1      -5.217   2.317  25.424  0.00  0.00    +0.060 C 
ATOM     13  C   UNL     1      -4.558   2.115  24.971  0.00  0.00    +0.141 C 
ENDROOT
BRANCH  13  14
ATOM     14  C   UNL     1      -3.992   2.639  24.677  0.00  0.00    +0.251 A 
ATOM     15  N   UNL     1      -3.315   2.892  25.074  0.00  0.00    -0.188 NA
ATOM     16  C   UNL     1      -2.908   3.411  24.578  0.00  0.00    +0.221 A 
ATOM     17  N   UNL     1      -3.333   3.478  23.875  0.00  0.00    -0.054 NA
ATOM     18  O   UNL     1      -4.003   3.000  23.936  0.00  0.00    -0.336 OA
BRANCH  16  19
ATOM     19  C   UNL     1      -2.200   3.795  24.755  0.00  0.00    +0.120 A 
ATOM     20  N   UNL     1      -1.479   3.415  24.623  0.00  0.00    -0.241 NA
ATOM     21  C   UNL     1      -0.771   3.800  24.799  0.00  0.00    +0.099 A 
ATOM     22  C   UNL     1      -0.783   4.565  25.108  0.00  0.00    +0.021 A 
ATOM     23  C   UNL     1      -1.503   4.945  25.240  0.00  0.00    +0.003 A 
ATOM     24  C   UNL     1      -2.211   4.561  25.064  0.00  0.00    +0.022 A 
ENDBRANCH  16  19
ENDBRANCH  13  14
BRANCH   8   7
ATOM      7  C   UNL     1      -4.006   0.860  24.441  0.00  0.00    +0.138 C 
BRANCH   7   6
ATOM      3  C   UNL     1      -3.648  -1.158  25.039  0.00  0.00    +0.156 A 
ATOM      4  C   UNL     1      -4.116  -1.271  24.369  0.00  0.00    +0.038 A 
ATOM      5  C   UNL     1      -4.307  -0.529  24.064  0.00  0.00    +0.037 A 
ATOM      6  C   UNL     1      -3.957   0.043  24.545  0.00  0.00    +0.139 A 
ATOM     25  O   UNL     1      -3.550  -0.346  25.147  0.00  0.00    -0.458 OA
BRANCH   3   2
ATOM      1  O   UNL     1      -3.559  -2.538  25.400  0.00  0.00    -0.212 OA
ATOM      2  C   UNL     1      -3.333  -1.753  25.516  0.00  0.00    +0.246 C 
ENDBRANCH   3   2
ENDBRANCH   7   6
ENDBRANCH   8   7
TORSDOF 5
ENDMDL
MODEL 3
REMARK VINA RESULT:     -10.5      2.252      5.445
REMARK  Name = 
REMARK  5 active torsions:
REMARK  status: ('A' for Active; 'I' for Inactive)
REMARK    1  A    between atoms: C_2  and  C_3
REMARK    2  A    between atoms: C_6  and  C_7
REMARK    3  A    between atoms: C_7  and  N_8
REMARK    4  A    between atoms: C_13  and  C_14
REMARK    5  A    between atoms: C_16  and  C_19
REMARK                            x       y       z     vdW  Elec       q    Type
REMARK                         _______ _______ _______ _____ _____    ______ ____
ROOT
ATOM      8  N   UNL     1      -1.329   0.086  24.929  0.00  0.00    -0.258 NA
ATOM      9  C   UNL     1      -1.062  -0.549  24.476  0.00  0.00    +0.106 C 
ATOM     10  C   UNL     1      -0.328  -0.347  24.159  0.00  0.00    +0.170 C 
ATOM     11  O   UNL     1       0.137  -0.822  23.670  0.00  0.00    -0.222 OA
ATOM     12  C   UNL     1      -0.141   0.414  24.415  0.00  0.00    +0.060 C 
ATOM     13  C   UNL     1      -0.759   0.682  24.891  0.00  0.00    +0.141 C 
ENDROOT
BRANCH  13  14
ATOM     14  C   UNL     1      -0.801   1.417  25.264  0.00  0.00    +0.251 A 
ATOM     15  N   UNL     1      -1.090   2.114  24.931  0.00  0.00    -0.188 NA
ATOM     16  C   UNL     1      -1.029   2.711  25.497  0.00  0.00    +0.221 A 
ATOM     17  N   UNL     1      -0.703   2.384  26.180  0.00  0.00    -0.054 NA
ATOM     18  O   UNL     1      -0.562   1.583  26.036  0.00  0.00    -0.336 OA
BRANCH  16  19
ATOM     19  C   UNL     1      -1.255   3.498  25.397  0.00  0.00    +0.120 A 
ATOM     20  N   UNL     1      -2.004   3.747  25.639  0.00  0.00    -0.241 NA
ATOM     21  C   UNL     1      -2.230   4.534  25.539  0.00  0.00    +0.099 A 
ATOM     22  C   UNL     1      -1.707   5.073  25.197  0.00  0.00    +0.021 A 
ATOM     23  C   UNL     1      -0.958   4.825  24.955  0.00  0.00    +0.003 A 
ATOM     24  C   UNL     1      -0.732   4.038  25.055  0.00  0.00    +0.022 A 
ENDBRANCH  16  19
ENDBRANCH  13  14
BRANCH   8   7
ATOM      7  C   UNL     1      -2.040   0.120  25.345  0.00  0.00    +0.138 C 
BRANCH   7   6
ATOM      3  C   UNL     1      -3.651  -1.076  24.618  0.00  0.00    +0.156 A 
ATOM      4  C   UNL     1      -3.448  -1.483  25.305  0.00  0.00    +0.038 A 
ATOM      5  C   UNL     1      -2.820  -1.085  25.661  0.00  0.00    +0.037 A 
ATOM      6  C   UNL     1      -2.635  -0.431  25.193  0.00  0.00    +0.139 A 
ATOM     25  O   UNL     1      -3.149  -0.426  24.549  0.00  0.00    -0.458 OA
BRANCH   3   2
ATOM      1  O   UNL     1      -4.298  -2.053  23.799  0.00  0.00    -0.212 OA
ATOM      2  C   UNL     1      -4.252  -1.282  24.092  0.00  0.00    +0.246 C 
ENDBRANCH   3   2
ENDBRANCH   7   6
ENDBRANCH   8   7
TORSDOF 5
ENDMDL
MODEL 4
REMARK VINA RESULT:     -10.1      2.259      4.371
REMARK  Name = 
REMARK  5 active torsions:
REMARK  status: ('A' for Active; 'I' for Inactive)
REMARK    1  A    between atoms: C_2  and  C_3
REMARK    2  A    between atoms: C_6  and  C_7
REMARK    3  A    between atoms: C_7  and  N_8
REMARK    4  A    between atoms: C_13  and  C_14
REMARK    5  A    between atoms: C_16  and  C_19
REMARK                            x       y       z     vdW  Elec       q    Type
REMARK                         _______ _______ _______ _____ _____    ______ ____
ROOT
ATOM      8  N   UNL     1      -0.878   1.815  24.883  0.00  0.00    -0.258 NA
ATOM      9  C   UNL     1      -0.159   1.819  25.288  0.00  0.00    +0.106 C 
ATOM     10  C   UNL     1      -0.169   2.449  25.820  0.00  0.00    +0.170 C 
ATOM     11  O   UNL     1       0.440   2.657  26.338  0.00  0.00    -0.222 OA
ATOM     12  C   UNL     1      -0.894   2.835  25.745  0.00  0.00    +0.060 C 
ATOM     13  C   UNL     1      -1.332   2.444  25.167  0.00  0.00    +0.141 C 
ENDROOT
BRANCH  13  14
ATOM     14  C   UNL     1      -2.092   2.644  24.914  0.00  0.00    +0.251 A 
ATOM     15  N   UNL     1      -2.797   2.433  25.286  0.00  0.00    -0.188 NA
ATOM     16  C   UNL     1      -3.420   2.750  24.848  0.00  0.00    +0.221 A 
ATOM     17  N   UNL     1      -3.101   3.156  24.205  0.00  0.00    -0.054 NA
ATOM     18  O   UNL     1      -2.279   3.091  24.246  0.00  0.00    -0.336 OA
BRANCH  16  19
ATOM     19  C   UNL     1      -4.223   2.673  25.021  0.00  0.00    +0.120 A 
ATOM     20  N   UNL     1      -4.600   3.238  25.490  0.00  0.00    -0.241 NA
ATOM     21  C   UNL     1      -5.403   3.161  25.664  0.00  0.00    +0.099 A 
ATOM     22  C   UNL     1      -5.829   2.519  25.369  0.00  0.00    +0.021 A 
ATOM     23  C   UNL     1      -5.453   1.954  24.900  0.00  0.00    +0.003 A 
ATOM     24  C   UNL     1      -4.650   2.031  24.726  0.00  0.00    +0.022 A 
ENDBRANCH  16  19
ENDBRANCH  13  14
BRANCH   8   7
ATOM      7  C   UNL     1      -1.103   1.279  24.299  0.00  0.00    +0.138 C 
BRANCH   7   6
ATOM      3  C   UNL     1      -0.700  -0.788  24.649  0.00  0.00    +0.156 A 
ATOM      4  C   UNL     1      -0.125  -0.606  24.086  0.00  0.00    +0.038 A 
ATOM      5  C   UNL     1      -0.205   0.189  23.887  0.00  0.00    +0.037 A 
ATOM      6  C   UNL     1      -0.831   0.500  24.327  0.00  0.00    +0.139 A 
ATOM     25  O   UNL     1      -1.136  -0.104  24.797  0.00  0.00    -0.458 OA
BRANCH   3   2
ATOM      1  O   UNL     1      -0.251  -1.831  25.518  0.00  0.00    -0.212 OA
ATOM      2  C   UNL     1      -0.818  -1.525  25.001  0.00  0.00    +0.246 C 
ENDBRANCH   3   2
ENDBRANCH   7   6
ENDBRANCH   8   7
TORSDOF 5
ENDMDL
MODEL 5
REMARK VINA RESULT:     -10.0      2.122      4.318
REMARK  Name = 
REMARK  5 active torsions:
REMARK  status: ('A' for Active; 'I' for Inactive)
REMARK    1  A    between atoms: C_2  and  C_3
REMARK    2  A    between atoms: C_6  and  C_7
REMARK    3  A    between atoms: C_7  and  N_8
REMARK    4  A    between atoms: C_13  and  C_14
REMARK    5  A    between atoms: C_16  and  C_19
REMARK                            x       y       z     vdW  Elec       q    Type
REMARK                         _______ _______ _______ _____ _____    ______ ____
ROOT
ATOM      8  N   UNL     1      -3.066  -0.933  24.715  0.00  0.00    -0.258 NA
ATOM      9  C   UNL     1      -3.109  -1.754  24.637  0.00  0.00    +0.106 C 
ATOM     10  C   UNL     1      -3.806  -1.935  24.235  0.00  0.00    +0.170 C 
ATOM     11  O   UNL     1      -4.069  -2.693  24.038  0.00  0.00    -0.222 OA
ATOM     12  C   UNL     1      -4.194  -1.228  24.065  0.00  0.00    +0.060 C 
ATOM     13  C   UNL     1      -3.737  -0.609  24.361  0.00  0.00    +0.141 C 
ENDROOT
BRANCH  13  14
ATOM     14  C   UNL     1      -3.919   0.195  24.312  0.00  0.00    +0.251 A 
ATOM     15  N   UNL     1      -4.343   0.630  24.870  0.00  0.00    -0.188 NA
ATOM     16  C   UNL     1      -4.395   1.408  24.600  0.00  0.00    +0.221 A 
ATOM     17  N   UNL     1      -4.002   1.454  23.877  0.00  0.00    -0.054 NA
ATOM     18  O   UNL     1      -3.708   0.704  23.698  0.00  0.00    -0.336 OA
BRANCH  16  19
ATOM     19  C   UNL     1      -4.772   2.031  24.987  0.00  0.00    +0.120 A 
ATOM     20  N   UNL     1      -4.342   2.697  25.215  0.00  0.00    -0.241 NA
ATOM     21  C   UNL     1      -4.720   3.320  25.602  0.00  0.00    +0.099 A 
ATOM     22  C   UNL     1      -5.529   3.278  25.761  0.00  0.00    +0.021 A 
ATOM     23  C   UNL     1      -5.959   2.612  25.532  0.00  0.00    +0.003 A 
ATOM     24  C   UNL     1      -5.581   1.989  25.146  0.00  0.00    +0.022 A 
ENDBRANCH  16  19
ENDBRANCH  13  14
BRANCH   8   7
ATOM      7  C   UNL     1      -2.460  -0.513  25.082  0.00  0.00    +0.138 C 
BRANCH   7   6
ATOM      3  C   UNL     1      -0.459  -0.891  24.441  0.00  0.00    +0.156 A 
ATOM      4  C   UNL     1      -0.472  -1.284  25.166  0.00  0.00    +0.038 A 
ATOM      5  C   UNL     1      -1.222  -1.190  25.495  0.00  0.00    +0.037 A 
ATOM      6  C   UNL     1      -1.674  -0.739  24.971  0.00  0.00    +0.139 A 
ATOM     25  O   UNL     1      -1.202  -0.555  24.321  0.00  0.00    -0.458 OA
BRANCH   3   2
ATOM      1  O   UNL     1       0.364  -0.128  23.556  0.00  0.00    -0.212 OA
ATOM      2  C   UNL     1       0.184  -0.843  23.926  0.00  0.00    +0.246 C 
ENDBRANCH   3   2
ENDBRANCH   7   6
ENDBRANCH   8   7
TORSDOF 5
ENDMDL
MODEL 6
REMARK VINA RESULT:      -9.9      1.797      2.625
REMARK  Name = 
REMARK  5 active torsions:
REMARK  status: ('A' for Active; 'I' for Inactive)
REMARK    1  A    between atoms: C_2  and  C_3
REMARK    2  A    between atoms: C_6  and  C_7
REMARK    3  A    between atoms: C_7  and  N_8
REMARK    4  A    between atoms: C_13  and  C_14
REMARK    5  A    between atoms: C_16  and  C_19
REMARK                            x       y       z     vdW  Elec       q    Type
REMARK                         _______ _______ _______ _____ _____    ______ ____
ROOT
ATOM      8  N   UNL     1      -1.344   1.528  24.776  0.00  0.00    -0.258 NA
ATOM      9  C   UNL     1      -0.694   1.959  24.507  0.00  0.00    +0.106 C 
ATOM     10  C   UNL     1      -0.090   1.426  24.332  0.00  0.00    +0.170 C 
ATOM     11  O   UNL     1       0.660   1.620  24.046  0.00  0.00    -0.222 OA
ATOM     12  C   UNL     1      -0.365   0.666  24.492  0.00  0.00    +0.060 C 
ATOM     13  C   UNL     1      -1.141   0.729  24.766  0.00  0.00    +0.141 C 
ENDROOT
BRANCH  13  14
ATOM     14  C   UNL     1      -1.628   0.102  24.992  0.00  0.00    +0.251 A 
ATOM     15  N   UNL     1      -2.088  -0.360  24.488  0.00  0.00    -0.188 NA
ATOM     16  C   UNL     1      -2.485  -0.920  24.945  0.00  0.00    +0.221 A 
ATOM     17  N   UNL     1      -2.271  -0.804  25.733  0.00  0.00    -0.054 NA
ATOM     18  O   UNL     1      -1.741  -0.172  25.762  0.00  0.00    -0.336 OA
BRANCH  16  19
ATOM     19  C   UNL     1      -3.005  -1.495  24.665  0.00  0.00    +0.120 A 
ATOM     20  N   UNL     1      -2.843  -2.295  24.789  0.00  0.00    -0.241 NA
ATOM     21  C   UNL     1      -3.363  -2.870  24.509  0.00  0.00    +0.099 A 
ATOM     22  C   UNL     1      -4.046  -2.646  24.103  0.00  0.00    +0.021 A 
ATOM     23  C   UNL     1      -4.208  -1.847  23.978  0.00  0.00    +0.003 A 
ATOM     24  C   UNL     1      -3.688  -1.272  24.259  0.00  0.00    +0.022 A 
ENDBRANCH  16  19
ENDBRANCH  13  14
BRANCH   8   7
ATOM      7  C   UNL     1      -2.069   1.842  25.012  0.00  0.00    +0.138 C 
BRANCH   7   6
ATOM      3  C   UNL     1      -2.156   3.957  25.289  0.00  0.00    +0.156 A 
ATOM      4  C   UNL     1      -2.622   3.864  24.615  0.00  0.00    +0.038 A 
ATOM      5  C   UNL     1      -2.647   3.062  24.429  0.00  0.00    +0.037 A 
ATOM      6  C   UNL     1      -2.195   2.657  24.989  0.00  0.00    +0.139 A 
ATOM     25  O   UNL     1      -1.892   3.210  25.520  0.00  0.00    -0.458 OA
BRANCH   3   2
ATOM      1  O   UNL     1      -1.544   5.248  25.274  0.00  0.00    -0.212 OA
ATOM      2  C   UNL     1      -1.984   4.670  25.665  0.00  0.00    +0.246 C 
ENDBRANCH   3   2
ENDBRANCH   7   6
ENDBRANCH   8   7
TORSDOF 5
ENDMDL
