REMARK  Name = 
REMARK  6 active torsions:
REMARK  status: ('A' for Active; 'I' for Inactive)
REMARK    1  A    between atoms: C_3  and  C_4
REMARK    2  A    between atoms: C_6  and  C_11
REMARK    3  A    between atoms: C_14  and  N_15
REMARK    4  A    between atoms: C_16  and  C_18
REMARK    5  A    between atoms: C_18  and  C_19
REMARK    6  A    between atoms: C_19  and  C_20
REMARK                            x       y       z     vdW  Elec       q    Type
REMARK                         _______ _______ _______ _____ _____    ______ ____
ROOT
ATOM     11  C   UNL     1      -1.429  -1.650   0.000  0.00  0.00    +0.006 A 
ATOM     12  C   UNL     1      -0.715  -1.238   0.000  0.00  0.00    -0.001 A 
ATOM     13  C   UNL     1       0.000  -1.650   0.000  0.00  0.00    +0.016 A 
ATOM     14  C   UNL     1       0.000  -2.475   0.000  0.00  0.00    +0.073 A 
ATOM     26  C   UNL     1      -0.715  -2.888   0.000  0.00  0.00    +0.016 A 
ATOM     27  C   UNL     1      -1.429  -2.475   0.000  0.00  0.00    -0.001 A 
ENDROOT
BRANCH  11   6
ATOM      1  C   UNL     1      -2.858   0.825   0.000  0.00  0.00    +0.115 C 
ATOM      2  N   UNL     1      -2.858   0.000   0.000  0.00  0.00    -0.272 N 
ATOM      3  C   UNL     1      -2.143  -0.412   0.000  0.00  0.00    +0.140 C 
ATOM      6  C   UNL     1      -2.143  -1.238   0.000  0.00  0.00    +0.159 C 
ATOM      7  O   UNL     1      -2.858  -1.650   0.000  0.00  0.00    -0.341 OA
ATOM      8  C   UNL     1      -3.572  -1.238   0.000  0.00  0.00    +0.227 C 
ATOM      9  C   UNL     1      -3.572  -0.412   0.000  0.00  0.00    +0.256 C 
ATOM     10  O   UNL     1      -4.287   0.000   0.000  0.00  0.00    -0.272 OA
BRANCH   3   4
ATOM      4  C   UNL     1      -1.429   0.000   0.000  0.00  0.00    +0.205 C 
ATOM      5  O   UNL     1      -0.715  -0.412   0.000  0.00  0.00    -0.218 OA
ENDBRANCH   3   4
ENDBRANCH  11   6
BRANCH  14  15
ATOM     15  N   UNL     1       0.715  -2.888   0.000  0.00  0.00    -0.179 NA
ATOM     16  C   UNL     1       1.429  -2.475   0.000  0.00  0.00    +0.246 C 
ATOM     17  O   UNL     1       1.429  -1.650   0.000  0.00  0.00    -0.273 OA
BRANCH  16  18
ATOM     18  C   UNL     1       2.143  -2.888   0.000  0.00  0.00    +0.092 C 
BRANCH  18  19
ATOM     19  C   UNL     1       2.858  -2.475   0.000  0.00  0.00    +0.036 C 
BRANCH  19  20
ATOM     20  C   UNL     1       3.572  -2.888   0.000  0.00  0.00    -0.022 A 
ATOM     21  C   UNL     1       4.287  -2.475   0.000  0.00  0.00    -0.004 A 
ATOM     22  C   UNL     1       5.001  -2.888   0.000  0.00  0.00    -0.000 A 
ATOM     23  C   UNL     1       5.001  -3.712   0.000  0.00  0.00    -0.000 A 
ATOM     24  C   UNL     1       4.287  -4.125   0.000  0.00  0.00    -0.000 A 
ATOM     25  C   UNL     1       3.572  -3.712   0.000  0.00  0.00    -0.004 A 
ENDBRANCH  19  20
ENDBRANCH  18  19
ENDBRANCH  16  18
ENDBRANCH  14  15
TORSDOF 6
