REMARK  Name = 
REMARK  10 active torsions:
REMARK  status: ('A' for Active; 'I' for Inactive)
REMARK    1  A    between atoms: C_2  and  C_3
REMARK    2  A    between atoms: C_3  and  C_4
REMARK    3  A    between atoms: C_4  and  C_5
REMARK    4  A    between atoms: C_5  and  C_6
REMARK    5  A    between atoms: C_11  and  C_12
REMARK    6  A    between atoms: C_12  and  C_13
REMARK    7  A    between atoms: N_15  and  C_17
REMARK    8  A    between atoms: C_17  and  C_18
REMARK    9  A    between atoms: C_18  and  C_19
REMARK   10  A    between atoms: C_21  and  C_22
REMARK                            x       y       z     vdW  Elec       q    Type
REMARK                         _______ _______ _______ _____ _____    ______ ____
ROOT
ATOM      6  C   UNL     1      -3.572   3.712   0.000  0.00  0.00    +0.226 C 
ATOM      7  O   UNL     1      -3.572   4.537   0.000  0.00  0.00    -0.275 OA
ATOM      8  N   UNL     1      -2.858   3.300   0.000  0.00  0.00    -0.280 N 
ATOM      9  C   UNL     1      -2.143   3.712   0.000  0.00  0.00    +0.093 C 
ATOM     10  C   UNL     1      -1.429   3.300   0.000  0.00  0.00    +0.022 C 
ATOM     11  C   UNL     1      -1.429   2.475   0.000  0.00  0.00    +0.012 C 
ATOM     21  C   UNL     1      -2.143   2.062   0.000  0.00  0.00    +0.020 C 
ATOM     24  C   UNL     1      -2.858   2.475   0.000  0.00  0.00    +0.093 C 
ENDROOT
BRANCH  21  22
ATOM     22  C   UNL     1      -2.143   1.238   0.000  0.00  0.00    +0.002 C 
ATOM     23  C   UNL     1      -2.858   0.825   0.000  0.00  0.00    +0.000 C 
ENDBRANCH  21  22
BRANCH   6   5
ATOM      5  C   UNL     1      -4.287   3.300   0.000  0.00  0.00    +0.085 C 
BRANCH   5   4
ATOM      4  C   UNL     1      -5.001   3.712   0.000  0.00  0.00    +0.010 C 
BRANCH   4   3
ATOM      3  C   UNL     1      -5.716   3.300   0.000  0.00  0.00    +0.001 C 
BRANCH   3   2
ATOM      1  C   UNL     1      -7.145   3.300   0.000  0.00  0.00    +0.000 C 
ATOM      2  C   UNL     1      -6.430   3.712   0.000  0.00  0.00    +0.000 C 
ENDBRANCH   3   2
ENDBRANCH   4   3
ENDBRANCH   5   4
ENDBRANCH   6   5
BRANCH  11  12
ATOM     12  C   UNL     1      -0.715   2.062   0.000  0.00  0.00    +0.085 C 
BRANCH  12  13
ATOM     13  C   UNL     1       0.000   2.475   0.000  0.00  0.00    +0.226 C 
ATOM     14  O   UNL     1       0.000   3.300   0.000  0.00  0.00    -0.275 OA
ATOM     15  N   UNL     1       0.715   2.062   0.000  0.00  0.00    -0.277 N 
ATOM     16  C   UNL     1       0.715   1.238   0.000  0.00  0.00    +0.115 C 
BRANCH  15  17
ATOM     17  C   UNL     1       1.429   2.475   0.000  0.00  0.00    +0.110 C 
BRANCH  17  18
ATOM     18  C   UNL     1       2.143   2.062   0.000  0.00  0.00    +0.127 C 
BRANCH  18  19
ATOM     19  C   UNL     1       2.858   2.475   0.000  0.00  0.00    +0.075 C 
ATOM     20  N   UNL     1       3.572   2.888   0.000  0.00  0.00    -0.196 NA
ENDBRANCH  18  19
ENDBRANCH  17  18
ENDBRANCH  15  17
ENDBRANCH  12  13
ENDBRANCH  11  12
TORSDOF 10
