MODEL 1
REMARK VINA RESULT:     -11.5      0.000      0.000
REMARK  Name = 
REMARK  5 active torsions:
REMARK  status: ('A' for Active; 'I' for Inactive)
REMARK    1  A    between atoms: O_2  and  C_3
REMARK    2  A    between atoms: C_8  and  C_10
REMARK    3  A    between atoms: N_13  and  C_14
REMARK    4  A    between atoms: C_14  and  C_15
REMARK    5  A    between atoms: C_18  and  S_21
REMARK                            x       y       z     vdW  Elec       q    Type
REMARK                         _______ _______ _______ _____ _____    ______ ____
ROOT
ATOM     10  C   UNL     1      -4.732   0.958  24.940  0.00  0.00    +0.076 C 
ATOM     11  C   UNL     1      -5.392   1.166  25.388  0.00  0.00    +0.026 C 
ATOM     12  C   UNL     1      -5.463   1.988  25.374  0.00  0.00    +0.073 C 
ATOM     13  N   UNL     1      -4.846   2.288  24.915  0.00  0.00    -0.269 NA
ATOM     25  C   UNL     1      -4.394   1.651  24.647  0.00  0.00    +0.080 C 
ENDROOT
BRANCH  10   8
ATOM      3  C   UNL     1      -3.288  -2.272  24.680  0.00  0.00    +0.140 A 
ATOM      4  C   UNL     1      -3.254  -1.564  25.102  0.00  0.00    +0.058 A 
ATOM      5  C   UNL     1      -3.763  -0.944  24.910  0.00  0.00    +0.103 A 
ATOM      6  C   UNL     1      -4.307  -1.032  24.296  0.00  0.00    +0.100 A 
ATOM      7  N   UNL     1      -4.736  -0.331  24.232  0.00  0.00    -0.229 NA
ATOM      8  C   UNL     1      -4.457   0.191  24.807  0.00  0.00    +0.140 A 
ATOM      9  N   UNL     1      -3.856  -0.188  25.226  0.00  0.00    -0.229 NA
ATOM     26  C   UNL     1      -4.341  -1.741  23.873  0.00  0.00    +0.024 A 
ATOM     27  C   UNL     1      -3.832  -2.360  24.066  0.00  0.00    +0.039 A 
BRANCH   3   2
ATOM      1  C   UNL     1      -1.994  -2.876  24.617  0.00  0.00    +0.252 C 
ATOM      2  O   UNL     1      -2.779  -2.891  24.872  0.00  0.00    -0.471 OA
ENDBRANCH   3   2
ENDBRANCH  10   8
BRANCH  13  14
ATOM     14  C   UNL     1      -4.705   3.084  24.753  0.00  0.00    +0.099 C 
BRANCH  14  15
ATOM     15  C   UNL     1      -3.955   3.404  24.878  0.00  0.00    -0.006 A 
ATOM     16  C   UNL     1      -3.739   3.673  25.628  0.00  0.00    -0.002 A 
ATOM     17  C   UNL     1      -2.989   3.993  25.751  0.00  0.00    +0.018 A 
ATOM     18  C   UNL     1      -2.454   4.045  25.125  0.00  0.00    +0.106 A 
ATOM     19  C   UNL     1      -2.670   3.777  24.375  0.00  0.00    +0.018 A 
ATOM     20  C   UNL     1      -3.420   3.456  24.251  0.00  0.00    -0.002 A 
BRANCH  18  21
ATOM     21  S   UNL     1      -1.705   4.365  25.249  0.00  0.00    +0.010 S 
ATOM     22  C   UNL     1      -0.954   4.685  25.373  0.00  0.00    +0.182 C 
ATOM     23  O   UNL     1      -1.420   3.619  25.458  0.00  0.00    -0.169 OA
ATOM     24  O   UNL     1      -1.989   5.111  25.041  0.00  0.00    -0.169 OA
ENDBRANCH  18  21
ENDBRANCH  14  15
ENDBRANCH  13  14
TORSDOF 5
ENDMDL
MODEL 2
REMARK VINA RESULT:     -11.1      1.609      5.350
REMARK  Name = 
REMARK  5 active torsions:
REMARK  status: ('A' for Active; 'I' for Inactive)
REMARK    1  A    between atoms: O_2  and  C_3
REMARK    2  A    between atoms: C_8  and  C_10
REMARK    3  A    between atoms: N_13  and  C_14
REMARK    4  A    between atoms: C_14  and  C_15
REMARK    5  A    between atoms: C_18  and  S_21
REMARK                            x       y       z     vdW  Elec       q    Type
REMARK                         _______ _______ _______ _____ _____    ______ ____
ROOT
ATOM     10  C   UNL     1      -3.990   2.086  24.917  0.00  0.00    +0.076 C 
ATOM     11  C   UNL     1      -4.676   2.125  24.461  0.00  0.00    +0.026 C 
ATOM     12  C   UNL     1      -5.062   1.398  24.516  0.00  0.00    +0.073 C 
ATOM     13  N   UNL     1      -4.614   0.909  25.007  0.00  0.00    -0.269 NA
ATOM     25  C   UNL     1      -3.952   1.335  25.255  0.00  0.00    +0.080 C 
ENDROOT
BRANCH  10   8
ATOM      3  C   UNL     1      -1.371   4.470  25.108  0.00  0.00    +0.140 A 
ATOM      4  C   UNL     1      -1.579   3.741  24.784  0.00  0.00    +0.058 A 
ATOM      5  C   UNL     1      -2.324   3.420  24.934  0.00  0.00    +0.103 A 
ATOM      6  C   UNL     1      -2.861   3.828  25.410  0.00  0.00    +0.100 A 
ATOM      7  N   UNL     1      -3.550   3.379  25.461  0.00  0.00    -0.229 NA
ATOM      8  C   UNL     1      -3.440   2.692  25.017  0.00  0.00    +0.140 A 
ATOM      9  N   UNL     1      -2.682   2.718  24.692  0.00  0.00    -0.229 NA
ATOM     26  C   UNL     1      -2.652   4.558  25.735  0.00  0.00    +0.024 A 
ATOM     27  C   UNL     1      -1.907   4.878  25.584  0.00  0.00    +0.039 A 
BRANCH   3   2
ATOM      1  C   UNL     1      -0.560   5.535  24.607  0.00  0.00    +0.252 C 
ATOM      2  O   UNL     1      -0.626   4.790  24.958  0.00  0.00    -0.471 OA
ENDBRANCH   3   2
ENDBRANCH  10   8
BRANCH  13  14
ATOM     14  C   UNL     1      -4.796   0.132  25.214  0.00  0.00    +0.099 C 
BRANCH  14  15
ATOM     15  C   UNL     1      -4.266  -0.477  25.042  0.00  0.00    -0.006 A 
ATOM     16  C   UNL     1      -4.269  -0.827  24.294  0.00  0.00    -0.002 A 
ATOM     17  C   UNL     1      -3.739  -1.435  24.123  0.00  0.00    +0.018 A 
ATOM     18  C   UNL     1      -3.206  -1.693  24.696  0.00  0.00    +0.106 A 
ATOM     19  C   UNL     1      -3.203  -1.343  25.444  0.00  0.00    +0.018 A 
ATOM     20  C   UNL     1      -3.733  -0.734  25.617  0.00  0.00    -0.002 A 
BRANCH  18  21
ATOM     21  S   UNL     1      -2.676  -2.301  24.524  0.00  0.00    +0.010 S 
ATOM     22  C   UNL     1      -2.145  -2.909  24.351  0.00  0.00    +0.182 C 
ATOM     23  O   UNL     1      -2.071  -1.748  24.434  0.00  0.00    -0.169 OA
ATOM     24  O   UNL     1      -3.282  -2.854  24.614  0.00  0.00    -0.169 OA
ENDBRANCH  18  21
ENDBRANCH  14  15
ENDBRANCH  13  14
TORSDOF 5
ENDMDL
MODEL 3
REMARK VINA RESULT:     -10.5      2.173      2.985
REMARK  Name = 
REMARK  5 active torsions:
REMARK  status: ('A' for Active; 'I' for Inactive)
REMARK    1  A    between atoms: O_2  and  C_3
REMARK    2  A    between atoms: C_8  and  C_10
REMARK    3  A    between atoms: N_13  and  C_14
REMARK    4  A    between atoms: C_14  and  C_15
REMARK    5  A    between atoms: C_18  and  S_21
REMARK                            x       y       z     vdW  Elec       q    Type
REMARK                         _______ _______ _______ _____ _____    ______ ____
ROOT
ATOM     10  C   UNL     1      -0.774   0.297  24.601  0.00  0.00    +0.076 C 
ATOM     11  C   UNL     1      -0.229   0.503  24.017  0.00  0.00    +0.026 C 
ATOM     12  C   UNL     1       0.148   1.198  24.252  0.00  0.00    +0.073 C 
ATOM     13  N   UNL     1      -0.164   1.423  24.982  0.00  0.00    -0.269 NA
ATOM     25  C   UNL     1      -0.734   0.865  25.198  0.00  0.00    +0.080 C 
ENDROOT
BRANCH  10   8
ATOM      3  C   UNL     1      -3.226  -2.265  24.553  0.00  0.00    +0.140 A 
ATOM      4  C   UNL     1      -3.124  -1.447  24.558  0.00  0.00    +0.058 A 
ATOM      5  C   UNL     1      -2.365  -1.125  24.571  0.00  0.00    +0.103 A 
ATOM      6  C   UNL     1      -1.707  -1.622  24.579  0.00  0.00    +0.100 A 
ATOM      7  N   UNL     1      -1.031  -1.150  24.591  0.00  0.00    -0.229 NA
ATOM      8  C   UNL     1      -1.271  -0.361  24.591  0.00  0.00    +0.140 A 
ATOM      9  N   UNL     1      -2.095  -0.346  24.578  0.00  0.00    -0.229 NA
ATOM     26  C   UNL     1      -1.808  -2.442  24.574  0.00  0.00    +0.024 A 
ATOM     27  C   UNL     1      -2.568  -2.762  24.561  0.00  0.00    +0.039 A 
BRANCH   3   2
ATOM      1  C   UNL     1      -4.388  -2.667  23.824  0.00  0.00    +0.252 C 
ATOM      2  O   UNL     1      -3.985  -2.587  24.540  0.00  0.00    -0.471 OA
ENDBRANCH   3   2
ENDBRANCH  10   8
BRANCH  13  14
ATOM     14  C   UNL     1       0.054   2.087  25.419  0.00  0.00    +0.099 C 
BRANCH  14  15
ATOM     15  C   UNL     1      -0.389   2.781  25.365  0.00  0.00    -0.006 A 
ATOM     16  C   UNL     1      -0.970   2.945  25.928  0.00  0.00    -0.002 A 
ATOM     17  C   UNL     1      -1.412   3.639  25.873  0.00  0.00    +0.018 A 
ATOM     18  C   UNL     1      -1.274   4.169  25.257  0.00  0.00    +0.106 A 
ATOM     19  C   UNL     1      -0.693   4.006  24.694  0.00  0.00    +0.018 A 
ATOM     20  C   UNL     1      -0.250   3.311  24.748  0.00  0.00    -0.002 A 
BRANCH  18  21
ATOM     21  S   UNL     1      -1.716   4.863  25.203  0.00  0.00    +0.010 S 
ATOM     22  C   UNL     1      -2.160   5.557  25.149  0.00  0.00    +0.182 C 
ATOM     23  O   UNL     1      -2.411   4.427  25.293  0.00  0.00    -0.169 OA
ATOM     24  O   UNL     1      -1.022   5.299  25.113  0.00  0.00    -0.169 OA
ENDBRANCH  18  21
ENDBRANCH  14  15
ENDBRANCH  13  14
TORSDOF 5
ENDMDL
MODEL 4
REMARK VINA RESULT:     -10.3      2.477      6.058
REMARK  Name = 
REMARK  5 active torsions:
REMARK  status: ('A' for Active; 'I' for Inactive)
REMARK    1  A    between atoms: O_2  and  C_3
REMARK    2  A    between atoms: C_8  and  C_10
REMARK    3  A    between atoms: N_13  and  C_14
REMARK    4  A    between atoms: C_14  and  C_15
REMARK    5  A    between atoms: C_18  and  S_21
REMARK                            x       y       z     vdW  Elec       q    Type
REMARK                         _______ _______ _______ _____ _____    ______ ____
ROOT
ATOM     10  C   UNL     1      -0.965   1.117  25.125  0.00  0.00    +0.076 C 
ATOM     11  C   UNL     1      -0.397   0.742  24.660  0.00  0.00    +0.026 C 
ATOM     12  C   UNL     1      -0.449  -0.070  24.797  0.00  0.00    +0.073 C 
ATOM     13  N   UNL     1      -1.050  -0.196  25.348  0.00  0.00    -0.269 NA
ATOM     25  C   UNL     1      -1.369   0.537  25.550  0.00  0.00    +0.080 C 
ENDROOT
BRANCH  10   8
ATOM      3  C   UNL     1      -1.194   4.657  25.101  0.00  0.00    +0.140 A 
ATOM      4  C   UNL     1      -0.704   4.025  24.902  0.00  0.00    +0.058 A 
ATOM      5  C   UNL     1      -0.951   3.250  25.042  0.00  0.00    +0.103 A 
ATOM      6  C   UNL     1      -1.690   3.108  25.380  0.00  0.00    +0.100 A 
ATOM      7  N   UNL     1      -1.785   2.293  25.453  0.00  0.00    -0.229 NA
ATOM      8  C   UNL     1      -1.106   1.930  25.159  0.00  0.00    +0.140 A 
ATOM      9  N   UNL     1      -0.591   2.522  24.905  0.00  0.00    -0.229 NA
ATOM     26  C   UNL     1      -2.182   3.741  25.580  0.00  0.00    +0.024 A 
ATOM     27  C   UNL     1      -1.933   4.515  25.439  0.00  0.00    +0.039 A 
BRANCH   3   2
ATOM      1  C   UNL     1      -1.501   6.041  24.918  0.00  0.00    +0.252 C 
ATOM      2  O   UNL     1      -0.947   5.431  24.961  0.00  0.00    -0.471 OA
ENDBRANCH   3   2
ENDBRANCH  10   8
BRANCH  13  14
ATOM     14  C   UNL     1      -1.290  -0.928  25.644  0.00  0.00    +0.099 C 
BRANCH  14  15
ATOM     15  C   UNL     1      -1.918  -1.331  25.291  0.00  0.00    -0.006 A 
ATOM     16  C   UNL     1      -2.692  -1.181  25.533  0.00  0.00    -0.002 A 
ATOM     17  C   UNL     1      -3.319  -1.584  25.180  0.00  0.00    +0.018 A 
ATOM     18  C   UNL     1      -3.173  -2.137  24.586  0.00  0.00    +0.106 A 
ATOM     19  C   UNL     1      -2.398  -2.287  24.344  0.00  0.00    +0.018 A 
ATOM     20  C   UNL     1      -1.770  -1.884  24.697  0.00  0.00    -0.002 A 
BRANCH  18  21
ATOM     21  S   UNL     1      -3.800  -2.539  24.233  0.00  0.00    +0.010 S 
ATOM     22  C   UNL     1      -4.428  -2.942  23.879  0.00  0.00    +0.182 C 
ATOM     23  O   UNL     1      -3.993  -1.862  23.803  0.00  0.00    -0.169 OA
ATOM     24  O   UNL     1      -3.606  -3.216  24.662  0.00  0.00    -0.169 OA
ENDBRANCH  18  21
ENDBRANCH  14  15
ENDBRANCH  13  14
TORSDOF 5
ENDMDL
MODEL 5
REMARK VINA RESULT:      -9.8      2.368      3.380
REMARK  Name = 
REMARK  5 active torsions:
REMARK  status: ('A' for Active; 'I' for Inactive)
REMARK    1  A    between atoms: O_2  and  C_3
REMARK    2  A    between atoms: C_8  and  C_10
REMARK    3  A    between atoms: N_13  and  C_14
REMARK    4  A    between atoms: C_14  and  C_15
REMARK    5  A    between atoms: C_18  and  S_21
REMARK                            x       y       z     vdW  Elec       q    Type
REMARK                         _______ _______ _______ _____ _____    ______ ____
ROOT
ATOM     10  C   UNL     1      -0.901   2.128  25.185  0.00  0.00    +0.076 C 
ATOM     11  C   UNL     1      -0.337   2.627  25.522  0.00  0.00    +0.026 C 
ATOM     12  C   UNL     1      -0.658   3.385  25.565  0.00  0.00    +0.073 C 
ATOM     13  N   UNL     1      -1.421   3.356  25.254  0.00  0.00    -0.269 NA
ATOM     25  C   UNL     1      -1.571   2.579  25.019  0.00  0.00    +0.080 C 
ENDROOT
BRANCH  10   8
ATOM      3  C   UNL     1      -0.792  -1.402  24.858  0.00  0.00    +0.140 A 
ATOM      4  C   UNL     1      -1.147  -0.788  25.277  0.00  0.00    +0.058 A 
ATOM      5  C   UNL     1      -0.949  -0.004  25.110  0.00  0.00    +0.103 A 
ATOM      6  C   UNL     1      -0.394   0.164  24.523  0.00  0.00    +0.100 A 
ATOM      7  N   UNL     1      -0.309   0.983  24.479  0.00  0.00    -0.229 NA
ATOM      8  C   UNL     1      -0.810   1.321  25.040  0.00  0.00    +0.140 A 
ATOM      9  N   UNL     1      -1.205   0.711  25.429  0.00  0.00    -0.229 NA
ATOM     26  C   UNL     1      -0.038  -0.451  24.103  0.00  0.00    +0.024 A 
ATOM     27  C   UNL     1      -0.237  -1.234  24.271  0.00  0.00    +0.039 A 
BRANCH   3   2
ATOM      1  C   UNL     1      -1.654  -2.527  24.674  0.00  0.00    +0.252 C 
ATOM      2  O   UNL     1      -0.990  -2.184  25.025  0.00  0.00    -0.471 OA
ENDBRANCH   3   2
ENDBRANCH  10   8
BRANCH  13  14
ATOM     14  C   UNL     1      -1.943   3.991  25.188  0.00  0.00    +0.099 C 
BRANCH  14  15
ATOM     15  C   UNL     1      -2.755   3.871  25.284  0.00  0.00    -0.006 A 
ATOM     16  C   UNL     1      -3.229   3.718  24.626  0.00  0.00    -0.002 A 
ATOM     17  C   UNL     1      -4.039   3.598  24.722  0.00  0.00    +0.018 A 
ATOM     18  C   UNL     1      -4.376   3.630  25.474  0.00  0.00    +0.106 A 
ATOM     19  C   UNL     1      -3.901   3.783  26.132  0.00  0.00    +0.018 A 
ATOM     20  C   UNL     1      -3.090   3.904  26.037  0.00  0.00    -0.002 A 
BRANCH  18  21
ATOM     21  S   UNL     1      -5.186   3.510  25.570  0.00  0.00    +0.010 S 
ATOM     22  C   UNL     1      -5.997   3.391  25.665  0.00  0.00    +0.182 C 
ATOM     23  O   UNL     1      -5.319   4.317  25.454  0.00  0.00    -0.169 OA
ATOM     24  O   UNL     1      -5.053   2.705  25.685  0.00  0.00    -0.169 OA
ENDBRANCH  18  21
ENDBRANCH  14  15
ENDBRANCH  13  14
TORSDOF 5
ENDMDL
