MODEL 1
REMARK VINA RESULT:     -11.9      0.000      0.000
REMARK  Name = 
REMARK  8 active torsions:
REMARK  status: ('A' for Active; 'I' for Inactive)
REMARK    1  A    between atoms: C_2  and  C_3
REMARK    2  A    between atoms: C_2  and  C_19
REMARK    3  A    between atoms: N_9  and  C_10
REMARK    4  A    between atoms: C_10  and  C_11
REMARK    5  A    between atoms: C_11  and  C_12
REMARK    6  A    between atoms: C_12  and  C_13
REMARK    7  A    between atoms: C_22  and  N_23
REMARK    8  A    between atoms: C_24  and  C_26
REMARK                            x       y       z     vdW  Elec       q    Type
REMARK                         _______ _______ _______ _____ _____    ______ ____
ROOT
ATOM      1  O   UNL     1      -3.891   3.088  23.436  0.00  0.00    -0.216 OA
ATOM      2  C   UNL     1      -4.066   2.643  24.110  0.00  0.00    +0.195 C 
ENDROOT
BRANCH   2   3
ATOM      3  C   UNL     1      -4.322   3.021  24.797  0.00  0.00    +0.139 C 
ATOM      4  C   UNL     1      -5.094   2.907  25.065  0.00  0.00    +0.165 C 
ATOM      5  O   UNL     1      -5.351   3.285  25.753  0.00  0.00    -0.343 OA
ATOM      6  C   UNL     1      -4.836   3.775  26.171  0.00  0.00    +0.227 C 
ATOM      7  C   UNL     1      -4.064   3.889  25.902  0.00  0.00    +0.256 C 
ATOM      8  O   UNL     1      -3.550   4.379  26.320  0.00  0.00    -0.272 OA
ATOM      9  N   UNL     1      -3.808   3.512  25.215  0.00  0.00    -0.274 N 
BRANCH   9  10
ATOM     10  C   UNL     1      -3.037   3.625  24.946  0.00  0.00    +0.094 C 
BRANCH  10  11
ATOM     11  C   UNL     1      -2.404   3.570  25.473  0.00  0.00    +0.026 C 
BRANCH  11  12
ATOM     12  C   UNL     1      -1.645   3.790  25.231  0.00  0.00    +0.028 C 
BRANCH  12  13
ATOM     13  C   UNL     1      -1.008   3.282  25.359  0.00  0.00    -0.022 A 
ATOM     14  C   UNL     1      -0.525   3.060  24.728  0.00  0.00    -0.004 A 
ATOM     15  C   UNL     1       0.112   2.551  24.856  0.00  0.00    -0.000 A 
ATOM     16  C   UNL     1       0.266   2.265  25.615  0.00  0.00    -0.000 A 
ATOM     17  C   UNL     1      -0.218   2.488  26.246  0.00  0.00    -0.000 A 
ATOM     18  C   UNL     1      -0.855   2.996  26.118  0.00  0.00    -0.004 A 
ENDBRANCH  12  13
ENDBRANCH  11  12
ENDBRANCH  10  11
ENDBRANCH   9  10
ENDBRANCH   2   3
BRANCH   2  19
ATOM     19  C   UNL     1      -3.985   1.823  24.095  0.00  0.00    +0.010 A 
ATOM     20  C   UNL     1      -3.428   1.472  23.597  0.00  0.00    -0.000 A 
ATOM     21  C   UNL     1      -3.346   0.652  23.582  0.00  0.00    +0.016 A 
ATOM     22  C   UNL     1      -3.822   0.181  24.066  0.00  0.00    +0.074 A 
ATOM     31  C   UNL     1      -4.378   0.532  24.563  0.00  0.00    +0.016 A 
ATOM     32  C   UNL     1      -4.460   1.353  24.578  0.00  0.00    -0.000 A 
BRANCH  22  23
ATOM     23  N   UNL     1      -3.741  -0.640  24.051  0.00  0.00    -0.175 NA
ATOM     24  C   UNL     1      -3.217  -1.011  24.569  0.00  0.00    +0.275 C 
ATOM     25  O   UNL     1      -2.773  -0.563  25.102  0.00  0.00    -0.267 OA
BRANCH  24  26
ATOM     26  C   UNL     1      -3.135  -1.832  24.555  0.00  0.00    +0.085 A 
ATOM     27  C   UNL     1      -3.750  -2.380  24.506  0.00  0.00    +0.012 A 
ATOM     28  C   UNL     1      -3.419  -3.136  24.508  0.00  0.00    +0.008 A 
ATOM     29  C   UNL     1      -2.601  -3.056  24.557  0.00  0.00    +0.036 A 
ATOM     30  S   UNL     1      -2.425  -2.250  24.585  0.00  0.00    -0.082 S 
ENDBRANCH  24  26
ENDBRANCH  22  23
ENDBRANCH   2  19
TORSDOF 8
ENDMDL
MODEL 2
REMARK VINA RESULT:     -10.8      2.417      4.667
REMARK  Name = 
REMARK  8 active torsions:
REMARK  status: ('A' for Active; 'I' for Inactive)
REMARK    1  A    between atoms: C_2  and  C_3
REMARK    2  A    between atoms: C_2  and  C_19
REMARK    3  A    between atoms: N_9  and  C_10
REMARK    4  A    between atoms: C_10  and  C_11
REMARK    5  A    between atoms: C_11  and  C_12
REMARK    6  A    between atoms: C_12  and  C_13
REMARK    7  A    between atoms: C_22  and  N_23
REMARK    8  A    between atoms: C_24  and  C_26
REMARK                            x       y       z     vdW  Elec       q    Type
REMARK                         _______ _______ _______ _____ _____    ______ ____
ROOT
ATOM      1  O   UNL     1      -2.067   1.274  25.819  0.00  0.00    -0.216 OA
ATOM      2  C   UNL     1      -1.977   1.567  25.052  0.00  0.00    +0.195 C 
ENDROOT
BRANCH   2   3
ATOM      3  C   UNL     1      -2.609   1.941  24.677  0.00  0.00    +0.139 C 
ATOM      4  C   UNL     1      -2.488   2.655  24.281  0.00  0.00    +0.165 C 
ATOM      5  O   UNL     1      -3.121   3.029  23.905  0.00  0.00    -0.343 OA
ATOM      6  C   UNL     1      -3.872   2.690  23.925  0.00  0.00    +0.227 C 
ATOM      7  C   UNL     1      -3.992   1.975  24.321  0.00  0.00    +0.256 C 
ATOM      8  O   UNL     1      -4.743   1.636  24.341  0.00  0.00    -0.272 OA
ATOM      9  N   UNL     1      -3.360   1.601  24.697  0.00  0.00    -0.274 N 
BRANCH   9  10
ATOM     10  C   UNL     1      -3.480   0.888  25.092  0.00  0.00    +0.094 C 
BRANCH  10  11
ATOM     11  C   UNL     1      -3.810   0.246  24.693  0.00  0.00    +0.026 C 
BRANCH  11  12
ATOM     12  C   UNL     1      -4.079  -0.410  25.117  0.00  0.00    +0.028 C 
BRANCH  12  13
ATOM     13  C   UNL     1      -3.953  -1.171  24.825  0.00  0.00    -0.022 A 
ATOM     14  C   UNL     1      -3.496  -1.707  25.255  0.00  0.00    -0.004 A 
ATOM     15  C   UNL     1      -3.370  -2.468  24.962  0.00  0.00    -0.000 A 
ATOM     16  C   UNL     1      -3.701  -2.693  24.240  0.00  0.00    -0.000 A 
ATOM     17  C   UNL     1      -4.158  -2.156  23.810  0.00  0.00    -0.000 A 
ATOM     18  C   UNL     1      -4.284  -1.395  24.103  0.00  0.00    -0.004 A 
ENDBRANCH  12  13
ENDBRANCH  11  12
ENDBRANCH  10  11
ENDBRANCH   9  10
ENDBRANCH   2   3
BRANCH   2  19
ATOM     19  C   UNL     1      -1.254   1.485  24.663  0.00  0.00    +0.010 A 
ATOM     20  C   UNL     1      -0.579   1.850  24.966  0.00  0.00    -0.000 A 
ATOM     21  C   UNL     1       0.144   1.769  24.576  0.00  0.00    +0.016 A 
ATOM     22  C   UNL     1       0.191   1.322  23.883  0.00  0.00    +0.074 A 
ATOM     31  C   UNL     1      -0.485   0.958  23.581  0.00  0.00    +0.016 A 
ATOM     32  C   UNL     1      -1.207   1.040  23.971  0.00  0.00    -0.000 A 
BRANCH  22  23
ATOM     23  N   UNL     1       0.913   1.241  23.493  0.00  0.00    -0.175 NA
ATOM     24  C   UNL     1       1.224   0.489  23.355  0.00  0.00    +0.275 C 
ATOM     25  O   UNL     1       0.814  -0.181  23.606  0.00  0.00    -0.267 OA
BRANCH  24  26
ATOM     26  C   UNL     1       1.947   0.408  22.965  0.00  0.00    +0.085 A 
ATOM     27  C   UNL     1       2.630   0.845  23.114  0.00  0.00    +0.012 A 
ATOM     28  C   UNL     1       3.219   0.582  22.598  0.00  0.00    +0.008 A 
ATOM     29  C   UNL     1       2.899  -0.017  22.131  0.00  0.00    +0.036 A 
ATOM     30  S   UNL     1       2.113  -0.125  22.358  0.00  0.00    -0.082 S 
ENDBRANCH  24  26
ENDBRANCH  22  23
ENDBRANCH   2  19
TORSDOF 8
ENDMDL
MODEL 3
REMARK VINA RESULT:     -10.3      1.724      3.274
REMARK  Name = 
REMARK  8 active torsions:
REMARK  status: ('A' for Active; 'I' for Inactive)
REMARK    1  A    between atoms: C_2  and  C_3
REMARK    2  A    between atoms: C_2  and  C_19
REMARK    3  A    between atoms: N_9  and  C_10
REMARK    4  A    between atoms: C_10  and  C_11
REMARK    5  A    between atoms: C_11  and  C_12
REMARK    6  A    between atoms: C_12  and  C_13
REMARK    7  A    between atoms: C_22  and  N_23
REMARK    8  A    between atoms: C_24  and  C_26
REMARK                            x       y       z     vdW  Elec       q    Type
REMARK                         _______ _______ _______ _____ _____    ______ ____
ROOT
ATOM      1  O   UNL     1      -0.778   1.890  26.431  0.00  0.00    -0.216 OA
ATOM      2  C   UNL     1      -0.792   1.711  25.625  0.00  0.00    +0.195 C 
ENDROOT
BRANCH   2   3
ATOM      3  C   UNL     1      -0.433   2.220  25.084  0.00  0.00    +0.139 C 
ATOM      4  C   UNL     1       0.161   1.939  24.585  0.00  0.00    +0.165 C 
ATOM      5  O   UNL     1       0.520   2.448  24.044  0.00  0.00    -0.343 OA
ATOM      6  C   UNL     1       0.285   3.238  24.002  0.00  0.00    +0.227 C 
ATOM      7  C   UNL     1      -0.309   3.519  24.502  0.00  0.00    +0.256 C 
ATOM      8  O   UNL     1      -0.544   4.308  24.460  0.00  0.00    -0.272 OA
ATOM      9  N   UNL     1      -0.668   3.010  25.043  0.00  0.00    -0.274 N 
BRANCH   9  10
ATOM     10  C   UNL     1      -1.261   3.291  25.541  0.00  0.00    +0.094 C 
BRANCH  10  11
ATOM     11  C   UNL     1      -1.907   3.696  25.227  0.00  0.00    +0.026 C 
BRANCH  11  12
ATOM     12  C   UNL     1      -2.472   4.026  25.730  0.00  0.00    +0.028 C 
BRANCH  12  13
ATOM     13  C   UNL     1      -3.275   3.911  25.581  0.00  0.00    -0.022 A 
ATOM     14  C   UNL     1      -3.573   4.023  24.819  0.00  0.00    -0.004 A 
ATOM     15  C   UNL     1      -4.376   3.907  24.670  0.00  0.00    -0.000 A 
ATOM     16  C   UNL     1      -4.882   3.679  25.282  0.00  0.00    -0.000 A 
ATOM     17  C   UNL     1      -4.583   3.567  26.043  0.00  0.00    -0.000 A 
ATOM     18  C   UNL     1      -3.780   3.683  26.193  0.00  0.00    -0.004 A 
ENDBRANCH  12  13
ENDBRANCH  11  12
ENDBRANCH  10  11
ENDBRANCH   9  10
ENDBRANCH   2   3
BRANCH   2  19
ATOM     19  C   UNL     1      -1.163   1.023  25.361  0.00  0.00    +0.010 A 
ATOM     20  C   UNL     1      -1.003   0.302  25.728  0.00  0.00    -0.000 A 
ATOM     21  C   UNL     1      -1.374  -0.386  25.464  0.00  0.00    +0.016 A 
ATOM     22  C   UNL     1      -1.906  -0.352  24.833  0.00  0.00    +0.074 A 
ATOM     31  C   UNL     1      -2.065   0.370  24.467  0.00  0.00    +0.016 A 
ATOM     32  C   UNL     1      -1.694   1.057  24.731  0.00  0.00    -0.000 A 
BRANCH  22  23
ATOM     23  N   UNL     1      -2.277  -1.040  24.569  0.00  0.00    -0.175 NA
ATOM     24  C   UNL     1      -3.054  -1.201  24.795  0.00  0.00    +0.275 C 
ATOM     25  O   UNL     1      -3.460  -0.676  25.285  0.00  0.00    -0.267 OA
BRANCH  24  26
ATOM     26  C   UNL     1      -3.426  -1.889  24.531  0.00  0.00    +0.085 A 
ATOM     27  C   UNL     1      -4.045  -1.928  23.989  0.00  0.00    +0.012 A 
ATOM     28  C   UNL     1      -4.245  -2.722  23.886  0.00  0.00    +0.008 A 
ATOM     29  C   UNL     1      -3.749  -3.174  24.364  0.00  0.00    +0.036 A 
ATOM     30  S   UNL     1      -3.243  -2.659  24.764  0.00  0.00    -0.082 S 
ENDBRANCH  24  26
ENDBRANCH  22  23
ENDBRANCH   2  19
TORSDOF 8
ENDMDL
MODEL 4
REMARK VINA RESULT:     -10.1      2.380      4.721
REMARK  Name = 
REMARK  8 active torsions:
REMARK  status: ('A' for Active; 'I' for Inactive)
REMARK    1  A    between atoms: C_2  and  C_3
REMARK    2  A    between atoms: C_2  and  C_19
REMARK    3  A    between atoms: N_9  and  C_10
REMARK    4  A    between atoms: C_10  and  C_11
REMARK    5  A    between atoms: C_11  and  C_12
REMARK    6  A    between atoms: C_12  and  C_13
REMARK    7  A    between atoms: C_22  and  N_23
REMARK    8  A    between atoms: C_24  and  C_26
REMARK                            x       y       z     vdW  Elec       q    Type
REMARK                         _______ _______ _______ _____ _____    ______ ____
ROOT
ATOM      1  O   UNL     1      -2.580  -0.665  26.095  0.00  0.00    -0.216 OA
ATOM      2  C   UNL     1      -2.412  -0.880  25.315  0.00  0.00    +0.195 C 
ENDROOT
BRANCH   2   3
ATOM      3  C   UNL     1      -2.995  -1.231  24.850  0.00  0.00    +0.139 C 
ATOM      4  C   UNL     1      -2.856  -1.965  24.501  0.00  0.00    +0.165 C 
ATOM      5  O   UNL     1      -3.440  -2.317  24.034  0.00  0.00    -0.343 OA
ATOM      6  C   UNL     1      -4.161  -1.933  23.918  0.00  0.00    +0.227 C 
ATOM      7  C   UNL     1      -4.299  -1.199  24.267  0.00  0.00    +0.256 C 
ATOM      8  O   UNL     1      -5.020  -0.815  24.151  0.00  0.00    -0.272 OA
ATOM      9  N   UNL     1      -3.716  -0.848  24.733  0.00  0.00    -0.274 N 
BRANCH   9  10
ATOM     10  C   UNL     1      -3.854  -0.114  25.082  0.00  0.00    +0.094 C 
BRANCH  10  11
ATOM     11  C   UNL     1      -4.135   0.514  24.626  0.00  0.00    +0.026 C 
BRANCH  11  12
ATOM     12  C   UNL     1      -4.512   1.152  24.989  0.00  0.00    +0.028 C 
BRANCH  12  13
ATOM     13  C   UNL     1      -4.318   1.924  24.771  0.00  0.00    -0.022 A 
ATOM     14  C   UNL     1      -4.202   2.499  25.351  0.00  0.00    -0.004 A 
ATOM     15  C   UNL     1      -4.008   3.271  25.133  0.00  0.00    -0.000 A 
ATOM     16  C   UNL     1      -3.931   3.468  24.335  0.00  0.00    -0.000 A 
ATOM     17  C   UNL     1      -4.047   2.892  23.755  0.00  0.00    -0.000 A 
ATOM     18  C   UNL     1      -4.241   2.120  23.973  0.00  0.00    -0.004 A 
ENDBRANCH  12  13
ENDBRANCH  11  12
ENDBRANCH  10  11
ENDBRANCH   9  10
ENDBRANCH   2   3
BRANCH   2  19
ATOM     19  C   UNL     1      -1.660  -0.744  25.003  0.00  0.00    +0.010 A 
ATOM     20  C   UNL     1      -1.174  -1.381  24.807  0.00  0.00    -0.000 A 
ATOM     21  C   UNL     1      -0.423  -1.245  24.494  0.00  0.00    +0.016 A 
ATOM     22  C   UNL     1      -0.157  -0.472  24.378  0.00  0.00    +0.074 A 
ATOM     31  C   UNL     1      -0.645   0.165  24.575  0.00  0.00    +0.016 A 
ATOM     32  C   UNL     1      -1.396   0.028  24.887  0.00  0.00    -0.000 A 
BRANCH  22  23
ATOM     23  N   UNL     1       0.594  -0.335  24.066  0.00  0.00    -0.175 NA
ATOM     24  C   UNL     1       0.675  -0.073  23.288  0.00  0.00    +0.275 C 
ATOM     25  O   UNL     1       0.006   0.053  22.822  0.00  0.00    -0.267 OA
BRANCH  24  26
ATOM     26  C   UNL     1       1.427   0.063  22.975  0.00  0.00    +0.085 A 
ATOM     27  C   UNL     1       1.993   0.579  23.281  0.00  0.00    +0.012 A 
ATOM     28  C   UNL     1       2.660   0.542  22.797  0.00  0.00    +0.008 A 
ATOM     29  C   UNL     1       2.506   0.004  22.192  0.00  0.00    +0.036 A 
ATOM     30  S   UNL     1       1.744  -0.293  22.302  0.00  0.00    -0.082 S 
ENDBRANCH  24  26
ENDBRANCH  22  23
ENDBRANCH   2  19
TORSDOF 8
ENDMDL
MODEL 5
REMARK VINA RESULT:      -9.9      2.172      5.365
REMARK  Name = 
REMARK  8 active torsions:
REMARK  status: ('A' for Active; 'I' for Inactive)
REMARK    1  A    between atoms: C_2  and  C_3
REMARK    2  A    between atoms: C_2  and  C_19
REMARK    3  A    between atoms: N_9  and  C_10
REMARK    4  A    between atoms: C_10  and  C_11
REMARK    5  A    between atoms: C_11  and  C_12
REMARK    6  A    between atoms: C_12  and  C_13
REMARK    7  A    between atoms: C_22  and  N_23
REMARK    8  A    between atoms: C_24  and  C_26
REMARK                            x       y       z     vdW  Elec       q    Type
REMARK                         _______ _______ _______ _____ _____    ______ ____
ROOT
ATOM      1  O   UNL     1      -0.562   0.685  26.013  0.00  0.00    -0.216 OA
ATOM      2  C   UNL     1      -0.778   1.011  25.286  0.00  0.00    +0.195 C 
ENDROOT
BRANCH   2   3
ATOM      3  C   UNL     1      -0.368   0.801  24.602  0.00  0.00    +0.139 C 
ATOM      4  C   UNL     1      -0.036   1.386  24.125  0.00  0.00    +0.165 C 
ATOM      5  O   UNL     1       0.374   1.177  23.441  0.00  0.00    -0.343 OA
ATOM      6  C   UNL     1       0.453   0.382  23.234  0.00  0.00    +0.227 C 
ATOM      7  C   UNL     1       0.121  -0.203  23.712  0.00  0.00    +0.256 C 
ATOM      8  O   UNL     1       0.200  -0.998  23.505  0.00  0.00    -0.272 OA
ATOM      9  N   UNL     1      -0.289   0.006  24.396  0.00  0.00    -0.274 N 
BRANCH   9  10
ATOM     10  C   UNL     1      -0.620  -0.579  24.873  0.00  0.00    +0.094 C 
BRANCH  10  11
ATOM     11  C   UNL     1      -1.104  -1.158  24.540  0.00  0.00    +0.026 C 
BRANCH  11  12
ATOM     12  C   UNL     1      -1.388  -1.777  25.006  0.00  0.00    +0.028 C 
BRANCH  12  13
ATOM     13  C   UNL     1      -2.143  -2.082  24.872  0.00  0.00    -0.022 A 
ATOM     14  C   UNL     1      -2.773  -1.848  25.350  0.00  0.00    -0.004 A 
ATOM     15  C   UNL     1      -3.528  -2.154  25.216  0.00  0.00    -0.000 A 
ATOM     16  C   UNL     1      -3.652  -2.693  24.603  0.00  0.00    -0.000 A 
ATOM     17  C   UNL     1      -3.021  -2.926  24.125  0.00  0.00    -0.000 A 
ATOM     18  C   UNL     1      -2.266  -2.621  24.259  0.00  0.00    -0.004 A 
ENDBRANCH  12  13
ENDBRANCH  11  12
ENDBRANCH  10  11
ENDBRANCH   9  10
ENDBRANCH   2   3
BRANCH   2  19
ATOM     19  C   UNL     1      -1.404   1.547  25.244  0.00  0.00    +0.010 A 
ATOM     20  C   UNL     1      -1.372   2.252  25.671  0.00  0.00    -0.000 A 
ATOM     21  C   UNL     1      -1.998   2.788  25.629  0.00  0.00    +0.016 A 
ATOM     22  C   UNL     1      -2.656   2.618  25.160  0.00  0.00    +0.074 A 
ATOM     31  C   UNL     1      -2.687   1.912  24.734  0.00  0.00    +0.016 A 
ATOM     32  C   UNL     1      -2.061   1.377  24.776  0.00  0.00    -0.000 A 
BRANCH  22  23
ATOM     23  N   UNL     1      -3.282   3.154  25.118  0.00  0.00    -0.175 NA
ATOM     24  C   UNL     1      -4.022   2.947  25.419  0.00  0.00    +0.275 C 
ATOM     25  O   UNL     1      -4.137   2.206  25.763  0.00  0.00    -0.267 OA
BRANCH  24  26
ATOM     26  C   UNL     1      -4.648   3.483  25.377  0.00  0.00    +0.085 A 
ATOM     27  C   UNL     1      -4.605   4.258  25.099  0.00  0.00    +0.012 A 
ATOM     28  C   UNL     1      -5.358   4.592  25.156  0.00  0.00    +0.008 A 
ATOM     29  C   UNL     1      -5.866   4.023  25.469  0.00  0.00    +0.036 A 
ATOM     30  S   UNL     1      -5.427   3.338  25.606  0.00  0.00    -0.082 S 
ENDBRANCH  24  26
ENDBRANCH  22  23
ENDBRANCH   2  19
TORSDOF 8
ENDMDL
