MODEL 1
REMARK VINA RESULT:     -12.2      0.000      0.000
REMARK  Name = 
REMARK  6 active torsions:
REMARK  status: ('A' for Active; 'I' for Inactive)
REMARK    1  A    between atoms: C_2  and  C_4
REMARK    2  A    between atoms: C_6  and  C_7
REMARK    3  A    between atoms: C_7  and  C_8
REMARK    4  A    between atoms: C_11  and  C_13
REMARK    5  A    between atoms: C_23  and  C_24
REMARK    6  A    between atoms: C_24  and  N_25
REMARK                            x       y       z     vdW  Elec       q    Type
REMARK                         _______ _______ _______ _____ _____    ______ ____
ROOT
ATOM      4  C   UNL     1      -2.984   0.538  24.820  0.00  0.00    +0.006 C 
ATOM      5  C   UNL     1      -2.263   0.938  24.832  0.00  0.00    +0.005 C 
ATOM      6  C   UNL     1      -1.564   0.524  24.979  0.00  0.00    +0.027 C 
ATOM     20  C   UNL     1      -1.587  -0.289  25.114  0.00  0.00    -0.048 C 
ATOM     21  C   UNL     1      -0.889  -0.702  25.261  0.00  0.00    +0.026 C 
ATOM     22  C   UNL     1      -2.309  -0.689  25.102  0.00  0.00    -0.034 C 
ATOM     23  C   UNL     1      -3.007  -0.276  24.955  0.00  0.00    +0.037 C 
ENDROOT
BRANCH   4   2
ATOM      1  C   UNL     1      -3.868   1.187  23.904  0.00  0.00    +0.000 C 
ATOM      2  C   UNL     1      -3.682   0.952  24.673  0.00  0.00    +0.000 C 
ATOM      3  C   UNL     1      -4.194   1.131  25.294  0.00  0.00    +0.000 C 
ENDBRANCH   4   2
BRANCH   6   7
ATOM      7  C   UNL     1      -0.843   0.925  24.990  0.00  0.00    +0.091 C 
BRANCH   7   8
ATOM      8  C   UNL     1      -0.798   1.683  25.308  0.00  0.00    +0.227 A 
ATOM      9  N   UNL     1      -0.487   1.882  26.047  0.00  0.00    -0.111 NA
ATOM     10  N   UNL     1      -0.552   2.700  26.139  0.00  0.00    -0.107 NA
ATOM     11  C   UNL     1      -0.903   3.006  25.458  0.00  0.00    +0.250 A 
ATOM     12  O   UNL     1      -1.055   2.378  24.945  0.00  0.00    -0.420 OA
BRANCH  11  13
ATOM     13  C   UNL     1      -1.072   3.800  25.315  0.00  0.00    +0.055 A 
ATOM     14  C   UNL     1      -1.782   4.126  25.583  0.00  0.00    +0.004 A 
ATOM     15  C   UNL     1      -1.952   4.920  25.441  0.00  0.00    -0.004 A 
ATOM     16  C   UNL     1      -1.412   5.390  25.030  0.00  0.00    -0.022 A 
ATOM     17  C   UNL     1      -1.582   6.185  24.887  0.00  0.00    +0.031 C 
ATOM     18  C   UNL     1      -0.702   5.066  24.762  0.00  0.00    -0.004 A 
ATOM     19  C   UNL     1      -0.533   4.270  24.905  0.00  0.00    +0.004 A 
ENDBRANCH  11  13
ENDBRANCH   7   8
ENDBRANCH   6   7
BRANCH  23  24
ATOM     24  C   UNL     1      -3.728  -0.675  24.944  0.00  0.00    +0.076 C 
BRANCH  24  25
ATOM     25  N   UNL     1      -3.755  -1.472  24.727  0.00  0.00    -0.272 NA
ATOM     26  C   UNL     1      -3.967  -1.683  23.958  0.00  0.00    +0.075 C 
ATOM     27  C   UNL     1      -3.994  -2.478  23.741  0.00  0.00    +0.050 C 
ATOM     28  C   UNL     1      -3.809  -3.063  24.294  0.00  0.00    +0.155 C 
ATOM     29  O   UNL     1      -3.836  -3.858  24.078  0.00  0.00    -0.223 OA
ATOM     30  C   UNL     1      -3.598  -2.851  25.063  0.00  0.00    +0.050 C 
ATOM     31  C   UNL     1      -3.571  -2.056  25.279  0.00  0.00    +0.075 C 
ENDBRANCH  24  25
ENDBRANCH  23  24
TORSDOF 6
ENDMDL
MODEL 2
REMARK VINA RESULT:     -11.9      1.382      6.022
REMARK  Name = 
REMARK  6 active torsions:
REMARK  status: ('A' for Active; 'I' for Inactive)
REMARK    1  A    between atoms: C_2  and  C_4
REMARK    2  A    between atoms: C_6  and  C_7
REMARK    3  A    between atoms: C_7  and  C_8
REMARK    4  A    between atoms: C_11  and  C_13
REMARK    5  A    between atoms: C_23  and  C_24
REMARK    6  A    between atoms: C_24  and  N_25
REMARK                            x       y       z     vdW  Elec       q    Type
REMARK                         _______ _______ _______ _____ _____    ______ ____
ROOT
ATOM      4  C   UNL     1      -1.735   1.842  24.646  0.00  0.00    +0.006 C 
ATOM      5  C   UNL     1      -2.342   1.413  24.289  0.00  0.00    +0.005 C 
ATOM      6  C   UNL     1      -3.021   1.801  24.024  0.00  0.00    +0.027 C 
ATOM     20  C   UNL     1      -3.092   2.618  24.116  0.00  0.00    -0.048 C 
ATOM     21  C   UNL     1      -3.770   3.005  23.851  0.00  0.00    +0.026 C 
ATOM     22  C   UNL     1      -2.484   3.046  24.473  0.00  0.00    -0.034 C 
ATOM     23  C   UNL     1      -1.806   2.659  24.738  0.00  0.00    +0.037 C 
ENDROOT
BRANCH   4   2
ATOM      1  C   UNL     1      -0.443   1.292  24.383  0.00  0.00    +0.000 C 
ATOM      2  C   UNL     1      -1.057   1.454  24.911  0.00  0.00    +0.000 C 
ATOM      3  C   UNL     1      -0.993   1.229  25.701  0.00  0.00    +0.000 C 
ENDBRANCH   4   2
BRANCH   6   7
ATOM      7  C   UNL     1      -3.628   1.371  23.667  0.00  0.00    +0.091 C 
BRANCH   7   8
ATOM      8  C   UNL     1      -3.900   0.675  24.014  0.00  0.00    +0.227 A 
ATOM      9  N   UNL     1      -4.532   0.612  24.542  0.00  0.00    -0.111 NA
ATOM     10  N   UNL     1      -4.611  -0.183  24.749  0.00  0.00    -0.107 NA
ATOM     11  C   UNL     1      -4.030  -0.610  24.349  0.00  0.00    +0.250 A 
ATOM     12  O   UNL     1      -3.591  -0.080  23.895  0.00  0.00    -0.420 OA
BRANCH  11  13
ATOM     13  C   UNL     1      -3.909  -1.425  24.395  0.00  0.00    +0.055 A 
ATOM     14  C   UNL     1      -3.466  -1.742  25.015  0.00  0.00    +0.004 A 
ATOM     15  C   UNL     1      -3.344  -2.556  25.062  0.00  0.00    -0.004 A 
ATOM     16  C   UNL     1      -3.666  -3.054  24.488  0.00  0.00    -0.022 A 
ATOM     17  C   UNL     1      -3.544  -3.869  24.534  0.00  0.00    +0.031 C 
ATOM     18  C   UNL     1      -4.108  -2.739  23.867  0.00  0.00    -0.004 A 
ATOM     19  C   UNL     1      -4.229  -1.923  23.822  0.00  0.00    +0.004 A 
ENDBRANCH  11  13
ENDBRANCH   7   8
ENDBRANCH   6   7
BRANCH  23  24
ATOM     24  C   UNL     1      -1.199   3.088  25.095  0.00  0.00    +0.076 C 
BRANCH  24  25
ATOM     25  N   UNL     1      -1.198   3.913  25.056  0.00  0.00    -0.272 NA
ATOM     26  C   UNL     1      -0.693   4.300  24.531  0.00  0.00    +0.075 C 
ATOM     27  C   UNL     1      -0.692   5.124  24.493  0.00  0.00    +0.050 C 
ATOM     28  C   UNL     1      -1.197   5.561  24.978  0.00  0.00    +0.155 C 
ATOM     29  O   UNL     1      -1.196   6.384  24.939  0.00  0.00    -0.223 OA
ATOM     30  C   UNL     1      -1.702   5.173  25.502  0.00  0.00    +0.050 C 
ATOM     31  C   UNL     1      -1.703   4.349  25.541  0.00  0.00    +0.075 C 
ENDBRANCH  24  25
ENDBRANCH  23  24
TORSDOF 6
ENDMDL
MODEL 3
REMARK VINA RESULT:     -11.8      1.436      2.195
REMARK  Name = 
REMARK  6 active torsions:
REMARK  status: ('A' for Active; 'I' for Inactive)
REMARK    1  A    between atoms: C_2  and  C_4
REMARK    2  A    between atoms: C_6  and  C_7
REMARK    3  A    between atoms: C_7  and  C_8
REMARK    4  A    between atoms: C_11  and  C_13
REMARK    5  A    between atoms: C_23  and  C_24
REMARK    6  A    between atoms: C_24  and  N_25
REMARK                            x       y       z     vdW  Elec       q    Type
REMARK                         _______ _______ _______ _____ _____    ______ ____
ROOT
ATOM      4  C   UNL     1      -3.368   1.104  23.750  0.00  0.00    +0.006 C 
ATOM      5  C   UNL     1      -3.667   1.794  24.089  0.00  0.00    +0.005 C 
ATOM      6  C   UNL     1      -4.271   1.750  24.650  0.00  0.00    +0.027 C 
ATOM     20  C   UNL     1      -4.576   1.016  24.871  0.00  0.00    -0.048 C 
ATOM     21  C   UNL     1      -5.179   0.972  25.431  0.00  0.00    +0.026 C 
ATOM     22  C   UNL     1      -4.276   0.326  24.531  0.00  0.00    -0.034 C 
ATOM     23  C   UNL     1      -3.673   0.370  23.971  0.00  0.00    +0.037 C 
ENDROOT
BRANCH   4   2
ATOM      1  C   UNL     1      -2.948   1.283  22.396  0.00  0.00    +0.000 C 
ATOM      2  C   UNL     1      -2.764   1.149  23.190  0.00  0.00    +0.000 C 
ATOM      3  C   UNL     1      -1.979   1.061  23.422  0.00  0.00    +0.000 C 
ENDBRANCH   4   2
BRANCH   6   7
ATOM      7  C   UNL     1      -4.570   2.440  24.989  0.00  0.00    +0.091 C 
BRANCH   7   8
ATOM      8  C   UNL     1      -4.056   2.996  25.314  0.00  0.00    +0.227 A 
ATOM      9  N   UNL     1      -4.109   3.319  26.072  0.00  0.00    -0.111 NA
ATOM     10  N   UNL     1      -3.484   3.850  26.166  0.00  0.00    -0.107 NA
ATOM     11  C   UNL     1      -3.046   3.855  25.467  0.00  0.00    +0.250 A 
ATOM     12  O   UNL     1      -3.400   3.327  24.941  0.00  0.00    -0.420 OA
BRANCH  11  13
ATOM     13  C   UNL     1      -2.372   4.307  25.320  0.00  0.00    +0.055 A 
ATOM     14  C   UNL     1      -2.444   5.112  25.152  0.00  0.00    +0.004 A 
ATOM     15  C   UNL     1      -1.771   5.566  25.004  0.00  0.00    -0.004 A 
ATOM     16  C   UNL     1      -1.025   5.213  25.025  0.00  0.00    -0.022 A 
ATOM     17  C   UNL     1      -0.351   5.667  24.877  0.00  0.00    +0.031 C 
ATOM     18  C   UNL     1      -0.952   4.409  25.193  0.00  0.00    -0.004 A 
ATOM     19  C   UNL     1      -1.626   3.956  25.340  0.00  0.00    +0.004 A 
ENDBRANCH  11  13
ENDBRANCH   7   8
ENDBRANCH   6   7
BRANCH  23  24
ATOM     24  C   UNL     1      -3.373  -0.319  23.632  0.00  0.00    +0.076 C 
BRANCH  24  25
ATOM     25  N   UNL     1      -3.440  -1.039  24.033  0.00  0.00    -0.272 NA
ATOM     26  C   UNL     1      -4.040  -1.568  23.832  0.00  0.00    +0.075 C 
ATOM     27  C   UNL     1      -4.106  -2.286  24.232  0.00  0.00    +0.050 C 
ATOM     28  C   UNL     1      -3.572  -2.476  24.832  0.00  0.00    +0.155 C 
ATOM     29  O   UNL     1      -3.638  -3.193  25.232  0.00  0.00    -0.223 OA
ATOM     30  C   UNL     1      -2.972  -1.946  25.032  0.00  0.00    +0.050 C 
ATOM     31  C   UNL     1      -2.906  -1.227  24.632  0.00  0.00    +0.075 C 
ENDBRANCH  24  25
ENDBRANCH  23  24
TORSDOF 6
ENDMDL
MODEL 4
REMARK VINA RESULT:     -11.7      1.759      5.919
REMARK  Name = 
REMARK  6 active torsions:
REMARK  status: ('A' for Active; 'I' for Inactive)
REMARK    1  A    between atoms: C_2  and  C_4
REMARK    2  A    between atoms: C_6  and  C_7
REMARK    3  A    between atoms: C_7  and  C_8
REMARK    4  A    between atoms: C_11  and  C_13
REMARK    5  A    between atoms: C_23  and  C_24
REMARK    6  A    between atoms: C_24  and  N_25
REMARK                            x       y       z     vdW  Elec       q    Type
REMARK                         _______ _______ _______ _____ _____    ______ ____
ROOT
ATOM      4  C   UNL     1      -4.005   3.176  25.204  0.00  0.00    +0.006 C 
ATOM      5  C   UNL     1      -4.324   2.564  24.753  0.00  0.00    +0.005 C 
ATOM      6  C   UNL     1      -3.885   2.236  24.136  0.00  0.00    +0.027 C 
ATOM     20  C   UNL     1      -3.128   2.519  23.971  0.00  0.00    -0.048 C 
ATOM     21  C   UNL     1      -2.689   2.191  23.355  0.00  0.00    +0.026 C 
ATOM     22  C   UNL     1      -2.810   3.132  24.424  0.00  0.00    -0.034 C 
ATOM     23  C   UNL     1      -3.248   3.460  25.040  0.00  0.00    +0.037 C 
ENDROOT
BRANCH   4   2
ATOM      1  C   UNL     1      -4.269   3.305  26.603  0.00  0.00    +0.000 C 
ATOM      2  C   UNL     1      -4.444   3.505  25.821  0.00  0.00    +0.000 C 
ATOM      3  C   UNL     1      -5.056   4.031  25.657  0.00  0.00    +0.000 C 
ENDBRANCH   4   2
BRANCH   6   7
ATOM      7  C   UNL     1      -4.204   1.624  23.684  0.00  0.00    +0.091 C 
BRANCH   7   8
ATOM      8  C   UNL     1      -4.370   0.896  24.034  0.00  0.00    +0.227 A 
ATOM      9  N   UNL     1      -5.035   0.718  24.489  0.00  0.00    -0.111 NA
ATOM     10  N   UNL     1      -4.977  -0.070  24.727  0.00  0.00    -0.107 NA
ATOM     11  C   UNL     1      -4.277  -0.379  24.419  0.00  0.00    +0.250 A 
ATOM     12  O   UNL     1      -3.902   0.219  23.990  0.00  0.00    -0.420 OA
BRANCH  11  13
ATOM     13  C   UNL     1      -4.000  -1.149  24.521  0.00  0.00    +0.055 A 
ATOM     14  C   UNL     1      -4.146  -1.720  23.943  0.00  0.00    +0.004 A 
ATOM     15  C   UNL     1      -3.869  -2.491  24.044  0.00  0.00    -0.004 A 
ATOM     16  C   UNL     1      -3.446  -2.690  24.724  0.00  0.00    -0.022 A 
ATOM     17  C   UNL     1      -3.169  -3.461  24.826  0.00  0.00    +0.031 C 
ATOM     18  C   UNL     1      -3.299  -2.120  25.302  0.00  0.00    -0.004 A 
ATOM     19  C   UNL     1      -3.577  -1.349  25.199  0.00  0.00    +0.004 A 
ENDBRANCH  11  13
ENDBRANCH   7   8
ENDBRANCH   6   7
BRANCH  23  24
ATOM     24  C   UNL     1      -2.930   4.072  25.492  0.00  0.00    +0.076 C 
BRANCH  24  25
ATOM     25  N   UNL     1      -2.187   4.381  25.304  0.00  0.00    -0.272 NA
ATOM     26  C   UNL     1      -2.129   5.112  24.925  0.00  0.00    +0.075 C 
ATOM     27  C   UNL     1      -1.387   5.421  24.737  0.00  0.00    +0.050 C 
ATOM     28  C   UNL     1      -0.704   4.999  24.928  0.00  0.00    +0.155 C 
ATOM     29  O   UNL     1       0.037   5.307  24.740  0.00  0.00    -0.223 OA
ATOM     30  C   UNL     1      -0.763   4.268  25.307  0.00  0.00    +0.050 C 
ATOM     31  C   UNL     1      -1.505   3.959  25.495  0.00  0.00    +0.075 C 
ENDBRANCH  24  25
ENDBRANCH  23  24
TORSDOF 6
ENDMDL
MODEL 5
REMARK VINA RESULT:     -11.0      2.029      5.022
REMARK  Name = 
REMARK  6 active torsions:
REMARK  status: ('A' for Active; 'I' for Inactive)
REMARK    1  A    between atoms: C_2  and  C_4
REMARK    2  A    between atoms: C_6  and  C_7
REMARK    3  A    between atoms: C_7  and  C_8
REMARK    4  A    between atoms: C_11  and  C_13
REMARK    5  A    between atoms: C_23  and  C_24
REMARK    6  A    between atoms: C_24  and  N_25
REMARK                            x       y       z     vdW  Elec       q    Type
REMARK                         _______ _______ _______ _____ _____    ______ ____
ROOT
ATOM      4  C   UNL     1      -2.372   2.034  23.508  0.00  0.00    +0.006 C 
ATOM      5  C   UNL     1      -1.731   1.566  23.732  0.00  0.00    +0.005 C 
ATOM      6  C   UNL     1      -1.420   1.629  24.494  0.00  0.00    +0.027 C 
ATOM     20  C   UNL     1      -1.750   2.161  25.031  0.00  0.00    -0.048 C 
ATOM     21  C   UNL     1      -1.440   2.225  25.792  0.00  0.00    +0.026 C 
ATOM     22  C   UNL     1      -2.391   2.630  24.806  0.00  0.00    -0.034 C 
ATOM     23  C   UNL     1      -2.702   2.566  24.045  0.00  0.00    +0.037 C 
ENDROOT
BRANCH   4   2
ATOM      1  C   UNL     1      -2.463   2.515  22.166  0.00  0.00    +0.000 C 
ATOM      2  C   UNL     1      -2.682   1.970  22.747  0.00  0.00    +0.000 C 
ATOM      3  C   UNL     1      -3.209   1.364  22.565  0.00  0.00    +0.000 C 
ENDBRANCH   4   2
BRANCH   6   7
ATOM      7  C   UNL     1      -0.779   1.161  24.718  0.00  0.00    +0.091 C 
BRANCH   7   8
ATOM      8  C   UNL     1      -0.848   0.340  24.718  0.00  0.00    +0.227 A 
ATOM      9  N   UNL     1      -0.224  -0.200  24.691  0.00  0.00    -0.111 NA
ATOM     10  N   UNL     1      -0.544  -0.960  24.701  0.00  0.00    -0.107 NA
ATOM     11  C   UNL     1      -1.365  -0.891  24.733  0.00  0.00    +0.250 A 
ATOM     12  O   UNL     1      -1.553  -0.088  24.743  0.00  0.00    -0.420 OA
BRANCH  11  13
ATOM     13  C   UNL     1      -1.904  -1.515  24.752  0.00  0.00    +0.055 A 
ATOM     14  C   UNL     1      -2.619  -1.431  25.155  0.00  0.00    +0.004 A 
ATOM     15  C   UNL     1      -3.159  -2.054  25.175  0.00  0.00    -0.004 A 
ATOM     16  C   UNL     1      -2.983  -2.763  24.790  0.00  0.00    -0.022 A 
ATOM     17  C   UNL     1      -3.523  -3.387  24.809  0.00  0.00    +0.031 C 
ATOM     18  C   UNL     1      -2.269  -2.848  24.386  0.00  0.00    -0.004 A 
ATOM     19  C   UNL     1      -1.729  -2.223  24.368  0.00  0.00    +0.004 A 
ENDBRANCH  11  13
ENDBRANCH   7   8
ENDBRANCH   6   7
BRANCH  23  24
ATOM     24  C   UNL     1      -3.342   3.034  23.821  0.00  0.00    +0.076 C 
BRANCH  24  25
ATOM     25  N   UNL     1      -3.934   3.215  24.369  0.00  0.00    -0.272 NA
ATOM     26  C   UNL     1      -3.934   3.947  24.748  0.00  0.00    +0.075 C 
ATOM     27  C   UNL     1      -4.525   4.128  25.295  0.00  0.00    +0.050 C 
ATOM     28  C   UNL     1      -5.115   3.575  25.463  0.00  0.00    +0.155 C 
ATOM     29  O   UNL     1      -5.705   3.755  26.009  0.00  0.00    -0.223 OA
ATOM     30  C   UNL     1      -5.114   2.843  25.083  0.00  0.00    +0.050 C 
ATOM     31  C   UNL     1      -4.523   2.663  24.536  0.00  0.00    +0.075 C 
ENDBRANCH  24  25
ENDBRANCH  23  24
TORSDOF 6
ENDMDL
MODEL 6
REMARK VINA RESULT:     -10.8      2.389      3.905
REMARK  Name = 
REMARK  6 active torsions:
REMARK  status: ('A' for Active; 'I' for Inactive)
REMARK    1  A    between atoms: C_2  and  C_4
REMARK    2  A    between atoms: C_6  and  C_7
REMARK    3  A    between atoms: C_7  and  C_8
REMARK    4  A    between atoms: C_11  and  C_13
REMARK    5  A    between atoms: C_23  and  C_24
REMARK    6  A    between atoms: C_24  and  N_25
REMARK                            x       y       z     vdW  Elec       q    Type
REMARK                         _______ _______ _______ _____ _____    ______ ____
ROOT
ATOM      4  C   UNL     1      -1.020   2.122  24.618  0.00  0.00    +0.006 C 
ATOM      5  C   UNL     1      -1.593   2.605  24.274  0.00  0.00    +0.005 C 
ATOM      6  C   UNL     1      -2.070   2.311  23.667  0.00  0.00    +0.027 C 
ATOM     20  C   UNL     1      -1.973   1.534  23.406  0.00  0.00    -0.048 C 
ATOM     21  C   UNL     1      -2.450   1.241  22.800  0.00  0.00    +0.026 C 
ATOM     22  C   UNL     1      -1.399   1.052  23.751  0.00  0.00    -0.034 C 
ATOM     23  C   UNL     1      -0.923   1.345  24.356  0.00  0.00    +0.037 C 
ENDROOT
BRANCH   4   2
ATOM      1  C   UNL     1       0.229   2.657  25.060  0.00  0.00    +0.000 C 
ATOM      2  C   UNL     1      -0.544   2.416  25.224  0.00  0.00    +0.000 C 
ATOM      3  C   UNL     1      -0.839   2.470  25.991  0.00  0.00    +0.000 C 
ENDBRANCH   4   2
BRANCH   6   7
ATOM      7  C   UNL     1      -2.644   2.794  23.324  0.00  0.00    +0.091 C 
BRANCH   7   8
ATOM      8  C   UNL     1      -3.306   3.021  23.758  0.00  0.00    +0.227 A 
ATOM      9  N   UNL     1      -3.606   3.787  23.819  0.00  0.00    -0.111 NA
ATOM     10  N   UNL     1      -4.272   3.762  24.307  0.00  0.00    -0.107 NA
ATOM     11  C   UNL     1      -4.383   2.981  24.547  0.00  0.00    +0.250 A 
ATOM     12  O   UNL     1      -3.786   2.523  24.207  0.00  0.00    -0.420 OA
BRANCH  11  13
ATOM     13  C   UNL     1      -4.984   2.705  25.039  0.00  0.00    +0.055 A 
ATOM     14  C   UNL     1      -5.475   2.092  24.787  0.00  0.00    +0.004 A 
ATOM     15  C   UNL     1      -6.077   1.815  25.279  0.00  0.00    -0.004 A 
ATOM     16  C   UNL     1      -6.188   2.153  26.024  0.00  0.00    -0.022 A 
ATOM     17  C   UNL     1      -6.790   1.877  26.516  0.00  0.00    +0.031 C 
ATOM     18  C   UNL     1      -5.698   2.766  26.277  0.00  0.00    -0.004 A 
ATOM     19  C   UNL     1      -5.095   3.042  25.783  0.00  0.00    +0.004 A 
ENDBRANCH  11  13
ENDBRANCH   7   8
ENDBRANCH   6   7
BRANCH  23  24
ATOM     24  C   UNL     1      -0.350   0.863  24.700  0.00  0.00    +0.076 C 
BRANCH  24  25
ATOM     25  N   UNL     1      -0.483   0.051  24.774  0.00  0.00    -0.272 NA
ATOM     26  C   UNL     1      -0.146  -0.472  24.232  0.00  0.00    +0.075 C 
ATOM     27  C   UNL     1      -0.279  -1.283  24.305  0.00  0.00    +0.050 C 
ATOM     28  C   UNL     1      -0.749  -1.570  24.920  0.00  0.00    +0.155 C 
ATOM     29  O   UNL     1      -0.882  -2.380  24.994  0.00  0.00    -0.223 OA
ATOM     30  C   UNL     1      -1.085  -1.046  25.461  0.00  0.00    +0.050 C 
ATOM     31  C   UNL     1      -0.952  -0.235  25.388  0.00  0.00    +0.075 C 
ENDBRANCH  24  25
ENDBRANCH  23  24
TORSDOF 6
ENDMDL
MODEL 7
REMARK VINA RESULT:     -10.6      1.891      5.395
REMARK  Name = 
REMARK  6 active torsions:
REMARK  status: ('A' for Active; 'I' for Inactive)
REMARK    1  A    between atoms: C_2  and  C_4
REMARK    2  A    between atoms: C_6  and  C_7
REMARK    3  A    between atoms: C_7  and  C_8
REMARK    4  A    between atoms: C_11  and  C_13
REMARK    5  A    between atoms: C_23  and  C_24
REMARK    6  A    between atoms: C_24  and  N_25
REMARK                            x       y       z     vdW  Elec       q    Type
REMARK                         _______ _______ _______ _____ _____    ______ ____
ROOT
ATOM      4  C   UNL     1      -3.283   1.606  23.534  0.00  0.00    +0.006 C 
ATOM      5  C   UNL     1      -3.588   0.840  23.565  0.00  0.00    +0.005 C 
ATOM      6  C   UNL     1      -4.138   0.639  24.148  0.00  0.00    +0.027 C 
ATOM     20  C   UNL     1      -4.381   1.203  24.698  0.00  0.00    -0.048 C 
ATOM     21  C   UNL     1      -4.929   1.001  25.280  0.00  0.00    +0.026 C 
ATOM     22  C   UNL     1      -4.075   1.968  24.666  0.00  0.00    -0.034 C 
ATOM     23  C   UNL     1      -3.526   2.170  24.085  0.00  0.00    +0.037 C 
ENDROOT
BRANCH   4   2
ATOM      1  C   UNL     1      -2.990   2.146  22.244  0.00  0.00    +0.000 C 
ATOM      2  C   UNL     1      -2.734   1.806  22.952  0.00  0.00    +0.000 C 
ATOM      3  C   UNL     1      -1.931   1.668  23.077  0.00  0.00    +0.000 C 
ENDBRANCH   4   2
BRANCH   6   7
ATOM      7  C   UNL     1      -4.443  -0.127  24.179  0.00  0.00    +0.091 C 
BRANCH   7   8
ATOM      8  C   UNL     1      -3.935  -0.771  24.256  0.00  0.00    +0.227 A 
ATOM      9  N   UNL     1      -4.114  -1.555  24.071  0.00  0.00    -0.111 NA
ATOM     10  N   UNL     1      -3.447  -2.014  24.232  0.00  0.00    -0.107 NA
ATOM     11  C   UNL     1      -2.856  -1.514  24.516  0.00  0.00    +0.250 A 
ATOM     12  O   UNL     1      -3.157  -0.745  24.531  0.00  0.00    -0.420 OA
BRANCH  11  13
ATOM     13  C   UNL     1      -2.097  -1.741  24.746  0.00  0.00    +0.055 A 
ATOM     14  C   UNL     1      -1.738  -2.395  24.394  0.00  0.00    +0.004 A 
ATOM     15  C   UNL     1      -0.979  -2.623  24.623  0.00  0.00    -0.004 A 
ATOM     16  C   UNL     1      -0.578  -2.195  25.204  0.00  0.00    -0.022 A 
ATOM     17  C   UNL     1       0.181  -2.423  25.433  0.00  0.00    +0.031 C 
ATOM     18  C   UNL     1      -0.936  -1.541  25.556  0.00  0.00    -0.004 A 
ATOM     19  C   UNL     1      -1.696  -1.314  25.326  0.00  0.00    +0.004 A 
ENDBRANCH  11  13
ENDBRANCH   7   8
ENDBRANCH   6   7
BRANCH  23  24
ATOM     24  C   UNL     1      -3.221   2.935  24.053  0.00  0.00    +0.076 C 
BRANCH  24  25
ATOM     25  N   UNL     1      -3.170   3.388  24.742  0.00  0.00    -0.272 NA
ATOM     26  C   UNL     1      -2.498   3.341  25.217  0.00  0.00    +0.075 C 
ATOM     27  C   UNL     1      -2.447   3.794  25.905  0.00  0.00    +0.050 C 
ATOM     28  C   UNL     1      -3.070   4.293  26.118  0.00  0.00    +0.155 C 
ATOM     29  O   UNL     1      -3.020   4.746  26.805  0.00  0.00    -0.223 OA
ATOM     30  C   UNL     1      -3.742   4.339  25.641  0.00  0.00    +0.050 C 
ATOM     31  C   UNL     1      -3.792   3.887  24.953  0.00  0.00    +0.075 C 
ENDBRANCH  24  25
ENDBRANCH  23  24
TORSDOF 6
ENDMDL
