REMARK  Name = 
REMARK  4 active torsions:
REMARK  status: ('A' for Active; 'I' for Inactive)
REMARK    1  A    between atoms: C_5  and  N_8
REMARK    2  A    between atoms: N_8  and  C_9
REMARK    3  A    between atoms: C_15  and  C_16
REMARK    4  A    between atoms: C_19  and  N_22
REMARK                            x       y       z     vdW  Elec       q    Type
REMARK                         _______ _______ _______ _____ _____    ______ ____
ROOT
ATOM      9  C   UNL     1       0.715  -3.712   0.000  0.00  0.00    +0.110 C 
ATOM     10  C   UNL     1       1.382  -4.197   0.000  0.00  0.00    +0.198 C 
ATOM     11  O   UNL     1       2.167  -3.942   0.000  0.00  0.00    -0.219 OA
ATOM     12  C   UNL     1       1.127  -4.982   0.000  0.00  0.00    +0.184 C 
ATOM     13  O   UNL     1       1.612  -5.649   0.000  0.00  0.00    -0.220 OA
ATOM     14  C   UNL     1       0.302  -4.982   0.000  0.00  0.00    +0.041 C 
ATOM     15  C   UNL     1       0.047  -4.197   0.000  0.00  0.00    +0.045 C 
ENDROOT
BRANCH  15  16
ATOM     16  C   UNL     1      -0.738  -3.942   0.000  0.00  0.00    -0.002 A 
ATOM     17  C   UNL     1      -1.351  -4.495   0.000  0.00  0.00    +0.000 A 
ATOM     18  C   UNL     1      -2.135  -4.240   0.000  0.00  0.00    +0.034 A 
ATOM     19  C   UNL     1      -2.307  -3.433   0.000  0.00  0.00    +0.132 A 
ATOM     20  N   UNL     1      -1.694  -2.881   0.000  0.00  0.00    -0.229 NA
ATOM     21  C   UNL     1      -0.909  -3.135   0.000  0.00  0.00    +0.096 A 
BRANCH  19  22
ATOM     22  N   UNL     1      -3.091  -3.178   0.000  0.00  0.00    -0.288 N 
ATOM     23  C   UNL     1      -3.704  -3.730   0.000  0.00  0.00    +0.124 C 
ATOM     24  C   UNL     1      -4.489  -3.475   0.000  0.00  0.00    +0.164 C 
ATOM     25  O   UNL     1      -4.661  -2.668   0.000  0.00  0.00    -0.350 OA
ATOM     26  C   UNL     1      -4.048  -2.116   0.000  0.00  0.00    +0.164 C 
ATOM     27  C   UNL     1      -3.263  -2.371   0.000  0.00  0.00    +0.124 C 
ENDBRANCH  19  22
ENDBRANCH  15  16
BRANCH   9   8
ATOM      8  N   UNL     1       0.715  -2.888   0.000  0.00  0.00    -0.218 NA
BRANCH   8   5
ATOM      1  C   UNL     1       3.572  -1.238   0.000  0.00  0.00    +0.090 C 
ATOM      2  N   UNL     1       2.858  -1.650   0.000  0.00  0.00    -0.271 NA
ATOM      3  C   UNL     1       2.858  -2.475   0.000  0.00  0.00    +0.074 C 
ATOM      4  C   UNL     1       2.143  -2.888   0.000  0.00  0.00    +0.035 C 
ATOM      5  C   UNL     1       1.429  -2.475   0.000  0.00  0.00    +0.076 C 
ATOM      6  C   UNL     1       1.429  -1.650   0.000  0.00  0.00    +0.035 C 
ATOM      7  C   UNL     1       2.143  -1.238   0.000  0.00  0.00    +0.074 C 
ENDBRANCH   8   5
ENDBRANCH   9   8
TORSDOF 4
