REMARK  Name = 
REMARK  3 active torsions:
REMARK  status: ('A' for Active; 'I' for Inactive)
REMARK    1  A    between atoms: N_3  and  C_4
REMARK    2  A    between atoms: C_15  and  O_17
REMARK    3  A    between atoms: O_17  and  C_18
REMARK                            x       y       z     vdW  Elec       q    Type
REMARK                         _______ _______ _______ _____ _____    ______ ____
ROOT
ATOM      1  O   UNL     1       0.735  -1.520   0.000  0.00  0.00    -0.250 OA
ATOM      2  C   UNL     1       0.020  -1.108   0.000  0.00  0.00    +0.328 C 
ATOM      3  N   UNL     1      -0.694  -1.520   0.000  0.00  0.00    -0.161 NA
ATOM     10  N   UNL     1       0.020  -0.283   0.000  0.00  0.00    -0.256 N 
ATOM     11  C   UNL     1      -0.723   0.075   0.000  0.00  0.00    +0.127 C 
ATOM     12  C   UNL     1      -0.906   0.879   0.000  0.00  0.00    +0.164 C 
ATOM     13  O   UNL     1      -0.392   1.524   0.000  0.00  0.00    -0.348 OA
ATOM     14  C   UNL     1       0.433   1.524   0.000  0.00  0.00    +0.187 C 
ATOM     15  C   UNL     1       0.947   0.879   0.000  0.00  0.00    +0.215 C 
ATOM     16  C   UNL     1       0.764   0.075   0.000  0.00  0.00    +0.141 C 
ENDROOT
BRANCH   3   4
ATOM      4  C   UNL     1      -0.694  -2.345   0.000  0.00  0.00    +0.094 A 
ATOM      5  C   UNL     1       0.020  -2.758   0.000  0.00  0.00    +0.115 A 
ATOM      6  N   UNL     1       0.020  -3.583   0.000  0.00  0.00    -0.241 NA
ATOM      7  C   UNL     1      -0.694  -3.995   0.000  0.00  0.00    +0.099 A 
ATOM      8  C   UNL     1      -1.409  -3.583   0.000  0.00  0.00    +0.022 A 
ATOM      9  C   UNL     1      -1.409  -2.758   0.000  0.00  0.00    +0.020 A 
ENDBRANCH   3   4
BRANCH  15  17
ATOM     17  O   UNL     1       1.752   1.063   0.000  0.00  0.00    -0.475 OA
BRANCH  17  18
ATOM     18  C   UNL     1       2.313   0.458   0.000  0.00  0.00    +0.139 A 
ATOM     19  C   UNL     1       3.117   0.642   0.000  0.00  0.00    +0.037 A 
ATOM     20  C   UNL     1       3.678   0.037   0.000  0.00  0.00    +0.003 A 
ATOM     21  C   UNL     1       3.435  -0.751   0.000  0.00  0.00    +0.000 A 
ATOM     22  C   UNL     1       2.631  -0.935   0.000  0.00  0.00    +0.003 A 
ATOM     23  C   UNL     1       2.070  -0.330   0.000  0.00  0.00    +0.037 A 
ENDBRANCH  17  18
ENDBRANCH  15  17
TORSDOF 3
