REMARK  Name = 
REMARK  5 active torsions:
REMARK  status: ('A' for Active; 'I' for Inactive)
REMARK    1  A    between atoms: O_2  and  C_3
REMARK    2  A    between atoms: C_8  and  C_9
REMARK    3  A    between atoms: C_12  and  C_14
REMARK    4  A    between atoms: N_21  and  C_22
REMARK    5  A    between atoms: C_22  and  C_23
REMARK                            x       y       z     vdW  Elec       q    Type
REMARK                         _______ _______ _______ _____ _____    ______ ____
ROOT
ATOM     14  C   UNL     1       4.070  -4.241   0.000  0.00  0.00    +0.100 C 
ATOM     15  C   UNL     1       4.325  -5.025   0.000  0.00  0.00    +0.033 C 
ATOM     16  C   UNL     1       3.658  -5.510   0.000  0.00  0.00    +0.096 C 
ATOM     17  N   UNL     1       2.990  -5.025   0.000  0.00  0.00    -0.262 N 
ATOM     18  C   UNL     1       3.245  -4.241   0.000  0.00  0.00    +0.104 C 
ATOM     19  C   UNL     1       2.206  -5.280   0.000  0.00  0.00    +0.324 C 
ATOM     20  O   UNL     1       2.034  -6.087   0.000  0.00  0.00    -0.251 OA
ATOM     21  N   UNL     1       1.593  -4.728   0.000  0.00  0.00    -0.184 NA
ENDROOT
BRANCH  14  12
ATOM      9  C   UNL     1       4.968  -2.304   0.000  0.00  0.00    +0.252 A 
ATOM     10  N   UNL     1       5.635  -2.789   0.000  0.00  0.00    -0.107 NA
ATOM     11  N   UNL     1       5.380  -3.573   0.000  0.00  0.00    -0.111 NA
ATOM     12  C   UNL     1       4.555  -3.573   0.000  0.00  0.00    +0.228 A 
ATOM     13  O   UNL     1       4.300  -2.789   0.000  0.00  0.00    -0.419 OA
BRANCH   9   8
ATOM      3  C   UNL     1       4.253  -1.066   0.000  0.00  0.00    +0.143 A 
ATOM      4  C   UNL     1       4.253  -0.241   0.000  0.00  0.00    +0.037 A 
ATOM      5  C   UNL     1       4.968   0.171   0.000  0.00  0.00    +0.003 A 
ATOM      6  C   UNL     1       5.682  -0.241   0.000  0.00  0.00    +0.000 A 
ATOM      7  C   UNL     1       5.682  -1.066   0.000  0.00  0.00    +0.008 A 
ATOM      8  C   UNL     1       4.968  -1.479   0.000  0.00  0.00    +0.089 A 
BRANCH   3   2
ATOM      1  C   UNL     1       2.824  -1.066   0.000  0.00  0.00    +0.252 C 
ATOM      2  O   UNL     1       3.539  -1.479   0.000  0.00  0.00    -0.471 OA
ENDBRANCH   3   2
ENDBRANCH   9   8
ENDBRANCH  14  12
BRANCH  21  22
ATOM     22  C   UNL     1       0.808  -4.983   0.000  0.00  0.00    +0.143 C 
BRANCH  22  23
ATOM     23  C   UNL     1       0.195  -4.431   0.000  0.00  0.00    -0.001 A 
ATOM     24  C   UNL     1      -0.590  -4.686   0.000  0.00  0.00    -0.003 A 
ATOM     25  C   UNL     1      -1.203  -4.134   0.000  0.00  0.00    -0.000 A 
ATOM     26  C   UNL     1      -1.031  -3.327   0.000  0.00  0.00    -0.000 A 
ATOM     27  C   UNL     1      -0.247  -3.072   0.000  0.00  0.00    -0.000 A 
ATOM     28  C   UNL     1       0.366  -3.624   0.000  0.00  0.00    -0.003 A 
ENDBRANCH  22  23
ENDBRANCH  21  22
TORSDOF 5
