MODEL 1
REMARK VINA RESULT:     -15.3      0.000      0.000
REMARK  Name = 
REMARK  4 active torsions:
REMARK  status: ('A' for Active; 'I' for Inactive)
REMARK    1  A    between atoms: C_2  and  C_5
REMARK    2  A    between atoms: C_5  and  C_6
REMARK    3  A    between atoms: C_17  and  N_18
REMARK    4  A    between atoms: N_21  and  C_22
REMARK                            x       y       z     vdW  Elec       q    Type
REMARK                         _______ _______ _______ _____ _____    ______ ____
ROOT
ATOM      6  C   UNL     1      -3.504   3.693  24.946  0.00  0.00    +0.226 C 
ATOM      7  O   UNL     1      -4.194   4.141  24.892  0.00  0.00    -0.275 OA
ATOM      8  N   UNL     1      -2.777   4.067  25.055  0.00  0.00    -0.279 N 
ATOM      9  C   UNL     1      -2.228   4.688  25.157  0.00  0.00    +0.095 C 
ATOM     10  C   UNL     1      -1.394   4.163  25.225  0.00  0.00    +0.043 C 
ATOM     11  C   UNL     1      -0.633   3.882  25.298  0.00  0.00    +0.011 C 
ATOM     12  C   UNL     1      -1.276   3.618  25.206  0.00  0.00    +0.058 C 
ATOM     13  C   UNL     1      -2.074   4.140  25.143  0.00  0.00    +0.099 C 
ATOM     14  C   UNL     1      -1.721   2.820  25.106  0.00  0.00    +0.041 A 
ATOM     15  C   UNL     1      -1.579   2.008  25.074  0.00  0.00    +0.014 A 
ATOM     16  C   UNL     1      -2.208   1.484  24.968  0.00  0.00    +0.023 A 
ATOM     17  C   UNL     1      -2.977   1.772  24.894  0.00  0.00    +0.131 A 
ATOM     28  C   UNL     1      -3.119   2.584  24.926  0.00  0.00    +0.276 A 
ATOM     29  O   UNL     1      -3.906   2.363  24.819  0.00  0.00    -0.266 OA
ATOM     30  N   UNL     1      -2.490   3.108  25.032  0.00  0.00    -0.298 N 
ATOM     31  C   UNL     1      -1.866   3.334  25.119  0.00  0.00    +0.110 C 
ENDROOT
BRANCH  17  18
ATOM     18  N   UNL     1      -3.605   1.247  24.788  0.00  0.00    -0.156 NA
ATOM     19  C   UNL     1      -3.464   0.435  24.761  0.00  0.00    +0.348 C 
ATOM     20  O   UNL     1      -2.695   0.147  24.841  0.00  0.00    -0.248 OA
ATOM     21  N   UNL     1      -4.093  -0.090  24.655  0.00  0.00    -0.161 NA
BRANCH  21  22
ATOM     22  C   UNL     1      -3.952  -0.902  24.629  0.00  0.00    +0.075 A 
ATOM     23  C   UNL     1      -4.071  -1.318  23.926  0.00  0.00    +0.017 A 
ATOM     24  C   UNL     1      -3.930  -2.130  23.900  0.00  0.00    +0.001 A 
ATOM     25  C   UNL     1      -3.671  -2.526  24.575  0.00  0.00    +0.000 A 
ATOM     26  C   UNL     1      -3.552  -2.110  25.278  0.00  0.00    +0.001 A 
ATOM     27  C   UNL     1      -3.693  -1.298  25.304  0.00  0.00    +0.017 A 
ENDBRANCH  21  22
ENDBRANCH  17  18
BRANCH   6   5
ATOM      5  C   UNL     1      -3.541   2.870  24.893  0.00  0.00    +0.085 C 
BRANCH   5   2
ATOM      1  C   UNL     1      -4.990   2.126  24.628  0.00  0.00    +0.000 C 
ATOM      2  C   UNL     1      -4.265   2.498  24.760  0.00  0.00    +0.009 C 
ATOM      3  C   UNL     1      -4.140   2.541  23.946  0.00  0.00    +0.000 C 
ATOM      4  C   UNL     1      -4.392   2.454  25.575  0.00  0.00    +0.000 C 
ENDBRANCH   5   2
ENDBRANCH   6   5
TORSDOF 4
ENDMDL
MODEL 2
REMARK VINA RESULT:     -14.7      1.261      2.248
REMARK  Name = 
REMARK  4 active torsions:
REMARK  status: ('A' for Active; 'I' for Inactive)
REMARK    1  A    between atoms: C_2  and  C_5
REMARK    2  A    between atoms: C_5  and  C_6
REMARK    3  A    between atoms: C_17  and  N_18
REMARK    4  A    between atoms: N_21  and  C_22
REMARK                            x       y       z     vdW  Elec       q    Type
REMARK                         _______ _______ _______ _____ _____    ______ ____
ROOT
ATOM      6  C   UNL     1      -3.258   3.083  24.536  0.00  0.00    +0.226 C 
ATOM      7  O   UNL     1      -2.575   3.450  24.254  0.00  0.00    -0.275 OA
ATOM      8  N   UNL     1      -3.865   3.537  24.864  0.00  0.00    -0.279 N 
ATOM      9  C   UNL     1      -4.277   4.216  25.123  0.00  0.00    +0.095 C 
ATOM     10  C   UNL     1      -5.100   3.789  25.464  0.00  0.00    +0.043 C 
ATOM     11  C   UNL     1      -5.825   3.597  25.783  0.00  0.00    +0.011 C 
ATOM     12  C   UNL     1      -5.279   3.262  25.496  0.00  0.00    +0.058 C 
ATOM     13  C   UNL     1      -4.490   3.689  25.170  0.00  0.00    +0.099 C 
ATOM     14  C   UNL     1      -4.985   2.419  25.276  0.00  0.00    +0.041 A 
ATOM     15  C   UNL     1      -5.221   1.630  25.308  0.00  0.00    +0.014 A 
ATOM     16  C   UNL     1      -4.724   1.039  25.018  0.00  0.00    +0.023 A 
ATOM     17  C   UNL     1      -3.991   1.237  24.696  0.00  0.00    +0.131 A 
ATOM     28  C   UNL     1      -3.755   2.027  24.664  0.00  0.00    +0.276 A 
ATOM     29  O   UNL     1      -3.074   1.719  24.316  0.00  0.00    -0.266 OA
ATOM     30  N   UNL     1      -4.252   2.618  24.954  0.00  0.00    -0.298 N 
ATOM     31  C   UNL     1      -4.785   2.913  25.231  0.00  0.00    +0.110 C 
ENDROOT
BRANCH  17  18
ATOM     18  N   UNL     1      -3.495   0.646  24.406  0.00  0.00    -0.156 NA
ATOM     19  C   UNL     1      -3.705  -0.147  24.490  0.00  0.00    +0.348 C 
ATOM     20  O   UNL     1      -4.413  -0.349  24.863  0.00  0.00    -0.248 OA
ATOM     21  N   UNL     1      -3.208  -0.739  24.199  0.00  0.00    -0.161 NA
BRANCH  21  22
ATOM     22  C   UNL     1      -3.418  -1.532  24.283  0.00  0.00    +0.075 A 
ATOM     23  C   UNL     1      -3.086  -1.986  24.887  0.00  0.00    +0.017 A 
ATOM     24  C   UNL     1      -3.297  -2.779  24.970  0.00  0.00    +0.001 A 
ATOM     25  C   UNL     1      -3.839  -3.119  24.450  0.00  0.00    +0.000 A 
ATOM     26  C   UNL     1      -4.171  -2.665  23.846  0.00  0.00    +0.001 A 
ATOM     27  C   UNL     1      -3.961  -1.872  23.762  0.00  0.00    +0.017 A 
ENDBRANCH  21  22
ENDBRANCH  17  18
BRANCH   6   5
ATOM      5  C   UNL     1      -3.335   2.263  24.491  0.00  0.00    +0.085 C 
BRANCH   5   2
ATOM      1  C   UNL     1      -2.138   1.360  23.802  0.00  0.00    +0.000 C 
ATOM      2  C   UNL     1      -2.737   1.812  24.146  0.00  0.00    +0.009 C 
ATOM      3  C   UNL     1      -3.106   1.880  23.412  0.00  0.00    +0.000 C 
ATOM      4  C   UNL     1      -2.366   1.742  24.881  0.00  0.00    +0.000 C 
ENDBRANCH   5   2
ENDBRANCH   6   5
TORSDOF 4
ENDMDL
MODEL 3
REMARK VINA RESULT:     -14.4      1.368      4.997
REMARK  Name = 
REMARK  4 active torsions:
REMARK  status: ('A' for Active; 'I' for Inactive)
REMARK    1  A    between atoms: C_2  and  C_5
REMARK    2  A    between atoms: C_5  and  C_6
REMARK    3  A    between atoms: C_17  and  N_18
REMARK    4  A    between atoms: N_21  and  C_22
REMARK                            x       y       z     vdW  Elec       q    Type
REMARK                         _______ _______ _______ _____ _____    ______ ____
ROOT
ATOM      6  C   UNL     1      -1.952  -1.601  24.854  0.00  0.00    +0.226 C 
ATOM      7  O   UNL     1      -1.295  -2.054  25.063  0.00  0.00    -0.275 OA
ATOM      8  N   UNL     1      -2.633  -1.970  24.570  0.00  0.00    -0.279 N 
ATOM      9  C   UNL     1      -3.143  -2.587  24.331  0.00  0.00    +0.095 C 
ATOM     10  C   UNL     1      -3.937  -2.056  24.077  0.00  0.00    +0.043 C 
ATOM     11  C   UNL     1      -4.659  -1.770  23.830  0.00  0.00    +0.011 C 
ATOM     12  C   UNL     1      -4.055  -1.511  24.076  0.00  0.00    +0.058 C 
ATOM     13  C   UNL     1      -3.296  -2.038  24.318  0.00  0.00    +0.099 C 
ATOM     14  C   UNL     1      -3.646  -0.716  24.291  0.00  0.00    +0.041 A 
ATOM     15  C   UNL     1      -3.790   0.096  24.302  0.00  0.00    +0.014 A 
ATOM     16  C   UNL     1      -3.204   0.615  24.562  0.00  0.00    +0.023 A 
ATOM     17  C   UNL     1      -2.474   0.322  24.811  0.00  0.00    +0.131 A 
ATOM     28  C   UNL     1      -2.330  -0.491  24.801  0.00  0.00    +0.276 A 
ATOM     29  O   UNL     1      -1.590  -0.276  25.094  0.00  0.00    -0.266 OA
ATOM     30  N   UNL     1      -2.916  -1.010  24.541  0.00  0.00    -0.298 N 
ATOM     31  C   UNL     1      -3.502  -1.231  24.304  0.00  0.00    +0.110 C 
ENDROOT
BRANCH  17  18
ATOM     18  N   UNL     1      -1.888   0.841  25.071  0.00  0.00    -0.156 NA
ATOM     19  C   UNL     1      -2.026   1.654  25.066  0.00  0.00    +0.348 C 
ATOM     20  O   UNL     1      -2.750   1.948  24.802  0.00  0.00    -0.248 OA
ATOM     21  N   UNL     1      -1.440   2.174  25.326  0.00  0.00    -0.161 NA
BRANCH  21  22
ATOM     22  C   UNL     1      -1.578   2.987  25.322  0.00  0.00    +0.075 A 
ATOM     23  C   UNL     1      -1.197   3.467  24.769  0.00  0.00    +0.017 A 
ATOM     24  C   UNL     1      -1.335   4.280  24.764  0.00  0.00    +0.001 A 
ATOM     25  C   UNL     1      -1.854   4.613  25.313  0.00  0.00    +0.000 A 
ATOM     26  C   UNL     1      -2.234   4.134  25.866  0.00  0.00    +0.001 A 
ATOM     27  C   UNL     1      -2.096   3.321  25.870  0.00  0.00    +0.017 A 
ENDBRANCH  21  22
ENDBRANCH  17  18
BRANCH   6   5
ATOM      5  C   UNL     1      -1.927  -0.779  24.928  0.00  0.00    +0.085 C 
BRANCH   5   2
ATOM      1  C   UNL     1      -0.566  -0.044  25.500  0.00  0.00    +0.000 C 
ATOM      2  C   UNL     1      -1.247  -0.412  25.214  0.00  0.00    +0.009 C 
ATOM      3  C   UNL     1      -0.958  -0.345  24.444  0.00  0.00    +0.000 C 
ATOM      4  C   UNL     1      -1.535  -0.478  25.984  0.00  0.00    +0.000 C 
ENDBRANCH   5   2
ENDBRANCH   6   5
TORSDOF 4
ENDMDL
MODEL 4
REMARK VINA RESULT:     -13.9      1.291      4.579
REMARK  Name = 
REMARK  4 active torsions:
REMARK  status: ('A' for Active; 'I' for Inactive)
REMARK    1  A    between atoms: C_2  and  C_5
REMARK    2  A    between atoms: C_5  and  C_6
REMARK    3  A    between atoms: C_17  and  N_18
REMARK    4  A    between atoms: N_21  and  C_22
REMARK                            x       y       z     vdW  Elec       q    Type
REMARK                         _______ _______ _______ _____ _____    ______ ____
ROOT
ATOM      6  C   UNL     1      -3.828  -1.111  24.379  0.00  0.00    +0.226 C 
ATOM      7  O   UNL     1      -4.619  -1.234  24.180  0.00  0.00    -0.275 OA
ATOM      8  N   UNL     1      -3.312  -1.753  24.437  0.00  0.00    -0.279 N 
ATOM      9  C   UNL     1      -3.051  -2.546  24.421  0.00  0.00    +0.095 C 
ATOM     10  C   UNL     1      -2.101  -2.412  24.659  0.00  0.00    +0.043 C 
ATOM     11  C   UNL     1      -1.309  -2.471  24.840  0.00  0.00    +0.011 C 
ATOM     12  C   UNL     1      -1.791  -1.964  24.776  0.00  0.00    +0.058 C 
ATOM     13  C   UNL     1      -2.706  -2.110  24.546  0.00  0.00    +0.099 C 
ATOM     14  C   UNL     1      -1.891  -1.053  24.842  0.00  0.00    +0.041 A 
ATOM     15  C   UNL     1      -1.458  -0.372  25.011  0.00  0.00    +0.014 A 
ATOM     16  C   UNL     1      -1.827   0.365  24.996  0.00  0.00    +0.023 A 
ATOM     17  C   UNL     1      -2.630   0.422  24.812  0.00  0.00    +0.131 A 
ATOM     28  C   UNL     1      -3.063  -0.260  24.643  0.00  0.00    +0.276 A 
ATOM     29  O   UNL     1      -3.690   0.267  24.546  0.00  0.00    -0.266 OA
ATOM     30  N   UNL     1      -2.693  -0.997  24.658  0.00  0.00    -0.298 N 
ATOM     31  C   UNL     1      -2.216  -1.461  24.725  0.00  0.00    +0.110 C 
ENDROOT
BRANCH  17  18
ATOM     18  N   UNL     1      -2.998   1.159  24.797  0.00  0.00    -0.156 NA
ATOM     19  C   UNL     1      -2.563   1.841  24.957  0.00  0.00    +0.348 C 
ATOM     20  O   UNL     1      -1.759   1.786  25.132  0.00  0.00    -0.248 OA
ATOM     21  N   UNL     1      -2.933   2.580  24.943  0.00  0.00    -0.161 NA
BRANCH  21  22
ATOM     22  C   UNL     1      -2.498   3.262  25.103  0.00  0.00    +0.075 A 
ATOM     23  C   UNL     1      -2.602   3.659  25.818  0.00  0.00    +0.017 A 
ATOM     24  C   UNL     1      -2.167   4.341  25.978  0.00  0.00    +0.001 A 
ATOM     25  C   UNL     1      -1.628   4.626  25.423  0.00  0.00    +0.000 A 
ATOM     26  C   UNL     1      -1.524   4.230  24.707  0.00  0.00    +0.001 A 
ATOM     27  C   UNL     1      -1.959   3.547  24.547  0.00  0.00    +0.017 A 
ENDBRANCH  21  22
ENDBRANCH  17  18
BRANCH   6   5
ATOM      5  C   UNL     1      -3.552  -0.345  24.519  0.00  0.00    +0.085 C 
BRANCH   5   2
ATOM      1  C   UNL     1      -4.591   0.933  24.439  0.00  0.00    +0.000 C 
ATOM      2  C   UNL     1      -4.071   0.294  24.479  0.00  0.00    +0.009 C 
ATOM      3  C   UNL     1      -4.259   0.192  25.276  0.00  0.00    +0.000 C 
ATOM      4  C   UNL     1      -3.883   0.396  23.682  0.00  0.00    +0.000 C 
ENDBRANCH   5   2
ENDBRANCH   6   5
TORSDOF 4
ENDMDL
MODEL 5
REMARK VINA RESULT:     -13.6      1.192      2.059
REMARK  Name = 
REMARK  4 active torsions:
REMARK  status: ('A' for Active; 'I' for Inactive)
REMARK    1  A    between atoms: C_2  and  C_5
REMARK    2  A    between atoms: C_5  and  C_6
REMARK    3  A    between atoms: C_17  and  N_18
REMARK    4  A    between atoms: N_21  and  C_22
REMARK                            x       y       z     vdW  Elec       q    Type
REMARK                         _______ _______ _______ _____ _____    ______ ____
ROOT
ATOM      6  C   UNL     1      -0.869   2.843  24.925  0.00  0.00    +0.226 C 
ATOM      7  O   UNL     1      -0.059   2.865  24.770  0.00  0.00    -0.275 OA
ATOM      8  N   UNL     1      -1.259   3.525  25.178  0.00  0.00    -0.279 N 
ATOM      9  C   UNL     1      -1.367   4.322  25.404  0.00  0.00    +0.095 C 
ATOM     10  C   UNL     1      -2.337   4.310  25.594  0.00  0.00    +0.043 C 
ATOM     11  C   UNL     1      -3.113   4.464  25.787  0.00  0.00    +0.011 C 
ATOM     12  C   UNL     1      -2.731   3.916  25.571  0.00  0.00    +0.058 C 
ATOM     13  C   UNL     1      -1.794   3.944  25.392  0.00  0.00    +0.099 C 
ATOM     14  C   UNL     1      -2.805   3.025  25.357  0.00  0.00    +0.041 A 
ATOM     15  C   UNL     1      -3.365   2.422  25.313  0.00  0.00    +0.014 A 
ATOM     16  C   UNL     1      -3.139   1.666  25.074  0.00  0.00    +0.023 A 
ATOM     17  C   UNL     1      -2.352   1.513  24.878  0.00  0.00    +0.131 A 
ATOM     28  C   UNL     1      -1.791   2.117  24.922  0.00  0.00    +0.276 A 
ATOM     29  O   UNL     1      -1.269   1.532  24.668  0.00  0.00    -0.266 OA
ATOM     30  N   UNL     1      -2.018   2.873  25.161  0.00  0.00    -0.298 N 
ATOM     31  C   UNL     1      -2.404   3.379  25.368  0.00  0.00    +0.110 C 
ENDROOT
BRANCH  17  18
ATOM     18  N   UNL     1      -2.126   0.757  24.639  0.00  0.00    -0.156 NA
ATOM     19  C   UNL     1      -2.675   0.142  24.643  0.00  0.00    +0.348 C 
ATOM     20  O   UNL     1      -3.451   0.282  24.886  0.00  0.00    -0.248 OA
ATOM     21  N   UNL     1      -2.448  -0.616  24.403  0.00  0.00    -0.161 NA
BRANCH  21  22
ATOM     22  C   UNL     1      -2.997  -1.231  24.407  0.00  0.00    +0.075 A 
ATOM     23  C   UNL     1      -3.598  -1.251  23.841  0.00  0.00    +0.017 A 
ATOM     24  C   UNL     1      -4.147  -1.867  23.845  0.00  0.00    +0.001 A 
ATOM     25  C   UNL     1      -4.095  -2.462  24.414  0.00  0.00    +0.000 A 
ATOM     26  C   UNL     1      -3.495  -2.442  24.980  0.00  0.00    +0.001 A 
ATOM     27  C   UNL     1      -2.946  -1.826  24.976  0.00  0.00    +0.017 A 
ENDBRANCH  21  22
ENDBRANCH  17  18
BRANCH   6   5
ATOM      5  C   UNL     1      -1.289   2.139  24.828  0.00  0.00    +0.085 C 
BRANCH   5   2
ATOM      1  C   UNL     1      -0.510   0.778  24.316  0.00  0.00    +0.000 C 
ATOM      2  C   UNL     1      -0.900   1.459  24.571  0.00  0.00    +0.009 C 
ATOM      3  C   UNL     1      -1.074   1.653  23.789  0.00  0.00    +0.000 C 
ATOM      4  C   UNL     1      -0.725   1.265  25.354  0.00  0.00    +0.000 C 
ENDBRANCH   5   2
ENDBRANCH   6   5
TORSDOF 4
ENDMDL
