MODEL 1
REMARK VINA RESULT:     -11.7      0.000      0.000
REMARK  Name = 
REMARK  4 active torsions:
REMARK  status: ('A' for Active; 'I' for Inactive)
REMARK    1  A    between atoms: C_2  and  N_4
REMARK    2  A    between atoms: C_8  and  C_9
REMARK    3  A    between atoms: C_11  and  C_14
REMARK    4  A    between atoms: C_18  and  N_20
REMARK                            x       y       z     vdW  Elec       q    Type
REMARK                         _______ _______ _______ _____ _____    ______ ____
ROOT
ATOM     14  C   UNL     1      -4.022   1.971  24.743  0.00  0.00    +0.043 A 
ATOM     15  C   UNL     1      -4.764   2.197  25.023  0.00  0.00    +0.024 A 
ATOM     16  C   UNL     1      -5.309   1.624  25.258  0.00  0.00    +0.100 A 
ATOM     17  N   UNL     1      -5.110   0.824  25.214  0.00  0.00    -0.229 NA
ATOM     18  C   UNL     1      -4.368   0.598  24.934  0.00  0.00    +0.132 A 
ATOM     19  C   UNL     1      -3.823   1.172  24.699  0.00  0.00    +0.037 A 
ENDROOT
BRANCH  18  20
ATOM     20  N   UNL     1      -4.170  -0.202  24.890  0.00  0.00    -0.290 N 
ATOM     21  C   UNL     1      -4.337  -0.630  24.206  0.00  0.00    +0.114 C 
ATOM     22  C   UNL     1      -4.139  -1.430  24.162  0.00  0.00    +0.115 C 
ATOM     23  N   UNL     1      -3.773  -1.801  24.801  0.00  0.00    -0.276 N 
ATOM     24  C   UNL     1      -3.606  -1.371  25.486  0.00  0.00    +0.115 C 
ATOM     25  C   UNL     1      -3.804  -0.572  25.530  0.00  0.00    +0.114 C 
ATOM     26  C   UNL     1      -3.575  -2.600  24.757  0.00  0.00    +0.226 C 
ATOM     27  C   UNL     1      -3.743  -3.030  24.073  0.00  0.00    +0.095 C 
ATOM     28  O   UNL     1      -3.209  -2.970  25.398  0.00  0.00    -0.275 OA
ENDBRANCH  18  20
BRANCH  14  11
ATOM      9  C   UNL     1      -2.541   3.497  24.540  0.00  0.00    +0.251 A 
ATOM     10  N   UNL     1      -2.997   2.992  25.007  0.00  0.00    -0.190 NA
ATOM     11  C   UNL     1      -3.478   2.546  24.508  0.00  0.00    +0.203 A 
ATOM     12  N   UNL     1      -3.320   2.774  23.731  0.00  0.00    -0.056 NA
ATOM     13  O   UNL     1      -2.742   3.362  23.750  0.00  0.00    -0.336 OA
BRANCH   9   8
ATOM      4  N   UNL     1      -1.181   3.893  24.932  0.00  0.00    -0.268 NA
ATOM      5  C   UNL     1      -0.833   4.589  25.206  0.00  0.00    +0.072 C 
ATOM      6  C   UNL     1      -1.422   5.166  25.255  0.00  0.00    +0.019 C 
ATOM      7  C   UNL     1      -2.133   4.827  25.012  0.00  0.00    +0.027 C 
ATOM      8  C   UNL     1      -1.985   4.040  24.812  0.00  0.00    +0.138 C 
BRANCH   4   2
ATOM      1  C   UNL     1      -0.524   2.987  24.045  0.00  0.00    +0.017 C 
ATOM      2  C   UNL     1      -0.794   3.178  24.801  0.00  0.00    +0.058 C 
ATOM      3  C   UNL     1      -0.678   2.651  25.426  0.00  0.00    +0.017 C 
ENDBRANCH   4   2
ENDBRANCH   9   8
ENDBRANCH  14  11
TORSDOF 4
ENDMDL
MODEL 2
REMARK VINA RESULT:     -11.1      1.154      5.174
REMARK  Name = 
REMARK  4 active torsions:
REMARK  status: ('A' for Active; 'I' for Inactive)
REMARK    1  A    between atoms: C_2  and  N_4
REMARK    2  A    between atoms: C_8  and  C_9
REMARK    3  A    between atoms: C_11  and  C_14
REMARK    4  A    between atoms: C_18  and  N_20
REMARK                            x       y       z     vdW  Elec       q    Type
REMARK                         _______ _______ _______ _____ _____    ______ ____
ROOT
ATOM     14  C   UNL     1      -4.288   1.114  24.912  0.00  0.00    +0.043 A 
ATOM     15  C   UNL     1      -5.047   1.356  24.697  0.00  0.00    +0.024 A 
ATOM     16  C   UNL     1      -5.198   2.151  24.541  0.00  0.00    +0.100 A 
ATOM     17  N   UNL     1      -4.590   2.705  24.600  0.00  0.00    -0.229 NA
ATOM     18  C   UNL     1      -3.831   2.464  24.815  0.00  0.00    +0.132 A 
ATOM     19  C   UNL     1      -3.680   1.668  24.971  0.00  0.00    +0.037 A 
ENDROOT
BRANCH  18  20
ATOM     20  N   UNL     1      -3.222   3.018  24.874  0.00  0.00    -0.290 N 
ATOM     21  C   UNL     1      -2.479   2.849  24.559  0.00  0.00    +0.114 C 
ATOM     22  C   UNL     1      -1.871   3.403  24.618  0.00  0.00    +0.115 C 
ATOM     23  N   UNL     1      -2.006   4.126  24.992  0.00  0.00    -0.276 N 
ATOM     24  C   UNL     1      -2.750   4.295  25.307  0.00  0.00    +0.115 C 
ATOM     25  C   UNL     1      -3.358   3.741  25.248  0.00  0.00    +0.114 C 
ATOM     26  C   UNL     1      -1.398   4.680  25.051  0.00  0.00    +0.226 C 
ATOM     27  C   UNL     1      -0.654   4.511  24.736  0.00  0.00    +0.095 C 
ATOM     28  O   UNL     1      -1.533   5.403  25.425  0.00  0.00    -0.275 OA
ENDBRANCH  18  20
BRANCH  14  11
ATOM      9  C   UNL     1      -3.813  -0.968  24.912  0.00  0.00    +0.251 A 
ATOM     10  N   UNL     1      -3.896  -0.248  24.518  0.00  0.00    -0.190 NA
ATOM     11  C   UNL     1      -4.139   0.317  25.067  0.00  0.00    +0.203 A 
ATOM     12  N   UNL     1      -4.206  -0.054  25.801  0.00  0.00    -0.056 NA
ATOM     13  O   UNL     1      -4.005  -0.848  25.705  0.00  0.00    -0.336 OA
BRANCH   9   8
ATOM      4  N   UNL     1      -2.811  -1.984  24.556  0.00  0.00    -0.268 NA
ATOM      5  C   UNL     1      -2.831  -2.709  24.164  0.00  0.00    +0.072 C 
ATOM      6  C   UNL     1      -3.611  -2.856  23.938  0.00  0.00    +0.019 C 
ATOM      7  C   UNL     1      -4.073  -2.221  24.190  0.00  0.00    +0.027 C 
ATOM      8  C   UNL     1      -3.579  -1.682  24.573  0.00  0.00    +0.138 C 
BRANCH   4   2
ATOM      1  C   UNL     1      -1.640  -1.184  24.393  0.00  0.00    +0.017 C 
ATOM      2  C   UNL     1      -2.143  -1.624  24.876  0.00  0.00    +0.058 C 
ATOM      3  C   UNL     1      -1.976  -1.704  25.681  0.00  0.00    +0.017 C 
ENDBRANCH   4   2
ENDBRANCH   9   8
ENDBRANCH  14  11
TORSDOF 4
ENDMDL
MODEL 3
REMARK VINA RESULT:     -11.0      1.710      2.658
REMARK  Name = 
REMARK  4 active torsions:
REMARK  status: ('A' for Active; 'I' for Inactive)
REMARK    1  A    between atoms: C_2  and  N_4
REMARK    2  A    between atoms: C_8  and  C_9
REMARK    3  A    between atoms: C_11  and  C_14
REMARK    4  A    between atoms: C_18  and  N_20
REMARK                            x       y       z     vdW  Elec       q    Type
REMARK                         _______ _______ _______ _____ _____    ______ ____
ROOT
ATOM     14  C   UNL     1      -0.687   1.274  24.818  0.00  0.00    +0.043 A 
ATOM     15  C   UNL     1       0.022   1.115  24.428  0.00  0.00    +0.024 A 
ATOM     16  C   UNL     1       0.138   0.386  24.061  0.00  0.00    +0.100 A 
ATOM     17  N   UNL     1      -0.457  -0.185  24.083  0.00  0.00    -0.229 NA
ATOM     18  C   UNL     1      -1.167  -0.027  24.472  0.00  0.00    +0.132 A 
ATOM     19  C   UNL     1      -1.282   0.702  24.840  0.00  0.00    +0.037 A 
ENDROOT
BRANCH  18  20
ATOM     20  N   UNL     1      -1.761  -0.599  24.494  0.00  0.00    -0.290 N 
ATOM     21  C   UNL     1      -2.482  -0.459  24.118  0.00  0.00    +0.114 C 
ATOM     22  C   UNL     1      -3.076  -1.030  24.140  0.00  0.00    +0.115 C 
ATOM     23  N   UNL     1      -2.951  -1.741  24.538  0.00  0.00    -0.276 N 
ATOM     24  C   UNL     1      -2.230  -1.882  24.915  0.00  0.00    +0.115 C 
ATOM     25  C   UNL     1      -1.635  -1.310  24.893  0.00  0.00    +0.114 C 
ATOM     26  C   UNL     1      -3.545  -2.313  24.560  0.00  0.00    +0.226 C 
ATOM     27  C   UNL     1      -4.266  -2.173  24.184  0.00  0.00    +0.095 C 
ATOM     28  O   UNL     1      -3.419  -3.024  24.959  0.00  0.00    -0.275 OA
ENDBRANCH  18  20
BRANCH  14  11
ATOM      9  C   UNL     1      -1.065   3.297  25.387  0.00  0.00    +0.251 A 
ATOM     10  N   UNL     1      -1.011   2.708  24.812  0.00  0.00    -0.190 NA
ATOM     11  C   UNL     1      -0.801   2.004  25.186  0.00  0.00    +0.203 A 
ATOM     12  N   UNL     1      -0.726   2.156  25.993  0.00  0.00    -0.056 NA
ATOM     13  O   UNL     1      -0.889   2.955  26.118  0.00  0.00    -0.336 OA
BRANCH   9   8
ATOM      4  N   UNL     1      -2.008   4.424  25.349  0.00  0.00    -0.268 NA
ATOM      5  C   UNL     1      -1.952   5.225  25.160  0.00  0.00    +0.072 C 
ATOM      6  C   UNL     1      -1.169   5.383  24.951  0.00  0.00    +0.019 C 
ATOM      7  C   UNL     1      -0.742   4.680  25.011  0.00  0.00    +0.027 C 
ATOM      8  C   UNL     1      -1.260   4.087  25.257  0.00  0.00    +0.138 C 
BRANCH   4   2
ATOM      1  C   UNL     1      -2.867   3.958  26.391  0.00  0.00    +0.017 C 
ATOM      2  C   UNL     1      -2.691   4.029  25.588  0.00  0.00    +0.058 C 
ATOM      3  C   UNL     1      -3.200   3.705  25.024  0.00  0.00    +0.017 C 
ENDBRANCH   4   2
ENDBRANCH   9   8
ENDBRANCH  14  11
TORSDOF 4
ENDMDL
MODEL 4
REMARK VINA RESULT:     -10.4      1.712      5.800
REMARK  Name = 
REMARK  4 active torsions:
REMARK  status: ('A' for Active; 'I' for Inactive)
REMARK    1  A    between atoms: C_2  and  N_4
REMARK    2  A    between atoms: C_8  and  C_9
REMARK    3  A    between atoms: C_11  and  C_14
REMARK    4  A    between atoms: C_18  and  N_20
REMARK                            x       y       z     vdW  Elec       q    Type
REMARK                         _______ _______ _______ _____ _____    ______ ____
ROOT
ATOM     14  C   UNL     1      -0.630   0.246  24.529  0.00  0.00    +0.043 A 
ATOM     15  C   UNL     1       0.045   0.177  24.058  0.00  0.00    +0.024 A 
ATOM     16  C   UNL     1       0.437   0.854  23.798  0.00  0.00    +0.100 A 
ATOM     17  N   UNL     1       0.156   1.600  24.008  0.00  0.00    -0.229 NA
ATOM     18  C   UNL     1      -0.519   1.670  24.478  0.00  0.00    +0.132 A 
ATOM     19  C   UNL     1      -0.911   0.993  24.738  0.00  0.00    +0.037 A 
ENDROOT
BRANCH  18  20
ATOM     20  N   UNL     1      -0.800   2.417  24.688  0.00  0.00    -0.290 N 
ATOM     21  C   UNL     1      -0.443   3.093  24.380  0.00  0.00    +0.114 C 
ATOM     22  C   UNL     1      -0.725   3.839  24.589  0.00  0.00    +0.115 C 
ATOM     23  N   UNL     1      -1.364   3.909  25.107  0.00  0.00    -0.276 N 
ATOM     24  C   UNL     1      -1.721   3.232  25.415  0.00  0.00    +0.115 C 
ATOM     25  C   UNL     1      -1.439   2.486  25.205  0.00  0.00    +0.114 C 
ATOM     26  C   UNL     1      -1.645   4.656  25.317  0.00  0.00    +0.226 C 
ATOM     27  C   UNL     1      -1.288   5.333  25.009  0.00  0.00    +0.095 C 
ATOM     28  O   UNL     1      -2.284   4.725  25.834  0.00  0.00    -0.275 OA
ENDBRANCH  18  20
BRANCH  14  11
ATOM      9  C   UNL     1      -1.884  -1.448  24.871  0.00  0.00    +0.251 A 
ATOM     10  N   UNL     1      -1.671  -0.787  24.426  0.00  0.00    -0.190 NA
ATOM     11  C   UNL     1      -1.022  -0.432  24.789  0.00  0.00    +0.203 A 
ATOM     12  N   UNL     1      -0.832  -0.874  25.459  0.00  0.00    -0.056 NA
ATOM     13  O   UNL     1      -1.364  -1.502  25.510  0.00  0.00    -0.336 OA
BRANCH   9   8
ATOM      4  N   UNL     1      -3.285  -1.883  24.962  0.00  0.00    -0.268 NA
ATOM      5  C   UNL     1      -3.717  -2.522  24.671  0.00  0.00    +0.072 C 
ATOM      6  C   UNL     1      -3.203  -3.000  24.236  0.00  0.00    +0.019 C 
ATOM      7  C   UNL     1      -2.454  -2.656  24.258  0.00  0.00    +0.027 C 
ATOM      8  C   UNL     1      -2.504  -1.965  24.707  0.00  0.00    +0.138 C 
BRANCH   4   2
ATOM      1  C   UNL     1      -3.486  -1.288  26.245  0.00  0.00    +0.017 C 
ATOM      2  C   UNL     1      -3.581  -1.269  25.426  0.00  0.00    +0.058 C 
ATOM      3  C   UNL     1      -3.972  -0.635  25.071  0.00  0.00    +0.017 C 
ENDBRANCH   4   2
ENDBRANCH   9   8
ENDBRANCH  14  11
TORSDOF 4
ENDMDL
MODEL 5
REMARK VINA RESULT:      -9.8      2.501      4.130
REMARK  Name = 
REMARK  4 active torsions:
REMARK  status: ('A' for Active; 'I' for Inactive)
REMARK    1  A    between atoms: C_2  and  N_4
REMARK    2  A    between atoms: C_8  and  C_9
REMARK    3  A    between atoms: C_11  and  C_14
REMARK    4  A    between atoms: C_18  and  N_20
REMARK                            x       y       z     vdW  Elec       q    Type
REMARK                         _______ _______ _______ _____ _____    ______ ____
ROOT
ATOM     14  C   UNL     1      -2.567   0.300  24.670  0.00  0.00    +0.043 A 
ATOM     15  C   UNL     1      -2.673  -0.374  25.134  0.00  0.00    +0.024 A 
ATOM     16  C   UNL     1      -2.041  -0.887  25.266  0.00  0.00    +0.100 A 
ATOM     17  N   UNL     1      -1.303  -0.727  24.934  0.00  0.00    -0.229 NA
ATOM     18  C   UNL     1      -1.197  -0.053  24.470  0.00  0.00    +0.132 A 
ATOM     19  C   UNL     1      -1.829   0.461  24.338  0.00  0.00    +0.037 A 
ENDROOT
BRANCH  18  20
ATOM     20  N   UNL     1      -0.459   0.107  24.138  0.00  0.00    -0.290 N 
ATOM     21  C   UNL     1      -0.103  -0.445  23.640  0.00  0.00    +0.114 C 
ATOM     22  C   UNL     1       0.635  -0.284  23.308  0.00  0.00    +0.115 C 
ATOM     23  N   UNL     1       1.017   0.428  23.474  0.00  0.00    -0.276 N 
ATOM     24  C   UNL     1       0.660   0.980  23.973  0.00  0.00    +0.115 C 
ATOM     25  C   UNL     1      -0.078   0.820  24.305  0.00  0.00    +0.114 C 
ATOM     26  C   UNL     1       1.755   0.588  23.142  0.00  0.00    +0.226 C 
ATOM     27  C   UNL     1       2.112   0.036  22.644  0.00  0.00    +0.095 C 
ATOM     28  O   UNL     1       2.136   1.301  23.309  0.00  0.00    -0.275 OA
ENDBRANCH  18  20
BRANCH  14  11
ATOM      9  C   UNL     1      -4.197   1.678  24.739  0.00  0.00    +0.251 A 
ATOM     10  N   UNL     1      -3.610   1.237  25.114  0.00  0.00    -0.190 NA
ATOM     11  C   UNL     1      -3.200   0.813  24.538  0.00  0.00    +0.203 A 
ATOM     12  N   UNL     1      -3.534   0.991  23.805  0.00  0.00    -0.056 NA
ATOM     13  O   UNL     1      -4.150   1.526  23.929  0.00  0.00    -0.336 OA
BRANCH   9   8
ATOM      4  N   UNL     1      -4.649   2.996  25.209  0.00  0.00    -0.268 NA
ATOM      5  C   UNL     1      -5.317   3.276  25.602  0.00  0.00    +0.072 C 
ATOM      6  C   UNL     1      -5.818   2.636  25.743  0.00  0.00    +0.019 C 
ATOM      7  C   UNL     1      -5.460   1.959  25.436  0.00  0.00    +0.027 C 
ATOM      8  C   UNL     1      -4.736   2.181  25.106  0.00  0.00    +0.138 C 
BRANCH   4   2
ATOM      1  C   UNL     1      -3.971   3.727  24.186  0.00  0.00    +0.017 C 
ATOM      2  C   UNL     1      -4.006   3.448  24.962  0.00  0.00    +0.058 C 
ATOM      3  C   UNL     1      -3.397   3.623  25.491  0.00  0.00    +0.017 C 
ENDBRANCH   4   2
ENDBRANCH   9   8
ENDBRANCH  14  11
TORSDOF 4
ENDMDL
MODEL 6
REMARK VINA RESULT:      -9.4      2.338      4.359
REMARK  Name = 
REMARK  4 active torsions:
REMARK  status: ('A' for Active; 'I' for Inactive)
REMARK    1  A    between atoms: C_2  and  N_4
REMARK    2  A    between atoms: C_8  and  C_9
REMARK    3  A    between atoms: C_11  and  C_14
REMARK    4  A    between atoms: C_18  and  N_20
REMARK                            x       y       z     vdW  Elec       q    Type
REMARK                         _______ _______ _______ _____ _____    ______ ____
ROOT
ATOM     14  C   UNL     1      -1.224   3.036  25.028  0.00  0.00    +0.043 A 
ATOM     15  C   UNL     1      -0.964   3.819  25.013  0.00  0.00    +0.024 A 
ATOM     16  C   UNL     1      -1.506   4.435  25.092  0.00  0.00    +0.100 A 
ATOM     17  N   UNL     1      -2.309   4.268  25.186  0.00  0.00    -0.229 NA
ATOM     18  C   UNL     1      -2.569   3.486  25.201  0.00  0.00    +0.132 A 
ATOM     19  C   UNL     1      -2.026   2.869  25.121  0.00  0.00    +0.037 A 
ENDROOT
BRANCH  18  20
ATOM     20  N   UNL     1      -3.372   3.319  25.294  0.00  0.00    -0.290 N 
ATOM     21  C   UNL     1      -3.731   2.746  24.824  0.00  0.00    +0.114 C 
ATOM     22  C   UNL     1      -4.533   2.579  24.917  0.00  0.00    +0.115 C 
ATOM     23  N   UNL     1      -4.977   2.987  25.481  0.00  0.00    -0.276 N 
ATOM     24  C   UNL     1      -4.617   3.561  25.952  0.00  0.00    +0.115 C 
ATOM     25  C   UNL     1      -3.814   3.727  25.859  0.00  0.00    +0.114 C 
ATOM     26  C   UNL     1      -5.779   2.820  25.575  0.00  0.00    +0.226 C 
ATOM     27  C   UNL     1      -6.139   2.246  25.104  0.00  0.00    +0.095 C 
ATOM     28  O   UNL     1      -6.222   3.228  26.139  0.00  0.00    -0.275 OA
ENDBRANCH  18  20
BRANCH  14  11
ATOM      9  C   UNL     1      -0.014   1.367  24.468  0.00  0.00    +0.251 A 
ATOM     10  N   UNL     1      -0.637   1.888  24.321  0.00  0.00    -0.190 NA
ATOM     11  C   UNL     1      -0.680   2.420  24.949  0.00  0.00    +0.203 A 
ATOM     12  N   UNL     1      -0.083   2.229  25.486  0.00  0.00    -0.056 NA
ATOM     13  O   UNL     1       0.328   1.578  25.189  0.00  0.00    -0.336 OA
BRANCH   9   8
ATOM      4  N   UNL     1      -0.080  -0.021  23.989  0.00  0.00    -0.268 NA
ATOM      5  C   UNL     1       0.318  -0.459  23.415  0.00  0.00    +0.072 C 
ATOM      6  C   UNL     1       0.869   0.037  23.052  0.00  0.00    +0.019 C 
ATOM      7  C   UNL     1       0.812   0.782  23.403  0.00  0.00    +0.027 C 
ATOM      8  C   UNL     1       0.225   0.746  23.982  0.00  0.00    +0.138 C 
BRANCH   4   2
ATOM      1  C   UNL     1      -1.463  -0.282  24.232  0.00  0.00    +0.017 C 
ATOM      2  C   UNL     1      -0.678  -0.300  24.483  0.00  0.00    +0.058 C 
ATOM      3  C   UNL     1      -0.491  -0.599  25.230  0.00  0.00    +0.017 C 
ENDBRANCH   4   2
ENDBRANCH   9   8
ENDBRANCH  14  11
TORSDOF 4
ENDMDL
MODEL 7
REMARK VINA RESULT:      -9.2     16.033     18.895
REMARK  Name = 
REMARK  4 active torsions:
REMARK  status: ('A' for Active; 'I' for Inactive)
REMARK    1  A    between atoms: C_2  and  N_4
REMARK    2  A    between atoms: C_8  and  C_9
REMARK    3  A    between atoms: C_11  and  C_14
REMARK    4  A    between atoms: C_18  and  N_20
REMARK                            x       y       z     vdW  Elec       q    Type
REMARK                         _______ _______ _______ _____ _____    ______ ____
ROOT
ATOM     14  C   UNL     1      13.620   7.464  18.947  0.00  0.00    +0.043 A 
ATOM     15  C   UNL     1      13.255   7.316  18.222  0.00  0.00    +0.024 A 
ATOM     16  C   UNL     1      12.433   7.327  18.164  0.00  0.00    +0.100 A 
ATOM     17  N   UNL     1      11.974   7.485  18.832  0.00  0.00    -0.229 NA
ATOM     18  C   UNL     1      12.339   7.633  19.557  0.00  0.00    +0.132 A 
ATOM     19  C   UNL     1      13.162   7.623  19.614  0.00  0.00    +0.037 A 
ENDROOT
BRANCH  18  20
ATOM     20  N   UNL     1      11.881   7.792  20.224  0.00  0.00    -0.290 N 
ATOM     21  C   UNL     1      11.667   8.568  20.403  0.00  0.00    +0.114 C 
ATOM     22  C   UNL     1      11.209   8.726  21.070  0.00  0.00    +0.115 C 
ATOM     23  N   UNL     1      10.965   8.109  21.559  0.00  0.00    -0.276 N 
ATOM     24  C   UNL     1      11.178   7.332  21.380  0.00  0.00    +0.115 C 
ATOM     25  C   UNL     1      11.637   7.173  20.713  0.00  0.00    +0.114 C 
ATOM     26  C   UNL     1      10.507   8.267  22.227  0.00  0.00    +0.226 C 
ATOM     27  C   UNL     1      10.293   9.044  22.406  0.00  0.00    +0.095 C 
ATOM     28  O   UNL     1      10.262   7.649  22.715  0.00  0.00    -0.275 OA
ENDBRANCH  18  20
BRANCH  14  11
ATOM      9  C   UNL     1      15.702   7.029  19.136  0.00  0.00    +0.251 A 
ATOM     10  N   UNL     1      14.914   6.786  19.111  0.00  0.00    -0.190 NA
ATOM     11  C   UNL     1      14.443   7.454  19.003  0.00  0.00    +0.203 A 
ATOM     12  N   UNL     1      14.940   8.112  18.962  0.00  0.00    -0.056 NA
ATOM     13  O   UNL     1      15.718   7.849  19.044  0.00  0.00    -0.336 OA
BRANCH   9   8
ATOM      4  N   UNL     1      16.800   6.456  19.928  0.00  0.00    -0.268 NA
ATOM      5  C   UNL     1      17.403   5.913  19.780  0.00  0.00    +0.072 C 
ATOM      6  C   UNL     1      17.335   5.662  18.996  0.00  0.00    +0.019 C 
ATOM      7  C   UNL     1      16.689   6.050  18.660  0.00  0.00    +0.027 C 
ATOM      8  C   UNL     1      16.358   6.541  19.236  0.00  0.00    +0.138 C 
BRANCH   4   2
ATOM      1  C   UNL     1      16.208   6.485  21.227  0.00  0.00    +0.017 C 
ATOM      2  C   UNL     1      16.663   6.845  20.641  0.00  0.00    +0.058 C 
ATOM      3  C   UNL     1      16.980   7.597  20.769  0.00  0.00    +0.017 C 
ENDBRANCH   4   2
ENDBRANCH   9   8
ENDBRANCH  14  11
TORSDOF 4
ENDMDL
