MODEL 1
REMARK VINA RESULT:     -15.8      0.000      0.000
REMARK  Name = 
REMARK  3 active torsions:
REMARK  status: ('A' for Active; 'I' for Inactive)
REMARK    1  A    between atoms: S_2  and  C_3
REMARK    2  A    between atoms: C_6  and  C_9
REMARK    3  A    between atoms: N_21  and  C_22
REMARK                            x       y       z     vdW  Elec       q    Type
REMARK                         _______ _______ _______ _____ _____    ______ ____
ROOT
ATOM      9  C   UNL     1      -4.369   0.795  24.902  0.00  0.00    +0.056 A 
ATOM     10  C   UNL     1      -5.169   0.982  24.982  0.00  0.00    +0.006 A 
ATOM     11  C   UNL     1      -5.399   1.764  25.107  0.00  0.00    +0.013 A 
ATOM     12  C   UNL     1      -4.830   2.359  25.153  0.00  0.00    +0.041 A 
ATOM     13  C   UNL     1      -4.756   3.267  25.276  0.00  0.00    +0.058 C 
ATOM     14  C   UNL     1      -5.144   3.842  25.383  0.00  0.00    +0.011 C 
ATOM     15  C   UNL     1      -4.355   3.654  25.304  0.00  0.00    +0.043 C 
ATOM     16  C   UNL     1      -3.370   3.629  25.235  0.00  0.00    +0.097 C 
ATOM     17  N   UNL     1      -3.259   2.810  25.112  0.00  0.00    -0.262 N 
ATOM     18  C   UNL     1      -3.803   3.259  25.211  0.00  0.00    +0.101 C 
ATOM     19  C   UNL     1      -2.862   2.097  24.986  0.00  0.00    +0.327 C 
ATOM     20  O   UNL     1      -3.289   1.394  24.915  0.00  0.00    -0.250 OA
ATOM     21  N   UNL     1      -2.040   2.087  24.930  0.00  0.00    -0.162 NA
ATOM     28  C   UNL     1      -4.423   2.705  25.175  0.00  0.00    +0.110 C 
ATOM     29  N   UNL     1      -4.031   2.172  25.074  0.00  0.00    -0.299 N 
ATOM     30  C   UNL     1      -3.800   1.390  24.948  0.00  0.00    +0.261 A 
ATOM     31  O   UNL     1      -3.100   0.968  24.842  0.00  0.00    -0.267 OA
ENDROOT
BRANCH   9   6
ATOM      3  C   UNL     1      -3.679  -1.551  24.525  0.00  0.00    +0.025 A 
ATOM      4  C   UNL     1      -3.731  -1.256  25.293  0.00  0.00    +0.006 A 
ATOM      5  C   UNL     1      -3.961  -0.473  25.419  0.00  0.00    +0.001 A 
ATOM      6  C   UNL     1      -4.139   0.013  24.777  0.00  0.00    +0.005 A 
ATOM      7  C   UNL     1      -4.087  -0.283  24.009  0.00  0.00    +0.001 A 
ATOM      8  C   UNL     1      -3.857  -1.065  23.882  0.00  0.00    +0.006 A 
BRANCH   3   2
ATOM      1  C   UNL     1      -3.308  -2.830  25.041  0.00  0.00    +0.074 C 
ATOM      2  S   UNL     1      -3.449  -2.334  24.399  0.00  0.00    -0.113 S 
ENDBRANCH   3   2
ENDBRANCH   9   6
BRANCH  21  22
ATOM     22  C   UNL     1      -1.643   1.375  24.803  0.00  0.00    +0.075 A 
ATOM     23  C   UNL     1      -1.489   1.119  24.033  0.00  0.00    +0.017 A 
ATOM     24  C   UNL     1      -1.093   0.407  23.907  0.00  0.00    +0.001 A 
ATOM     25  C   UNL     1      -0.850  -0.050  24.551  0.00  0.00    +0.000 A 
ATOM     26  C   UNL     1      -1.004   0.206  25.319  0.00  0.00    +0.001 A 
ATOM     27  C   UNL     1      -1.400   0.918  25.446  0.00  0.00    +0.017 A 
ENDBRANCH  21  22
TORSDOF 3
ENDMDL
MODEL 2
REMARK VINA RESULT:     -15.7      1.732      3.820
REMARK  Name = 
REMARK  3 active torsions:
REMARK  status: ('A' for Active; 'I' for Inactive)
REMARK    1  A    between atoms: S_2  and  C_3
REMARK    2  A    between atoms: C_6  and  C_9
REMARK    3  A    between atoms: N_21  and  C_22
REMARK                            x       y       z     vdW  Elec       q    Type
REMARK                         _______ _______ _______ _____ _____    ______ ____
ROOT
ATOM      9  C   UNL     1      -3.628   0.128  24.294  0.00  0.00    +0.056 A 
ATOM     10  C   UNL     1      -4.333  -0.276  24.148  0.00  0.00    +0.006 A 
ATOM     11  C   UNL     1      -4.348  -1.100  24.172  0.00  0.00    +0.013 A 
ATOM     12  C   UNL     1      -3.659  -1.521  24.342  0.00  0.00    +0.041 A 
ATOM     13  C   UNL     1      -3.355  -2.382  24.439  0.00  0.00    +0.058 C 
ATOM     14  C   UNL     1      -3.572  -3.049  24.413  0.00  0.00    +0.011 C 
ATOM     15  C   UNL     1      -2.878  -2.647  24.556  0.00  0.00    +0.043 C 
ATOM     16  C   UNL     1      -1.957  -2.348  24.755  0.00  0.00    +0.097 C 
ATOM     17  N   UNL     1      -2.064  -1.521  24.703  0.00  0.00    -0.262 N 
ATOM     18  C   UNL     1      -2.460  -2.109  24.633  0.00  0.00    +0.101 C 
ATOM     19  C   UNL     1      -1.875  -0.718  24.719  0.00  0.00    +0.327 C 
ATOM     20  O   UNL     1      -2.458  -0.153  24.568  0.00  0.00    -0.250 OA
ATOM     21  N   UNL     1      -1.103  -0.480  24.885  0.00  0.00    -0.162 NA
ATOM     28  C   UNL     1      -3.187  -1.744  24.456  0.00  0.00    +0.110 C 
ATOM     29  N   UNL     1      -2.955  -1.117  24.488  0.00  0.00    -0.299 N 
ATOM     30  C   UNL     1      -2.939  -0.292  24.464  0.00  0.00    +0.261 A 
ATOM     31  O   UNL     1      -2.389   0.314  24.568  0.00  0.00    -0.267 OA
ENDROOT
BRANCH   9   6
ATOM      3  C   UNL     1      -3.585   2.601  24.223  0.00  0.00    +0.025 A 
ATOM      4  C   UNL     1      -3.413   2.167  23.543  0.00  0.00    +0.006 A 
ATOM      5  C   UNL     1      -3.427   1.341  23.566  0.00  0.00    +0.001 A 
ATOM      6  C   UNL     1      -3.614   0.952  24.269  0.00  0.00    +0.005 A 
ATOM      7  C   UNL     1      -3.785   1.388  24.949  0.00  0.00    +0.001 A 
ATOM      8  C   UNL     1      -3.771   2.212  24.925  0.00  0.00    +0.006 A 
BRANCH   3   2
ATOM      1  C   UNL     1      -3.677   3.860  24.891  0.00  0.00    +0.074 C 
ATOM      2  S   UNL     1      -3.570   3.427  24.199  0.00  0.00    -0.113 S 
ENDBRANCH   3   2
ENDBRANCH   9   6
BRANCH  21  22
ATOM     22  C   UNL     1      -0.914   0.323  24.901  0.00  0.00    +0.075 A 
ATOM     23  C   UNL     1      -0.659   0.701  24.213  0.00  0.00    +0.017 A 
ATOM     24  C   UNL     1      -0.470   1.504  24.230  0.00  0.00    +0.001 A 
ATOM     25  C   UNL     1      -0.535   1.929  24.934  0.00  0.00    +0.000 A 
ATOM     26  C   UNL     1      -0.790   1.551  25.621  0.00  0.00    +0.001 A 
ATOM     27  C   UNL     1      -0.979   0.749  25.606  0.00  0.00    +0.017 A 
ENDBRANCH  21  22
TORSDOF 3
ENDMDL
MODEL 3
REMARK VINA RESULT:     -15.5      0.971      2.554
REMARK  Name = 
REMARK  3 active torsions:
REMARK  status: ('A' for Active; 'I' for Inactive)
REMARK    1  A    between atoms: S_2  and  C_3
REMARK    2  A    between atoms: C_6  and  C_9
REMARK    3  A    between atoms: N_21  and  C_22
REMARK                            x       y       z     vdW  Elec       q    Type
REMARK                         _______ _______ _______ _____ _____    ______ ____
ROOT
ATOM      9  C   UNL     1      -2.758   1.928  24.802  0.00  0.00    +0.056 A 
ATOM     10  C   UNL     1      -2.659   2.747  24.837  0.00  0.00    +0.006 A 
ATOM     11  C   UNL     1      -3.306   3.235  24.993  0.00  0.00    +0.013 A 
ATOM     12  C   UNL     1      -4.052   2.904  25.114  0.00  0.00    +0.041 A 
ATOM     13  C   UNL     1      -4.919   3.147  25.296  0.00  0.00    +0.058 C 
ATOM     14  C   UNL     1      -5.320   3.712  25.410  0.00  0.00    +0.011 C 
ATOM     15  C   UNL     1      -5.414   2.903  25.375  0.00  0.00    +0.043 C 
ATOM     16  C   UNL     1      -5.726   1.966  25.373  0.00  0.00    +0.097 C 
ATOM     17  N   UNL     1      -5.004   1.579  25.209  0.00  0.00    -0.262 N 
ATOM     18  C   UNL     1      -5.236   2.246  25.297  0.00  0.00    +0.101 C 
ATOM     19  C   UNL     1      -4.479   0.958  25.067  0.00  0.00    +0.327 C 
ATOM     20  O   UNL     1      -3.681   1.118  24.925  0.00  0.00    -0.250 OA
ATOM     21  N   UNL     1      -4.750   0.180  25.068  0.00  0.00    -0.162 NA
ATOM     28  C   UNL     1      -4.511   2.640  25.184  0.00  0.00    +0.110 C 
ATOM     29  N   UNL     1      -4.151   2.086  25.079  0.00  0.00    -0.299 N 
ATOM     30  C   UNL     1      -3.504   1.598  24.923  0.00  0.00    +0.261 A 
ATOM     31  O   UNL     1      -3.350   0.792  24.840  0.00  0.00    -0.267 OA
ENDROOT
BRANCH   9   6
ATOM      3  C   UNL     1      -0.817   0.467  24.332  0.00  0.00    +0.025 A 
ATOM      4  C   UNL     1      -1.009   0.659  25.111  0.00  0.00    +0.006 A 
ATOM      5  C   UNL     1      -1.657   1.146  25.268  0.00  0.00    +0.001 A 
ATOM      6  C   UNL     1      -2.111   1.441  24.646  0.00  0.00    +0.005 A 
ATOM      7  C   UNL     1      -1.918   1.250  23.867  0.00  0.00    +0.001 A 
ATOM      8  C   UNL     1      -1.271   0.762  23.710  0.00  0.00    +0.006 A 
BRANCH   3   2
ATOM      1  C   UNL     1       0.232   0.047  23.458  0.00  0.00    +0.074 C 
ATOM      2  S   UNL     1      -0.169  -0.020  24.175  0.00  0.00    -0.113 S 
ENDBRANCH   3   2
ENDBRANCH   9   6
BRANCH  21  22
ATOM     22  C   UNL     1      -4.224  -0.441  24.926  0.00  0.00    +0.075 A 
ATOM     23  C   UNL     1      -4.105  -0.713  24.156  0.00  0.00    +0.017 A 
ATOM     24  C   UNL     1      -3.579  -1.332  24.015  0.00  0.00    +0.001 A 
ATOM     25  C   UNL     1      -3.173  -1.681  24.644  0.00  0.00    +0.000 A 
ATOM     26  C   UNL     1      -3.292  -1.408  25.413  0.00  0.00    +0.001 A 
ATOM     27  C   UNL     1      -3.818  -0.789  25.555  0.00  0.00    +0.017 A 
ENDBRANCH  21  22
TORSDOF 3
ENDMDL
MODEL 4
REMARK VINA RESULT:     -15.3      1.738      4.209
REMARK  Name = 
REMARK  3 active torsions:
REMARK  status: ('A' for Active; 'I' for Inactive)
REMARK    1  A    between atoms: S_2  and  C_3
REMARK    2  A    between atoms: C_6  and  C_9
REMARK    3  A    between atoms: N_21  and  C_22
REMARK                            x       y       z     vdW  Elec       q    Type
REMARK                         _______ _______ _______ _____ _____    ______ ____
ROOT
ATOM      9  C   UNL     1      -1.690  -0.533  24.840  0.00  0.00    +0.056 A 
ATOM     10  C   UNL     1      -1.347  -1.266  24.999  0.00  0.00    +0.006 A 
ATOM     11  C   UNL     1      -1.786  -1.958  24.901  0.00  0.00    +0.013 A 
ATOM     12  C   UNL     1      -2.569  -1.916  24.644  0.00  0.00    +0.041 A 
ATOM     13  C   UNL     1      -3.285  -2.457  24.446  0.00  0.00    +0.058 C 
ATOM     14  C   UNL     1      -3.476  -3.132  24.427  0.00  0.00    +0.011 C 
ATOM     15  C   UNL     1      -3.812  -2.406  24.271  0.00  0.00    +0.043 C 
ATOM     16  C   UNL     1      -4.386  -1.638  24.033  0.00  0.00    +0.097 C 
ATOM     17  N   UNL     1      -3.847  -1.014  24.168  0.00  0.00    -0.262 N 
ATOM     18  C   UNL     1      -3.852  -1.725  24.213  0.00  0.00    +0.101 C 
ATOM     19  C   UNL     1      -3.559  -0.242  24.211  0.00  0.00    +0.327 C 
ATOM     20  O   UNL     1      -2.782  -0.104  24.456  0.00  0.00    -0.250 OA
ATOM     21  N   UNL     1      -4.047   0.392  24.011  0.00  0.00    -0.162 NA
ATOM     28  C   UNL     1      -3.069  -1.833  24.475  0.00  0.00    +0.110 C 
ATOM     29  N   UNL     1      -2.912  -1.183  24.484  0.00  0.00    -0.299 N 
ATOM     30  C   UNL     1      -2.473  -0.491  24.582  0.00  0.00    +0.261 A 
ATOM     31  O   UNL     1      -2.581   0.321  24.493  0.00  0.00    -0.267 OA
ENDROOT
BRANCH   9   6
ATOM      3  C   UNL     1      -0.371   1.539  25.136  0.00  0.00    +0.025 A 
ATOM      4  C   UNL     1      -0.365   1.148  24.410  0.00  0.00    +0.006 A 
ATOM      5  C   UNL     1      -0.806   0.456  24.311  0.00  0.00    +0.001 A 
ATOM      6  C   UNL     1      -1.251   0.158  24.938  0.00  0.00    +0.005 A 
ATOM      7  C   UNL     1      -1.256   0.550  25.664  0.00  0.00    +0.001 A 
ATOM      8  C   UNL     1      -0.816   1.241  25.763  0.00  0.00    +0.006 A 
BRANCH   3   2
ATOM      1  C   UNL     1       0.069   2.618  25.962  0.00  0.00    +0.074 C 
ATOM      2  S   UNL     1       0.069   2.231  25.235  0.00  0.00    -0.113 S 
ENDBRANCH   3   2
ENDBRANCH   9   6
BRANCH  21  22
ATOM     22  C   UNL     1      -3.759   1.164  24.054  0.00  0.00    +0.075 A 
ATOM     23  C   UNL     1      -3.384   1.503  23.401  0.00  0.00    +0.017 A 
ATOM     24  C   UNL     1      -3.097   2.275  23.445  0.00  0.00    +0.001 A 
ATOM     25  C   UNL     1      -3.183   2.708  24.142  0.00  0.00    +0.000 A 
ATOM     26  C   UNL     1      -3.557   2.370  24.794  0.00  0.00    +0.001 A 
ATOM     27  C   UNL     1      -3.845   1.598  24.751  0.00  0.00    +0.017 A 
ENDBRANCH  21  22
TORSDOF 3
ENDMDL
MODEL 5
REMARK VINA RESULT:     -15.0      1.469      2.604
REMARK  Name = 
REMARK  3 active torsions:
REMARK  status: ('A' for Active; 'I' for Inactive)
REMARK    1  A    between atoms: S_2  and  C_3
REMARK    2  A    between atoms: C_6  and  C_9
REMARK    3  A    between atoms: N_21  and  C_22
REMARK                            x       y       z     vdW  Elec       q    Type
REMARK                         _______ _______ _______ _____ _____    ______ ____
ROOT
ATOM      9  C   UNL     1      -3.294   1.242  24.574  0.00  0.00    +0.056 A 
ATOM     10  C   UNL     1      -3.831   0.638  24.409  0.00  0.00    +0.006 A 
ATOM     11  C   UNL     1      -4.635   0.748  24.557  0.00  0.00    +0.013 A 
ATOM     12  C   UNL     1      -4.901   1.463  24.870  0.00  0.00    +0.041 A 
ATOM     13  C   UNL     1      -5.676   1.881  25.135  0.00  0.00    +0.058 C 
ATOM     14  C   UNL     1      -6.368   1.777  25.185  0.00  0.00    +0.011 C 
ATOM     15  C   UNL     1      -5.835   2.371  25.347  0.00  0.00    +0.043 C 
ATOM     16  C   UNL     1      -5.356   3.196  25.606  0.00  0.00    +0.097 C 
ATOM     17  N   UNL     1      -4.575   2.969  25.415  0.00  0.00    -0.262 N 
ATOM     18  C   UNL     1      -5.227   2.685  25.390  0.00  0.00    +0.101 C 
ATOM     19  C   UNL     1      -3.756   3.027  25.331  0.00  0.00    +0.327 C 
ATOM     20  O   UNL     1      -3.327   2.390  25.026  0.00  0.00    -0.250 OA
ATOM     21  N   UNL     1      -3.366   3.719  25.550  0.00  0.00    -0.162 NA
ATOM     28  C   UNL     1      -5.021   1.943  25.073  0.00  0.00    +0.110 C 
ATOM     29  N   UNL     1      -4.364   2.067  25.036  0.00  0.00    -0.299 N 
ATOM     30  C   UNL     1      -3.560   1.957  24.888  0.00  0.00    +0.261 A 
ATOM     31  O   UNL     1      -2.859   2.384  24.963  0.00  0.00    -0.267 OA
ENDROOT
BRANCH   9   6
ATOM      3  C   UNL     1      -0.883   0.909  24.127  0.00  0.00    +0.025 A 
ATOM      4  C   UNL     1      -1.199   0.698  24.859  0.00  0.00    +0.006 A 
ATOM      5  C   UNL     1      -2.003   0.809  25.008  0.00  0.00    +0.001 A 
ATOM      6  C   UNL     1      -2.490   1.131  24.426  0.00  0.00    +0.005 A 
ATOM      7  C   UNL     1      -2.173   1.342  23.693  0.00  0.00    +0.001 A 
ATOM      8  C   UNL     1      -1.370   1.231  23.544  0.00  0.00    +0.006 A 
BRANCH   3   2
ATOM      1  C   UNL     1       0.176   0.127  23.572  0.00  0.00    +0.074 C 
ATOM      2  S   UNL     1      -0.078   0.798  23.978  0.00  0.00    -0.113 S 
ENDBRANCH   3   2
ENDBRANCH   9   6
BRANCH  21  22
ATOM     22  C   UNL     1      -2.547   3.777  25.465  0.00  0.00    +0.075 A 
ATOM     23  C   UNL     1      -2.050   3.526  26.075  0.00  0.00    +0.017 A 
ATOM     24  C   UNL     1      -1.232   3.583  25.990  0.00  0.00    +0.001 A 
ATOM     25  C   UNL     1      -0.910   3.891  25.295  0.00  0.00    +0.000 A 
ATOM     26  C   UNL     1      -1.406   4.141  24.686  0.00  0.00    +0.001 A 
ATOM     27  C   UNL     1      -2.224   4.084  24.770  0.00  0.00    +0.017 A 
ENDBRANCH  21  22
TORSDOF 3
ENDMDL
