REMARK  Name = 
REMARK  8 active torsions:
REMARK  status: ('A' for Active; 'I' for Inactive)
REMARK    1  A    between atoms: C_2  and  C_5
REMARK    2  A    between atoms: C_5  and  C_6
REMARK    3  A    between atoms: C_15  and  C_17
REMARK    4  A    between atoms: C_25  and  C_26
REMARK    5  A    between atoms: C_26  and  C_27
REMARK    6  A    between atoms: N_29  and  C_30
REMARK    7  A    between atoms: C_30  and  C_31
REMARK    8  A    between atoms: C_31  and  N_32
REMARK                            x       y       z     vdW  Elec       q    Type
REMARK                         _______ _______ _______ _____ _____    ______ ____
ROOT
ATOM      6  C   UNL     1       2.421  -3.972   0.000  0.00  0.00    +0.247 C 
ATOM      7  O   UNL     1       1.596  -3.972   0.000  0.00  0.00    -0.273 OA
ATOM      8  N   UNL     1       2.833  -3.258   0.000  0.00  0.00    -0.154 NA
ATOM      9  C   UNL     1       2.421  -2.543   0.000  0.00  0.00    +0.185 A 
ATOM     10  N   UNL     1       2.756  -1.790   0.000  0.00  0.00    -0.227 NA
ATOM     11  C   UNL     1       2.143  -1.238   0.000  0.00  0.00    +0.063 A 
ATOM     12  C   UNL     1       1.429  -1.650   0.000  0.00  0.00    +0.023 A 
ATOM     13  C   UNL     1       0.715  -1.238   0.000  0.00  0.00    +0.034 C 
ATOM     14  C   UNL     1       0.715  -0.412   0.000  0.00  0.00    +0.010 C 
ATOM     15  C   UNL     1       0.000   0.000   0.000  0.00  0.00    +0.059 C 
ATOM     16  C   UNL     1      -0.282  -0.775   0.000  0.00  0.00    +0.005 C 
ATOM     19  C   UNL     1       0.000   0.825   0.000  0.00  0.00    +0.154 C 
ATOM     20  O   UNL     1      -0.715   1.238   0.000  0.00  0.00    -0.223 OA
ATOM     21  C   UNL     1       0.715   1.238   0.000  0.00  0.00    +0.033 C 
ATOM     22  C   UNL     1       1.429   0.825   0.000  0.00  0.00    +0.003 C 
ATOM     23  C   UNL     1       1.429   0.000   0.000  0.00  0.00    +0.006 C 
ATOM     24  C   UNL     1       2.143   0.412   0.000  0.00  0.00    +0.000 C 
ATOM     25  C   UNL     1       2.143  -0.412   0.000  0.00  0.00    +0.050 C 
ATOM     38  S   UNL     1       1.601  -2.457   0.000  0.00  0.00    -0.054 S 
ENDROOT
BRANCH  15  17
ATOM     17  C   UNL     1      -0.812   0.143   0.000  0.00  0.00    +0.184 C 
ATOM     18  O   UNL     1      -1.095   0.918   0.000  0.00  0.00    -0.220 OA
ENDBRANCH  15  17
BRANCH   6   5
ATOM      5  C   UNL     1       2.833  -4.687   0.000  0.00  0.00    +0.087 C 
BRANCH   5   2
ATOM      1  C   UNL     1       2.008  -6.116   0.000  0.00  0.00    +0.000 C 
ATOM      2  C   UNL     1       2.421  -5.401   0.000  0.00  0.00    +0.009 C 
ATOM      3  C   UNL     1       3.135  -5.814   0.000  0.00  0.00    +0.000 C 
ATOM      4  C   UNL     1       1.706  -4.989   0.000  0.00  0.00    +0.000 C 
ENDBRANCH   5   2
ENDBRANCH   6   5
BRANCH  25  26
ATOM     26  C   UNL     1       2.858   0.000   0.000  0.00  0.00    +0.093 C 
BRANCH  26  27
ATOM     27  C   UNL     1       3.572  -0.412   0.000  0.00  0.00    +0.242 C 
ATOM     28  O   UNL     1       3.572  -1.238   0.000  0.00  0.00    -0.273 OA
ATOM     29  N   UNL     1       4.287   0.000   0.000  0.00  0.00    -0.204 NA
BRANCH  29  30
ATOM     30  C   UNL     1       5.001  -0.412   0.000  0.00  0.00    +0.132 C 
BRANCH  30  31
ATOM     31  C   UNL     1       5.716   0.000   0.000  0.00  0.00    +0.096 C 
BRANCH  31  32
ATOM     32  N   UNL     1       6.430  -0.412   0.000  0.00  0.00    -0.267 NA
ATOM     33  C   UNL     1       7.145   0.000   0.000  0.00  0.00    +0.105 C 
ATOM     34  C   UNL     1       7.859  -0.412   0.000  0.00  0.00    +0.159 C 
ATOM     35  O   UNL     1       7.859  -1.238   0.000  0.00  0.00    -0.351 OA
ATOM     36  C   UNL     1       7.145  -1.650   0.000  0.00  0.00    +0.159 C 
ATOM     37  C   UNL     1       6.430  -1.238   0.000  0.00  0.00    +0.105 C 
ENDBRANCH  31  32
ENDBRANCH  30  31
ENDBRANCH  29  30
ENDBRANCH  26  27
ENDBRANCH  25  26
TORSDOF 8
