MODEL 1
REMARK VINA RESULT:     -11.5      0.000      0.000
REMARK  Name = 
REMARK  7 active torsions:
REMARK  status: ('A' for Active; 'I' for Inactive)
REMARK    1  A    between atoms: O_2  and  C_3
REMARK    2  A    between atoms: C_3  and  C_4
REMARK    3  A    between atoms: N_6  and  C_7
REMARK    4  A    between atoms: C_14  and  C_15
REMARK    5  A    between atoms: C_15  and  C_17
REMARK    6  A    between atoms: N_19  and  C_20
REMARK    7  A    between atoms: C_20  and  C_21
REMARK                            x       y       z     vdW  Elec       q    Type
REMARK                         _______ _______ _______ _____ _____    ______ ____
ROOT
ATOM      7  C   UNL     1      -4.019  -0.384  24.405  0.00  0.00    +0.095 C 
ATOM      8  C   UNL     1      -4.618  -0.457  24.967  0.00  0.00    +0.022 C 
ATOM      9  C   UNL     1      -5.001   0.217  25.250  0.00  0.00    +0.002 C 
ATOM     10  C   UNL     1      -4.787   0.962  24.972  0.00  0.00    +0.002 C 
ATOM     11  C   UNL     1      -5.386   0.889  25.534  0.00  0.00    +0.000 C 
ATOM     12  C   UNL     1      -5.170   1.636  25.255  0.00  0.00    +0.000 C 
ATOM     13  C   UNL     1      -4.955   2.381  24.976  0.00  0.00    +0.003 C 
ATOM     14  C   UNL     1      -4.356   2.454  24.414  0.00  0.00    +0.039 C 
ATOM     28  C   UNL     1      -3.972   1.782  24.130  0.00  0.00    +0.152 C 
ATOM     29  O   UNL     1      -3.374   1.855  23.568  0.00  0.00    -0.223 OA
ATOM     30  C   UNL     1      -4.187   1.035  24.409  0.00  0.00    +0.032 C 
ATOM     31  C   UNL     1      -3.803   0.363  24.126  0.00  0.00    +0.022 C 
ATOM     32  C   UNL     1      -3.205   0.436  23.564  0.00  0.00    +0.002 C 
ENDROOT
BRANCH   7   6
ATOM      4  C   UNL     1      -3.413  -1.656  24.644  0.00  0.00    +0.272 C 
ATOM      5  O   UNL     1      -3.577  -1.582  25.449  0.00  0.00    -0.271 OA
ATOM      6  N   UNL     1      -3.634  -1.056  24.121  0.00  0.00    -0.205 NA
BRANCH   4   3
ATOM      3  C   UNL     1      -3.029  -2.328  24.360  0.00  0.00    +0.229 C 
BRANCH   3   2
ATOM      1  C   UNL     1      -1.719  -2.898  24.314  0.00  0.00    +0.175 C 
ATOM      2  O   UNL     1      -2.360  -2.616  24.750  0.00  0.00    -0.342 OA
ENDBRANCH   3   2
ENDBRANCH   4   3
ENDBRANCH   7   6
BRANCH  14  15
ATOM     15  C   UNL     1      -4.141   3.200  24.134  0.00  0.00    +0.081 C 
ATOM     16  C   UNL     1      -4.316   3.416  23.359  0.00  0.00    +0.010 C 
BRANCH  15  17
ATOM     17  C   UNL     1      -3.749   3.729  24.633  0.00  0.00    +0.241 C 
ATOM     18  O   UNL     1      -4.180   4.193  25.162  0.00  0.00    -0.273 OA
ATOM     19  N   UNL     1      -2.927   3.795  24.601  0.00  0.00    -0.201 NA
BRANCH  19  20
ATOM     20  C   UNL     1      -2.536   4.324  25.099  0.00  0.00    +0.142 C 
BRANCH  20  21
ATOM     21  C   UNL     1      -1.713   4.314  25.145  0.00  0.00    +0.010 A 
ATOM     22  C   UNL     1      -1.319   3.608  25.314  0.00  0.00    -0.002 A 
ATOM     23  C   UNL     1      -0.495   3.598  25.361  0.00  0.00    -0.000 A 
ATOM     24  C   UNL     1      -0.066   4.291  25.239  0.00  0.00    +0.001 A 
ATOM     25  C   UNL     1      -0.460   4.996  25.070  0.00  0.00    +0.011 A 
ATOM     26  C   UNL     1      -1.284   5.007  25.023  0.00  0.00    +0.055 A 
ATOM     27 CL   UNL     1      -1.678   5.712  24.854  0.00  0.00    -0.083 Cl
ENDBRANCH  20  21
ENDBRANCH  19  20
ENDBRANCH  15  17
ENDBRANCH  14  15
TORSDOF 7
ENDMDL
MODEL 2
REMARK VINA RESULT:     -11.3      2.422      5.498
REMARK  Name = 
REMARK  7 active torsions:
REMARK  status: ('A' for Active; 'I' for Inactive)
REMARK    1  A    between atoms: O_2  and  C_3
REMARK    2  A    between atoms: C_3  and  C_4
REMARK    3  A    between atoms: N_6  and  C_7
REMARK    4  A    between atoms: C_14  and  C_15
REMARK    5  A    between atoms: C_15  and  C_17
REMARK    6  A    between atoms: N_19  and  C_20
REMARK    7  A    between atoms: C_20  and  C_21
REMARK                            x       y       z     vdW  Elec       q    Type
REMARK                         _______ _______ _______ _____ _____    ______ ____
ROOT
ATOM      7  C   UNL     1      -2.613   3.333  25.080  0.00  0.00    +0.095 C 
ATOM      8  C   UNL     1      -2.142   3.588  25.708  0.00  0.00    +0.022 C 
ATOM      9  C   UNL     1      -1.451   3.179  25.896  0.00  0.00    +0.002 C 
ATOM     10  C   UNL     1      -1.230   2.516  25.459  0.00  0.00    +0.002 C 
ATOM     11  C   UNL     1      -0.759   2.771  26.086  0.00  0.00    +0.000 C 
ATOM     12  C   UNL     1      -0.539   2.107  25.647  0.00  0.00    +0.000 C 
ATOM     13  C   UNL     1      -0.318   1.445  25.209  0.00  0.00    +0.003 C 
ATOM     14  C   UNL     1      -0.789   1.190  24.582  0.00  0.00    +0.039 C 
ATOM     28  C   UNL     1      -1.480   1.598  24.392  0.00  0.00    +0.152 C 
ATOM     29  O   UNL     1      -1.951   1.343  23.765  0.00  0.00    -0.223 OA
ATOM     30  C   UNL     1      -1.701   2.261  24.831  0.00  0.00    +0.032 C 
ATOM     31  C   UNL     1      -2.392   2.669  24.641  0.00  0.00    +0.022 C 
ATOM     32  C   UNL     1      -2.863   2.415  24.014  0.00  0.00    +0.002 C 
ENDROOT
BRANCH   7   6
ATOM      4  C   UNL     1      -3.905   3.816  25.451  0.00  0.00    +0.272 C 
ATOM      5  O   UNL     1      -3.814   3.484  26.201  0.00  0.00    -0.271 OA
ATOM      6  N   UNL     1      -3.304   3.741  24.890  0.00  0.00    -0.205 NA
BRANCH   4   3
ATOM      3  C   UNL     1      -4.597   4.224  25.262  0.00  0.00    +0.229 C 
BRANCH   3   2
ATOM      1  C   UNL     1      -5.998   4.435  25.446  0.00  0.00    +0.175 C 
ATOM      2  O   UNL     1      -5.311   4.013  25.618  0.00  0.00    -0.342 OA
ENDBRANCH   3   2
ENDBRANCH   4   3
ENDBRANCH   7   6
BRANCH  14  15
ATOM     15  C   UNL     1      -0.569   0.527  24.143  0.00  0.00    +0.081 C 
ATOM     16  C   UNL     1      -0.293   0.615  23.372  0.00  0.00    +0.010 C 
BRANCH  15  17
ATOM     17  C   UNL     1      -0.626  -0.226  24.477  0.00  0.00    +0.241 C 
ATOM     18  O   UNL     1       0.028  -0.562  24.852  0.00  0.00    -0.273 OA
ATOM     19  N   UNL     1      -1.338  -0.643  24.436  0.00  0.00    -0.201 NA
BRANCH  19  20
ATOM     20  C   UNL     1      -1.394  -1.395  24.770  0.00  0.00    +0.142 C 
BRANCH  20  21
ATOM     21  C   UNL     1      -2.133  -1.753  24.856  0.00  0.00    +0.010 A 
ATOM     22  C   UNL     1      -2.717  -1.389  25.312  0.00  0.00    -0.002 A 
ATOM     23  C   UNL     1      -3.455  -1.747  25.397  0.00  0.00    -0.000 A 
ATOM     24  C   UNL     1      -3.610  -2.466  25.027  0.00  0.00    +0.001 A 
ATOM     25  C   UNL     1      -3.027  -2.830  24.571  0.00  0.00    +0.011 A 
ATOM     26  C   UNL     1      -2.288  -2.472  24.485  0.00  0.00    +0.055 A 
ATOM     27 CL   UNL     1      -1.705  -2.836  24.029  0.00  0.00    -0.083 Cl
ENDBRANCH  20  21
ENDBRANCH  19  20
ENDBRANCH  15  17
ENDBRANCH  14  15
TORSDOF 7
ENDMDL
MODEL 3
REMARK VINA RESULT:     -11.0      1.892      4.908
REMARK  Name = 
REMARK  7 active torsions:
REMARK  status: ('A' for Active; 'I' for Inactive)
REMARK    1  A    between atoms: O_2  and  C_3
REMARK    2  A    between atoms: C_3  and  C_4
REMARK    3  A    between atoms: N_6  and  C_7
REMARK    4  A    between atoms: C_14  and  C_15
REMARK    5  A    between atoms: C_15  and  C_17
REMARK    6  A    between atoms: N_19  and  C_20
REMARK    7  A    between atoms: C_20  and  C_21
REMARK                            x       y       z     vdW  Elec       q    Type
REMARK                         _______ _______ _______ _____ _____    ______ ____
ROOT
ATOM      7  C   UNL     1      -3.618   3.419  24.772  0.00  0.00    +0.095 C 
ATOM      8  C   UNL     1      -4.258   3.553  25.274  0.00  0.00    +0.022 C 
ATOM      9  C   UNL     1      -4.762   2.931  25.476  0.00  0.00    +0.002 C 
ATOM     10  C   UNL     1      -4.625   2.176  25.176  0.00  0.00    +0.002 C 
ATOM     11  C   UNL     1      -5.265   2.310  25.678  0.00  0.00    +0.000 C 
ATOM     12  C   UNL     1      -5.128   1.553  25.378  0.00  0.00    +0.000 C 
ATOM     13  C   UNL     1      -4.991   0.798  25.078  0.00  0.00    +0.003 C 
ATOM     14  C   UNL     1      -4.351   0.663  24.576  0.00  0.00    +0.039 C 
ATOM     28  C   UNL     1      -3.847   1.284  24.374  0.00  0.00    +0.152 C 
ATOM     29  O   UNL     1      -3.207   1.150  23.872  0.00  0.00    -0.223 OA
ATOM     30  C   UNL     1      -3.984   2.041  24.674  0.00  0.00    +0.032 C 
ATOM     31  C   UNL     1      -3.481   2.662  24.471  0.00  0.00    +0.022 C 
ATOM     32  C   UNL     1      -2.841   2.527  23.970  0.00  0.00    +0.002 C 
ENDROOT
BRANCH   7   6
ATOM      4  C   UNL     1      -2.680   4.426  25.156  0.00  0.00    +0.272 C 
ATOM      5  O   UNL     1      -2.751   4.192  25.944  0.00  0.00    -0.271 OA
ATOM      6  N   UNL     1      -3.114   4.040  24.569  0.00  0.00    -0.205 NA
BRANCH   4   3
ATOM      3  C   UNL     1      -2.177   5.047  24.953  0.00  0.00    +0.229 C 
BRANCH   3   2
ATOM      1  C   UNL     1      -0.810   5.462  24.893  0.00  0.00    +0.175 C 
ATOM      2  O   UNL     1      -1.430   5.103  25.302  0.00  0.00    -0.342 OA
ENDBRANCH   3   2
ENDBRANCH   4   3
ENDBRANCH   7   6
BRANCH  14  15
ATOM     15  C   UNL     1      -4.213  -0.093  24.276  0.00  0.00    +0.081 C 
ATOM     16  C   UNL     1      -4.407  -0.268  23.494  0.00  0.00    +0.010 C 
BRANCH  15  17
ATOM     17  C   UNL     1      -3.880  -0.674  24.759  0.00  0.00    +0.241 C 
ATOM     18  O   UNL     1      -4.323  -1.004  25.372  0.00  0.00    -0.273 OA
ATOM     19  N   UNL     1      -3.104  -0.924  24.628  0.00  0.00    -0.201 NA
BRANCH  19  20
ATOM     20  C   UNL     1      -2.773  -1.505  25.111  0.00  0.00    +0.142 C 
BRANCH  20  21
ATOM     21  C   UNL     1      -1.954  -1.604  25.132  0.00  0.00    +0.010 A 
ATOM     22  C   UNL     1      -1.478  -1.027  25.482  0.00  0.00    -0.002 A 
ATOM     23  C   UNL     1      -0.659  -1.126  25.503  0.00  0.00    -0.000 A 
ATOM     24  C   UNL     1      -0.317  -1.800  25.175  0.00  0.00    +0.001 A 
ATOM     25  C   UNL     1      -0.792  -2.376  24.825  0.00  0.00    +0.011 A 
ATOM     26  C   UNL     1      -1.611  -2.278  24.804  0.00  0.00    +0.055 A 
ATOM     27 CL   UNL     1      -2.086  -2.854  24.455  0.00  0.00    -0.083 Cl
ENDBRANCH  20  21
ENDBRANCH  19  20
ENDBRANCH  15  17
ENDBRANCH  14  15
TORSDOF 7
ENDMDL
MODEL 4
REMARK VINA RESULT:     -10.8      2.699      4.111
REMARK  Name = 
REMARK  7 active torsions:
REMARK  status: ('A' for Active; 'I' for Inactive)
REMARK    1  A    between atoms: O_2  and  C_3
REMARK    2  A    between atoms: C_3  and  C_4
REMARK    3  A    between atoms: N_6  and  C_7
REMARK    4  A    between atoms: C_14  and  C_15
REMARK    5  A    between atoms: C_15  and  C_17
REMARK    6  A    between atoms: N_19  and  C_20
REMARK    7  A    between atoms: C_20  and  C_21
REMARK                            x       y       z     vdW  Elec       q    Type
REMARK                         _______ _______ _______ _____ _____    ______ ____
ROOT
ATOM      7  C   UNL     1      -0.354   0.103  24.144  0.00  0.00    +0.095 C 
ATOM      8  C   UNL     1      -0.159  -0.397  24.771  0.00  0.00    +0.022 C 
ATOM      9  C   UNL     1      -0.757  -0.749  25.217  0.00  0.00    +0.002 C 
ATOM     10  C   UNL     1      -1.548  -0.602  25.038  0.00  0.00    +0.002 C 
ATOM     11  C   UNL     1      -1.354  -1.102  25.665  0.00  0.00    +0.000 C 
ATOM     12  C   UNL     1      -2.146  -0.954  25.485  0.00  0.00    +0.000 C 
ATOM     13  C   UNL     1      -2.937  -0.806  25.306  0.00  0.00    +0.003 C 
ATOM     14  C   UNL     1      -3.131  -0.306  24.679  0.00  0.00    +0.039 C 
ATOM     28  C   UNL     1      -2.535   0.047  24.232  0.00  0.00    +0.152 C 
ATOM     29  O   UNL     1      -2.729   0.547  23.606  0.00  0.00    -0.223 OA
ATOM     30  C   UNL     1      -1.742  -0.101  24.412  0.00  0.00    +0.032 C 
ATOM     31  C   UNL     1      -1.146   0.251  23.964  0.00  0.00    +0.022 C 
ATOM     32  C   UNL     1      -1.340   0.751  23.339  0.00  0.00    +0.002 C 
ENDROOT
BRANCH   7   6
ATOM      4  C   UNL     1       0.830  -0.011  23.352  0.00  0.00    +0.272 C 
ATOM      5  O   UNL     1       0.820  -0.829  23.455  0.00  0.00    -0.271 OA
ATOM      6  N   UNL     1       0.243   0.456  23.697  0.00  0.00    -0.205 NA
BRANCH   4   3
ATOM      3  C   UNL     1       1.427   0.342  22.905  0.00  0.00    +0.229 C 
BRANCH   3   2
ATOM      1  C   UNL     1       2.743   0.286  22.352  0.00  0.00    +0.175 C 
ATOM      2  O   UNL     1       2.096  -0.094  22.694  0.00  0.00    -0.342 OA
ENDBRANCH   3   2
ENDBRANCH   4   3
ENDBRANCH   7   6
BRANCH  14  15
ATOM     15  C   UNL     1      -3.922  -0.158  24.499  0.00  0.00    +0.081 C 
ATOM     16  C   UNL     1      -4.246  -0.443  23.797  0.00  0.00    +0.010 C 
BRANCH  15  17
ATOM     17  C   UNL     1      -4.390   0.277  25.023  0.00  0.00    +0.241 C 
ATOM     18  O   UNL     1      -4.708  -0.086  25.691  0.00  0.00    -0.273 OA
ATOM     19  N   UNL     1      -4.538   1.076  24.877  0.00  0.00    -0.201 NA
BRANCH  19  20
ATOM     20  C   UNL     1      -5.005   1.511  25.401  0.00  0.00    +0.142 C 
BRANCH  20  21
ATOM     21  C   UNL     1      -5.002   2.335  25.368  0.00  0.00    +0.010 A 
ATOM     22  C   UNL     1      -4.408   2.729  24.951  0.00  0.00    -0.002 A 
ATOM     23  C   UNL     1      -4.405   3.553  24.918  0.00  0.00    -0.000 A 
ATOM     24  C   UNL     1      -4.995   3.983  25.300  0.00  0.00    +0.001 A 
ATOM     25  C   UNL     1      -5.589   3.590  25.716  0.00  0.00    +0.011 A 
ATOM     26  C   UNL     1      -5.592   2.765  25.750  0.00  0.00    +0.055 A 
ATOM     27 CL   UNL     1      -6.186   2.372  26.166  0.00  0.00    -0.083 Cl
ENDBRANCH  20  21
ENDBRANCH  19  20
ENDBRANCH  15  17
ENDBRANCH  14  15
TORSDOF 7
ENDMDL
MODEL 5
REMARK VINA RESULT:     -10.7      2.132      3.566
REMARK  Name = 
REMARK  7 active torsions:
REMARK  status: ('A' for Active; 'I' for Inactive)
REMARK    1  A    between atoms: O_2  and  C_3
REMARK    2  A    between atoms: C_3  and  C_4
REMARK    3  A    between atoms: N_6  and  C_7
REMARK    4  A    between atoms: C_14  and  C_15
REMARK    5  A    between atoms: C_15  and  C_17
REMARK    6  A    between atoms: N_19  and  C_20
REMARK    7  A    between atoms: C_20  and  C_21
REMARK                            x       y       z     vdW  Elec       q    Type
REMARK                         _______ _______ _______ _____ _____    ______ ____
ROOT
ATOM      7  C   UNL     1      -0.865  -0.830  24.693  0.00  0.00    +0.095 C 
ATOM      8  C   UNL     1      -0.446  -0.787  23.983  0.00  0.00    +0.022 C 
ATOM      9  C   UNL     1      -0.090  -0.077  23.758  0.00  0.00    +0.002 C 
ATOM     10  C   UNL     1      -0.154   0.588  24.240  0.00  0.00    +0.002 C 
ATOM     11  C   UNL     1       0.265   0.632  23.531  0.00  0.00    +0.000 C 
ATOM     12  C   UNL     1       0.202   1.298  24.015  0.00  0.00    +0.000 C 
ATOM     13  C   UNL     1       0.138   1.963  24.497  0.00  0.00    +0.003 C 
ATOM     14  C   UNL     1      -0.281   1.920  25.206  0.00  0.00    +0.039 C 
ATOM     28  C   UNL     1      -0.637   1.211  25.433  0.00  0.00    +0.152 C 
ATOM     29  O   UNL     1      -1.056   1.168  26.141  0.00  0.00    -0.223 OA
ATOM     30  C   UNL     1      -0.573   0.545  24.950  0.00  0.00    +0.032 C 
ATOM     31  C   UNL     1      -0.929  -0.164  25.176  0.00  0.00    +0.022 C 
ATOM     32  C   UNL     1      -1.348  -0.207  25.885  0.00  0.00    +0.002 C 
ENDROOT
BRANCH   7   6
ATOM      4  C   UNL     1      -1.819  -1.867  24.454  0.00  0.00    +0.272 C 
ATOM      5  O   UNL     1      -2.060  -1.486  23.763  0.00  0.00    -0.271 OA
ATOM      6  N   UNL     1      -1.221  -1.539  24.919  0.00  0.00    -0.205 NA
BRANCH   4   3
ATOM      3  C   UNL     1      -2.175  -2.576  24.681  0.00  0.00    +0.229 C 
BRANCH   3   2
ATOM      1  C   UNL     1      -3.426  -3.260  24.768  0.00  0.00    +0.175 C 
ATOM      2  O   UNL     1      -2.888  -2.808  24.336  0.00  0.00    -0.342 OA
ENDBRANCH   3   2
ENDBRANCH   4   3
ENDBRANCH   7   6
BRANCH  14  15
ATOM     15  C   UNL     1      -0.345   2.585  25.690  0.00  0.00    +0.081 C 
ATOM     16  C   UNL     1       0.056   2.613  26.409  0.00  0.00    +0.010 C 
BRANCH  15  17
ATOM     17  C   UNL     1      -0.811   3.224  25.452  0.00  0.00    +0.241 C 
ATOM     18  O   UNL     1      -0.461   3.878  25.090  0.00  0.00    -0.273 OA
ATOM     19  N   UNL     1      -1.627   3.208  25.576  0.00  0.00    -0.201 NA
BRANCH  19  20
ATOM     20  C   UNL     1      -2.092   3.847  25.338  0.00  0.00    +0.142 C 
BRANCH  20  21
ATOM     21  C   UNL     1      -2.902   3.744  25.218  0.00  0.00    +0.010 A 
ATOM     22  C   UNL     1      -3.175   3.413  24.512  0.00  0.00    -0.002 A 
ATOM     23  C   UNL     1      -3.984   3.310  24.392  0.00  0.00    -0.000 A 
ATOM     24  C   UNL     1      -4.520   3.537  24.976  0.00  0.00    +0.001 A 
ATOM     25  C   UNL     1      -4.248   3.867  25.681  0.00  0.00    +0.011 A 
ATOM     26  C   UNL     1      -3.438   3.970  25.802  0.00  0.00    +0.055 A 
ATOM     27 CL   UNL     1      -3.165   4.301  26.507  0.00  0.00    -0.083 Cl
ENDBRANCH  20  21
ENDBRANCH  19  20
ENDBRANCH  15  17
ENDBRANCH  14  15
TORSDOF 7
ENDMDL
MODEL 6
REMARK VINA RESULT:     -10.6      2.530      4.306
REMARK  Name = 
REMARK  7 active torsions:
REMARK  status: ('A' for Active; 'I' for Inactive)
REMARK    1  A    between atoms: O_2  and  C_3
REMARK    2  A    between atoms: C_3  and  C_4
REMARK    3  A    between atoms: N_6  and  C_7
REMARK    4  A    between atoms: C_14  and  C_15
REMARK    5  A    between atoms: C_15  and  C_17
REMARK    6  A    between atoms: N_19  and  C_20
REMARK    7  A    between atoms: C_20  and  C_21
REMARK                            x       y       z     vdW  Elec       q    Type
REMARK                         _______ _______ _______ _____ _____    ______ ____
ROOT
ATOM      7  C   UNL     1      -0.065   1.399  24.291  0.00  0.00    +0.095 C 
ATOM      8  C   UNL     1       0.374   1.452  24.988  0.00  0.00    +0.022 C 
ATOM      9  C   UNL     1       0.157   1.995  25.570  0.00  0.00    +0.002 C 
ATOM     10  C   UNL     1      -0.496   2.485  25.456  0.00  0.00    +0.002 C 
ATOM     11  C   UNL     1      -0.058   2.538  26.153  0.00  0.00    +0.000 C 
ATOM     12  C   UNL     1      -0.712   3.028  26.039  0.00  0.00    +0.000 C 
ATOM     13  C   UNL     1      -1.366   3.517  25.925  0.00  0.00    +0.003 C 
ATOM     14  C   UNL     1      -1.804   3.464  25.228  0.00  0.00    +0.039 C 
ATOM     28  C   UNL     1      -1.589   2.922  24.645  0.00  0.00    +0.152 C 
ATOM     29  O   UNL     1      -2.027   2.869  23.949  0.00  0.00    -0.223 OA
ATOM     30  C   UNL     1      -0.935   2.432  24.760  0.00  0.00    +0.032 C 
ATOM     31  C   UNL     1      -0.720   1.889  24.177  0.00  0.00    +0.022 C 
ATOM     32  C   UNL     1      -1.158   1.836  23.481  0.00  0.00    +0.002 C 
ENDROOT
BRANCH   7   6
ATOM      4  C   UNL     1       0.940   0.790  23.478  0.00  0.00    +0.272 C 
ATOM      5  O   UNL     1       1.514   1.265  23.832  0.00  0.00    -0.271 OA
ATOM      6  N   UNL     1       0.150   0.857  23.708  0.00  0.00    -0.205 NA
BRANCH   4   3
ATOM      3  C   UNL     1       1.156   0.248  22.895  0.00  0.00    +0.229 C 
BRANCH   3   2
ATOM      1  C   UNL     1       2.137  -0.216  21.966  0.00  0.00    +0.175 C 
ATOM      2  O   UNL     1       1.944   0.189  22.658  0.00  0.00    -0.342 OA
ENDBRANCH   3   2
ENDBRANCH   4   3
ENDBRANCH   7   6
BRANCH  14  15
ATOM     15  C   UNL     1      -2.458   3.953  25.114  0.00  0.00    +0.081 C 
ATOM     16  C   UNL     1      -2.432   4.552  24.549  0.00  0.00    +0.010 C 
BRANCH  15  17
ATOM     17  C   UNL     1      -3.140   3.842  25.566  0.00  0.00    +0.241 C 
ATOM     18  O   UNL     1      -3.207   4.199  26.307  0.00  0.00    -0.273 OA
ATOM     19  N   UNL     1      -3.756   3.375  25.276  0.00  0.00    -0.201 NA
BRANCH  19  20
ATOM     20  C   UNL     1      -4.437   3.264  25.728  0.00  0.00    +0.142 C 
BRANCH  20  21
ATOM     21  C   UNL     1      -4.984   2.686  25.513  0.00  0.00    +0.010 A 
ATOM     22  C   UNL     1      -4.726   1.928  25.312  0.00  0.00    -0.002 A 
ATOM     23  C   UNL     1      -5.273   1.350  25.096  0.00  0.00    -0.000 A 
ATOM     24  C   UNL     1      -6.078   1.529  25.081  0.00  0.00    +0.001 A 
ATOM     25  C   UNL     1      -6.336   2.286  25.282  0.00  0.00    +0.011 A 
ATOM     26  C   UNL     1      -5.789   2.865  25.498  0.00  0.00    +0.055 A 
ATOM     27 CL   UNL     1      -6.048   3.622  25.699  0.00  0.00    -0.083 Cl
ENDBRANCH  20  21
ENDBRANCH  19  20
ENDBRANCH  15  17
ENDBRANCH  14  15
TORSDOF 7
ENDMDL
MODEL 7
REMARK VINA RESULT:     -10.5      2.298      4.694
REMARK  Name = 
REMARK  7 active torsions:
REMARK  status: ('A' for Active; 'I' for Inactive)
REMARK    1  A    between atoms: O_2  and  C_3
REMARK    2  A    between atoms: C_3  and  C_4
REMARK    3  A    between atoms: N_6  and  C_7
REMARK    4  A    between atoms: C_14  and  C_15
REMARK    5  A    between atoms: C_15  and  C_17
REMARK    6  A    between atoms: N_19  and  C_20
REMARK    7  A    between atoms: C_20  and  C_21
REMARK                            x       y       z     vdW  Elec       q    Type
REMARK                         _______ _______ _______ _____ _____    ______ ____
ROOT
ATOM      7  C   UNL     1      -0.748   2.744  24.314  0.00  0.00    +0.095 C 
ATOM      8  C   UNL     1      -0.712   3.243  24.970  0.00  0.00    +0.022 C 
ATOM      9  C   UNL     1      -1.393   3.392  25.412  0.00  0.00    +0.002 C 
ATOM     10  C   UNL     1      -2.108   3.042  25.199  0.00  0.00    +0.002 C 
ATOM     11  C   UNL     1      -2.073   3.541  25.855  0.00  0.00    +0.000 C 
ATOM     12  C   UNL     1      -2.789   3.190  25.641  0.00  0.00    +0.000 C 
ATOM     13  C   UNL     1      -3.505   2.841  25.428  0.00  0.00    +0.003 C 
ATOM     14  C   UNL     1      -3.540   2.342  24.771  0.00  0.00    +0.039 C 
ATOM     28  C   UNL     1      -2.860   2.193  24.329  0.00  0.00    +0.152 C 
ATOM     29  O   UNL     1      -2.896   1.694  23.673  0.00  0.00    -0.223 OA
ATOM     30  C   UNL     1      -2.144   2.543  24.543  0.00  0.00    +0.032 C 
ATOM     31  C   UNL     1      -1.464   2.394  24.100  0.00  0.00    +0.022 C 
ATOM     32  C   UNL     1      -1.500   1.896  23.445  0.00  0.00    +0.002 C 
ENDROOT
BRANCH   7   6
ATOM      4  C   UNL     1       0.571   2.203  24.217  0.00  0.00    +0.272 C 
ATOM      5  O   UNL     1       0.530   1.961  25.004  0.00  0.00    -0.271 OA
ATOM      6  N   UNL     1      -0.068   2.595  23.871  0.00  0.00    -0.205 NA
BRANCH   4   3
ATOM      3  C   UNL     1       1.251   2.054  23.774  0.00  0.00    +0.229 C 
BRANCH   3   2
ATOM      1  C   UNL     1       2.162   1.082  23.256  0.00  0.00    +0.175 C 
ATOM      2  O   UNL     1       1.637   1.327  23.844  0.00  0.00    -0.342 OA
ENDBRANCH   3   2
ENDBRANCH   4   3
ENDBRANCH   7   6
BRANCH  14  15
ATOM     15  C   UNL     1      -4.255   1.991  24.557  0.00  0.00    +0.081 C 
ATOM     16  C   UNL     1      -4.714   2.322  23.958  0.00  0.00    +0.010 C 
BRANCH  15  17
ATOM     17  C   UNL     1      -4.512   1.308  24.944  0.00  0.00    +0.241 C 
ATOM     18  O   UNL     1      -5.065   1.363  25.554  0.00  0.00    -0.273 OA
ATOM     19  N   UNL     1      -4.215   0.571  24.720  0.00  0.00    -0.201 NA
BRANCH  19  20
ATOM     20  C   UNL     1      -4.471  -0.111  25.107  0.00  0.00    +0.142 C 
BRANCH  20  21
ATOM     21  C   UNL     1      -4.211  -0.851  24.852  0.00  0.00    +0.010 A 
ATOM     22  C   UNL     1      -4.428  -1.128  24.104  0.00  0.00    -0.002 A 
ATOM     23  C   UNL     1      -4.168  -1.868  23.849  0.00  0.00    -0.000 A 
ATOM     24  C   UNL     1      -3.693  -2.330  24.339  0.00  0.00    +0.001 A 
ATOM     25  C   UNL     1      -3.477  -2.054  25.085  0.00  0.00    +0.011 A 
ATOM     26  C   UNL     1      -3.736  -1.313  25.341  0.00  0.00    +0.055 A 
ATOM     27 CL   UNL     1      -3.520  -1.036  26.087  0.00  0.00    -0.083 Cl
ENDBRANCH  20  21
ENDBRANCH  19  20
ENDBRANCH  15  17
ENDBRANCH  14  15
TORSDOF 7
ENDMDL
MODEL 8
REMARK VINA RESULT:      -9.9      2.724      6.176
REMARK  Name = 
REMARK  7 active torsions:
REMARK  status: ('A' for Active; 'I' for Inactive)
REMARK    1  A    between atoms: O_2  and  C_3
REMARK    2  A    between atoms: C_3  and  C_4
REMARK    3  A    between atoms: N_6  and  C_7
REMARK    4  A    between atoms: C_14  and  C_15
REMARK    5  A    between atoms: C_15  and  C_17
REMARK    6  A    between atoms: N_19  and  C_20
REMARK    7  A    between atoms: C_20  and  C_21
REMARK                            x       y       z     vdW  Elec       q    Type
REMARK                         _______ _______ _______ _____ _____    ______ ____
ROOT
ATOM      7  C   UNL     1      -0.267   2.246  24.824  0.00  0.00    +0.095 C 
ATOM      8  C   UNL     1       0.140   2.195  24.109  0.00  0.00    +0.022 C 
ATOM      9  C   UNL     1       0.282   1.457  23.767  0.00  0.00    +0.002 C 
ATOM     10  C   UNL     1       0.016   0.772  24.140  0.00  0.00    +0.002 C 
ATOM     11  C   UNL     1       0.424   0.720  23.425  0.00  0.00    +0.000 C 
ATOM     12  C   UNL     1       0.158   0.034  23.798  0.00  0.00    +0.000 C 
ATOM     13  C   UNL     1      -0.108  -0.652  24.171  0.00  0.00    +0.003 C 
ATOM     14  C   UNL     1      -0.515  -0.600  24.887  0.00  0.00    +0.039 C 
ATOM     28  C   UNL     1      -0.657   0.136  25.229  0.00  0.00    +0.152 C 
ATOM     29  O   UNL     1      -1.064   0.187  25.944  0.00  0.00    -0.223 OA
ATOM     30  C   UNL     1      -0.391   0.823  24.856  0.00  0.00    +0.032 C 
ATOM     31  C   UNL     1      -0.533   1.560  25.198  0.00  0.00    +0.022 C 
ATOM     32  C   UNL     1      -0.940   1.611  25.913  0.00  0.00    +0.002 C 
ENDROOT
BRANCH   7   6
ATOM      4  C   UNL     1      -0.680   3.609  24.701  0.00  0.00    +0.272 C 
ATOM      5  O   UNL     1      -0.808   3.497  23.894  0.00  0.00    -0.271 OA
ATOM      6  N   UNL     1      -0.409   2.983  25.167  0.00  0.00    -0.205 NA
BRANCH   4   3
ATOM      3  C   UNL     1      -0.822   4.345  25.044  0.00  0.00    +0.229 C 
BRANCH   3   2
ATOM      1  C   UNL     1      -1.706   5.457  25.203  0.00  0.00    +0.175 C 
ATOM      2  O   UNL     1      -1.426   4.826  24.751  0.00  0.00    -0.342 OA
ENDBRANCH   3   2
ENDBRANCH   4   3
ENDBRANCH   7   6
BRANCH  14  15
ATOM     15  C   UNL     1      -0.781  -1.286  25.261  0.00  0.00    +0.081 C 
ATOM     16  C   UNL     1      -0.560  -1.444  26.039  0.00  0.00    +0.010 C 
BRANCH  15  17
ATOM     17  C   UNL     1      -1.269  -1.814  24.855  0.00  0.00    +0.241 C 
ATOM     18  O   UNL     1      -0.939  -2.453  24.451  0.00  0.00    -0.273 OA
ATOM     19  N   UNL     1      -2.087  -1.702  24.853  0.00  0.00    -0.201 NA
BRANCH  19  20
ATOM     20  C   UNL     1      -2.574  -2.230  24.447  0.00  0.00    +0.142 C 
BRANCH  20  21
ATOM     21  C   UNL     1      -3.345  -2.012  24.253  0.00  0.00    +0.010 A 
ATOM     22  C   UNL     1      -3.560  -1.215  24.253  0.00  0.00    -0.002 A 
ATOM     23  C   UNL     1      -4.332  -0.997  24.059  0.00  0.00    -0.000 A 
ATOM     24  C   UNL     1      -4.887  -1.574  23.865  0.00  0.00    +0.001 A 
ATOM     25  C   UNL     1      -4.673  -2.371  23.865  0.00  0.00    +0.011 A 
ATOM     26  C   UNL     1      -3.901  -2.589  24.060  0.00  0.00    +0.055 A 
ATOM     27 CL   UNL     1      -3.686  -3.386  24.060  0.00  0.00    -0.083 Cl
ENDBRANCH  20  21
ENDBRANCH  19  20
ENDBRANCH  15  17
ENDBRANCH  14  15
TORSDOF 7
ENDMDL
MODEL 9
REMARK VINA RESULT:      -9.9      2.447      4.566
REMARK  Name = 
REMARK  7 active torsions:
REMARK  status: ('A' for Active; 'I' for Inactive)
REMARK    1  A    between atoms: O_2  and  C_3
REMARK    2  A    between atoms: C_3  and  C_4
REMARK    3  A    between atoms: N_6  and  C_7
REMARK    4  A    between atoms: C_14  and  C_15
REMARK    5  A    between atoms: C_15  and  C_17
REMARK    6  A    between atoms: N_19  and  C_20
REMARK    7  A    between atoms: C_20  and  C_21
REMARK                            x       y       z     vdW  Elec       q    Type
REMARK                         _______ _______ _______ _____ _____    ______ ____
ROOT
ATOM      7  C   UNL     1      -3.975   3.395  25.114  0.00  0.00    +0.095 C 
ATOM      8  C   UNL     1      -3.826   3.851  25.786  0.00  0.00    +0.022 C 
ATOM      9  C   UNL     1      -3.048   3.988  26.026  0.00  0.00    +0.002 C 
ATOM     10  C   UNL     1      -2.421   3.671  25.596  0.00  0.00    +0.002 C 
ATOM     11  C   UNL     1      -2.272   4.127  26.267  0.00  0.00    +0.000 C 
ATOM     12  C   UNL     1      -1.643   3.809  25.836  0.00  0.00    +0.000 C 
ATOM     13  C   UNL     1      -1.016   3.492  25.405  0.00  0.00    +0.003 C 
ATOM     14  C   UNL     1      -1.165   3.037  24.734  0.00  0.00    +0.039 C 
ATOM     28  C   UNL     1      -1.941   2.898  24.493  0.00  0.00    +0.152 C 
ATOM     29  O   UNL     1      -2.090   2.443  23.822  0.00  0.00    -0.223 OA
ATOM     30  C   UNL     1      -2.570   3.216  24.924  0.00  0.00    +0.032 C 
ATOM     31  C   UNL     1      -3.346   3.077  24.683  0.00  0.00    +0.022 C 
ATOM     32  C   UNL     1      -3.495   2.622  24.013  0.00  0.00    +0.002 C 
ENDROOT
BRANCH   7   6
ATOM      4  C   UNL     1      -5.294   2.927  25.401  0.00  0.00    +0.272 C 
ATOM      5  O   UNL     1      -5.060   2.736  26.169  0.00  0.00    -0.271 OA
ATOM      6  N   UNL     1      -4.751   3.256  24.873  0.00  0.00    -0.205 NA
BRANCH   4   3
ATOM      3  C   UNL     1      -6.071   2.788  25.160  0.00  0.00    +0.229 C 
BRANCH   3   2
ATOM      1  C   UNL     1      -6.909   1.710  24.741  0.00  0.00    +0.175 C 
ATOM      2  O   UNL     1      -6.425   2.057  25.310  0.00  0.00    -0.342 OA
ENDBRANCH   3   2
ENDBRANCH   4   3
ENDBRANCH   7   6
BRANCH  14  15
ATOM     15  C   UNL     1      -0.538   2.719  24.303  0.00  0.00    +0.081 C 
ATOM     16  C   UNL     1      -0.315   3.060  23.586  0.00  0.00    +0.010 C 
BRANCH  15  17
ATOM     17  C   UNL     1      -0.133   2.059  24.590  0.00  0.00    +0.241 C 
ATOM     18  O   UNL     1       0.562   2.158  25.024  0.00  0.00    -0.273 OA
ATOM     19  N   UNL     1      -0.423   1.300  24.442  0.00  0.00    -0.201 NA
BRANCH  19  20
ATOM     20  C   UNL     1      -0.018   0.642  24.729  0.00  0.00    +0.142 C 
BRANCH  20  21
ATOM     21  C   UNL     1      -0.412  -0.078  24.815  0.00  0.00    +0.010 A 
ATOM     22  C   UNL     1      -0.947  -0.184  25.435  0.00  0.00    -0.002 A 
ATOM     23  C   UNL     1      -1.341  -0.903  25.521  0.00  0.00    -0.000 A 
ATOM     24  C   UNL     1      -1.201  -1.516  24.988  0.00  0.00    +0.001 A 
ATOM     25  C   UNL     1      -0.667  -1.411  24.369  0.00  0.00    +0.011 A 
ATOM     26  C   UNL     1      -0.272  -0.691  24.282  0.00  0.00    +0.055 A 
ATOM     27 CL   UNL     1       0.262  -0.586  23.663  0.00  0.00    -0.083 Cl
ENDBRANCH  20  21
ENDBRANCH  19  20
ENDBRANCH  15  17
ENDBRANCH  14  15
TORSDOF 7
ENDMDL
MODEL 10
REMARK VINA RESULT:      -9.8      1.980      2.861
REMARK  Name = 
REMARK  7 active torsions:
REMARK  status: ('A' for Active; 'I' for Inactive)
REMARK    1  A    between atoms: O_2  and  C_3
REMARK    2  A    between atoms: C_3  and  C_4
REMARK    3  A    between atoms: N_6  and  C_7
REMARK    4  A    between atoms: C_14  and  C_15
REMARK    5  A    between atoms: C_15  and  C_17
REMARK    6  A    between atoms: N_19  and  C_20
REMARK    7  A    between atoms: C_20  and  C_21
REMARK                            x       y       z     vdW  Elec       q    Type
REMARK                         _______ _______ _______ _____ _____    ______ ____
ROOT
ATOM      7  C   UNL     1      -2.964  -0.867  24.752  0.00  0.00    +0.095 C 
ATOM      8  C   UNL     1      -2.729  -1.221  25.460  0.00  0.00    +0.022 C 
ATOM      9  C   UNL     1      -2.050  -0.956  25.847  0.00  0.00    +0.002 C 
ATOM     10  C   UNL     1      -1.607  -0.339  25.527  0.00  0.00    +0.002 C 
ATOM     11  C   UNL     1      -1.372  -0.692  26.235  0.00  0.00    +0.000 C 
ATOM     12  C   UNL     1      -0.928  -0.074  25.914  0.00  0.00    +0.000 C 
ATOM     13  C   UNL     1      -0.484   0.543  25.595  0.00  0.00    +0.003 C 
ATOM     14  C   UNL     1      -0.719   0.896  24.887  0.00  0.00    +0.039 C 
ATOM     28  C   UNL     1      -1.397   0.632  24.499  0.00  0.00    +0.152 C 
ATOM     29  O   UNL     1      -1.632   0.985  23.792  0.00  0.00    -0.223 OA
ATOM     30  C   UNL     1      -1.842   0.014  24.820  0.00  0.00    +0.032 C 
ATOM     31  C   UNL     1      -2.520  -0.249  24.432  0.00  0.00    +0.022 C 
ATOM     32  C   UNL     1      -2.755   0.103  23.725  0.00  0.00    +0.002 C 
ENDROOT
BRANCH   7   6
ATOM      4  C   UNL     1      -3.788  -1.941  24.293  0.00  0.00    +0.272 C 
ATOM      5  O   UNL     1      -3.256  -2.485  24.610  0.00  0.00    -0.271 OA
ATOM      6  N   UNL     1      -3.643  -1.131  24.364  0.00  0.00    -0.205 NA
BRANCH   4   3
ATOM      3  C   UNL     1      -4.467  -2.204  23.905  0.00  0.00    +0.229 C 
BRANCH   3   2
ATOM      1  C   UNL     1      -5.169  -3.232  23.203  0.00  0.00    +0.175 C 
ATOM      2  O   UNL     1      -4.482  -2.957  23.567  0.00  0.00    -0.342 OA
ENDBRANCH   3   2
ENDBRANCH   4   3
ENDBRANCH   7   6
BRANCH  14  15
ATOM     15  C   UNL     1      -0.276   1.513  24.566  0.00  0.00    +0.081 C 
ATOM     16  C   UNL     1       0.074   1.428  23.825  0.00  0.00    +0.010 C 
BRANCH  15  17
ATOM     17  C   UNL     1      -0.182   2.216  24.989  0.00  0.00    +0.241 C 
ATOM     18  O   UNL     1       0.464   2.312  25.493  0.00  0.00    -0.273 OA
ATOM     19  N   UNL     1      -0.735   2.824  24.907  0.00  0.00    -0.201 NA
BRANCH  19  20
ATOM     20  C   UNL     1      -0.642   3.526  25.329  0.00  0.00    +0.142 C 
BRANCH  20  21
ATOM     21  C   UNL     1      -1.269   4.058  25.387  0.00  0.00    +0.010 A 
ATOM     22  C   UNL     1      -1.978   3.823  25.740  0.00  0.00    -0.002 A 
ATOM     23  C   UNL     1      -2.605   4.355  25.798  0.00  0.00    -0.000 A 
ATOM     24  C   UNL     1      -2.525   5.121  25.504  0.00  0.00    +0.001 A 
ATOM     25  C   UNL     1      -1.818   5.356  25.151  0.00  0.00    +0.011 A 
ATOM     26  C   UNL     1      -1.189   4.824  25.093  0.00  0.00    +0.055 A 
ATOM     27 CL   UNL     1      -0.482   5.059  24.740  0.00  0.00    -0.083 Cl
ENDBRANCH  20  21
ENDBRANCH  19  20
ENDBRANCH  15  17
ENDBRANCH  14  15
TORSDOF 7
ENDMDL
