REMARK  Name = 
REMARK  7 active torsions:
REMARK  status: ('A' for Active; 'I' for Inactive)
REMARK    1  A    between atoms: O_2  and  C_3
REMARK    2  A    between atoms: C_8  and  C_9
REMARK    3  A    between atoms: C_9  and  C_10
REMARK    4  A    between atoms: C_12  and  C_13
REMARK    5  A    between atoms: C_16  and  C_17
REMARK    6  A    between atoms: C_17  and  N_18
REMARK    7  A    between atoms: N_21  and  C_22
REMARK                            x       y       z     vdW  Elec       q    Type
REMARK                         _______ _______ _______ _____ _____    ______ ____
ROOT
ATOM     10  C   UNL     1      -1.866   2.237   0.000  0.00  0.00    +0.026 C 
ATOM     11  C   UNL     1      -2.691   2.237   0.000  0.00  0.00    +0.005 C 
ATOM     12  C   UNL     1      -3.103   2.952   0.000  0.00  0.00    +0.006 C 
ATOM     16  C   UNL     1      -2.691   3.666   0.000  0.00  0.00    +0.043 C 
ATOM     29  C   UNL     1      -1.866   3.666   0.000  0.00  0.00    -0.033 C 
ATOM     30  C   UNL     1      -1.453   2.952   0.000  0.00  0.00    -0.048 C 
ATOM     31  C   UNL     1      -0.628   2.952   0.000  0.00  0.00    +0.026 C 
ENDROOT
BRANCH  12  13
ATOM     13  C   UNL     1      -3.928   2.952   0.000  0.00  0.00    +0.000 C 
ATOM     14  C   UNL     1      -4.341   3.666   0.000  0.00  0.00    +0.000 C 
ATOM     15  C   UNL     1      -4.341   2.237   0.000  0.00  0.00    +0.000 C 
ENDBRANCH  12  13
BRANCH  10   9
ATOM      9  C   UNL     1      -1.453   1.523   0.000  0.00  0.00    +0.070 C 
BRANCH   9   8
ATOM      3  C   UNL     1       2.070   1.110   0.000  0.00  0.00    +0.140 A 
ATOM      4  C   UNL     1       1.356   0.698   0.000  0.00  0.00    +0.058 A 
ATOM      5  C   UNL     1       0.641   1.110   0.000  0.00  0.00    +0.103 A 
ATOM      6  C   UNL     1       0.641   1.935   0.000  0.00  0.00    +0.100 A 
ATOM      7  N   UNL     1      -0.143   2.190   0.000  0.00  0.00    -0.229 NA
ATOM      8  C   UNL     1      -0.628   1.523   0.000  0.00  0.00    +0.139 A 
ATOM     32  N   UNL     1      -0.143   0.856   0.000  0.00  0.00    -0.229 NA
ATOM     33  C   UNL     1       1.356   2.348   0.000  0.00  0.00    +0.024 A 
ATOM     34  C   UNL     1       2.070   1.935   0.000  0.00  0.00    +0.039 A 
BRANCH   3   2
ATOM      1  C   UNL     1       3.499   1.110   0.000  0.00  0.00    +0.252 C 
ATOM      2  O   UNL     1       2.784   0.698   0.000  0.00  0.00    -0.471 OA
ENDBRANCH   3   2
ENDBRANCH   9   8
ENDBRANCH  10   9
BRANCH  16  17
ATOM     17  C   UNL     1      -3.103   4.381   0.000  0.00  0.00    +0.121 C 
BRANCH  17  18
ATOM     18  N   UNL     1      -3.928   4.381   0.000  0.00  0.00    -0.187 NA
ATOM     19  C   UNL     1      -4.341   5.095   0.000  0.00  0.00    +0.344 C 
ATOM     20  O   UNL     1      -3.928   5.810   0.000  0.00  0.00    -0.249 OA
ATOM     21  N   UNL     1      -5.166   5.095   0.000  0.00  0.00    -0.161 NA
BRANCH  21  22
ATOM     22  C   UNL     1      -5.578   5.810   0.000  0.00  0.00    +0.075 A 
ATOM     23  C   UNL     1      -6.403   5.810   0.000  0.00  0.00    +0.019 A 
ATOM     24  C   UNL     1      -6.816   6.524   0.000  0.00  0.00    +0.031 A 
ATOM     25  C   UNL     1      -6.403   7.239   0.000  0.00  0.00    +0.140 A 
ATOM     26  F   UNL     1      -6.816   7.953   0.000  0.00  0.00    -0.204 F 
ATOM     27  C   UNL     1      -5.578   7.239   0.000  0.00  0.00    +0.031 A 
ATOM     28  C   UNL     1      -5.166   6.524   0.000  0.00  0.00    +0.019 A 
ENDBRANCH  21  22
ENDBRANCH  17  18
ENDBRANCH  16  17
TORSDOF 7
