MODEL 1
REMARK VINA RESULT:      -9.8      0.000      0.000
REMARK  Name = 
REMARK  9 active torsions:
REMARK  status: ('A' for Active; 'I' for Inactive)
REMARK    1  A    between atoms: C_2  and  C_4
REMARK    2  A    between atoms: C_6  and  C_7
REMARK    3  A    between atoms: C_7  and  C_8
REMARK    4  A    between atoms: N_10  and  C_12
REMARK    5  A    between atoms: C_12  and  C_13
REMARK    6  A    between atoms: C_22  and  C_23
REMARK    7  A    between atoms: C_23  and  N_24
REMARK    8  A    between atoms: N_24  and  S_25
REMARK    9  A    between atoms: S_25  and  C_28
REMARK                            x       y       z     vdW  Elec       q    Type
REMARK                         _______ _______ _______ _____ _____    ______ ____
ROOT
ATOM      4  C   UNL     1      -3.553   1.774  24.176  0.00  0.00    +0.006 C 
ATOM      5  C   UNL     1      -3.580   2.561  24.423  0.00  0.00    +0.005 C 
ATOM      6  C   UNL     1      -4.173   2.810  24.938  0.00  0.00    +0.027 C 
ATOM     19  C   UNL     1      -4.740   2.274  25.206  0.00  0.00    -0.048 C 
ATOM     20  C   UNL     1      -5.334   2.525  25.721  0.00  0.00    +0.026 C 
ATOM     21  C   UNL     1      -4.714   1.488  24.958  0.00  0.00    -0.033 C 
ATOM     22  C   UNL     1      -4.120   1.238  24.443  0.00  0.00    +0.041 C 
ENDROOT
BRANCH   4   2
ATOM      1  C   UNL     1      -3.088   1.539  22.845  0.00  0.00    +0.000 C 
ATOM      2  C   UNL     1      -2.959   1.524  23.660  0.00  0.00    +0.000 C 
ATOM      3  C   UNL     1      -2.238   1.259  23.959  0.00  0.00    +0.000 C 
ENDBRANCH   4   2
BRANCH   6   7
ATOM      7  C   UNL     1      -4.200   3.597  25.186  0.00  0.00    +0.089 C 
BRANCH   7   8
ATOM      8  C   UNL     1      -3.570   3.917  25.613  0.00  0.00    +0.226 C 
ATOM      9  O   UNL     1      -3.374   3.609  26.352  0.00  0.00    -0.275 OA
ATOM     10  N   UNL     1      -3.136   4.545  25.299  0.00  0.00    -0.274 N 
ATOM     11  C   UNL     1      -3.332   4.853  24.559  0.00  0.00    +0.115 C 
BRANCH  10  12
ATOM     12  C   UNL     1      -2.506   4.864  25.725  0.00  0.00    +0.122 C 
BRANCH  12  13
ATOM     13  C   UNL     1      -1.767   4.947  25.368  0.00  0.00    +0.017 A 
ATOM     14  C   UNL     1      -1.225   4.325  25.392  0.00  0.00    +0.001 A 
ATOM     15  C   UNL     1      -0.486   4.408  25.035  0.00  0.00    +0.020 A 
ATOM     16  C   UNL     1      -0.288   5.114  24.654  0.00  0.00    +0.099 A 
ATOM     17  N   UNL     1      -0.830   5.736  24.631  0.00  0.00    -0.243 NA
ATOM     18  C   UNL     1      -1.570   5.652  24.988  0.00  0.00    +0.096 A 
ENDBRANCH  12  13
ENDBRANCH  10  12
ENDBRANCH   7   8
ENDBRANCH   6   7
BRANCH  22  23
ATOM     23  C   UNL     1      -4.093   0.451  24.195  0.00  0.00    +0.120 C 
BRANCH  23  24
ATOM     24  N   UNL     1      -4.475  -0.133  24.636  0.00  0.00    -0.077 NA
BRANCH  24  25
ATOM     25  S   UNL     1      -4.245  -0.921  24.561  0.00  0.00    +0.077 S 
ATOM     26  O   UNL     1      -4.609  -0.959  23.822  0.00  0.00    -0.152 OA
ATOM     27  O   UNL     1      -3.880  -0.885  25.301  0.00  0.00    -0.152 OA
BRANCH  25  28
ATOM     28  C   UNL     1      -4.014  -1.710  24.487  0.00  0.00    +0.124 A 
ATOM     29  C   UNL     1      -3.533  -2.055  25.062  0.00  0.00    +0.020 A 
ATOM     30  C   UNL     1      -3.303  -2.843  24.988  0.00  0.00    -0.003 A 
ATOM     31  C   UNL     1      -3.554  -3.288  24.339  0.00  0.00    -0.022 A 
ATOM     32  C   UNL     1      -3.324  -4.076  24.265  0.00  0.00    +0.031 C 
ATOM     33  C   UNL     1      -4.035  -2.943  23.765  0.00  0.00    -0.003 A 
ATOM     34  C   UNL     1      -4.266  -2.154  23.839  0.00  0.00    +0.020 A 
ENDBRANCH  25  28
ENDBRANCH  24  25
ENDBRANCH  23  24
ENDBRANCH  22  23
TORSDOF 9
ENDMDL
MODEL 2
REMARK VINA RESULT:      -9.6      3.687      5.517
REMARK  Name = 
REMARK  9 active torsions:
REMARK  status: ('A' for Active; 'I' for Inactive)
REMARK    1  A    between atoms: C_2  and  C_4
REMARK    2  A    between atoms: C_6  and  C_7
REMARK    3  A    between atoms: C_7  and  C_8
REMARK    4  A    between atoms: N_10  and  C_12
REMARK    5  A    between atoms: C_12  and  C_13
REMARK    6  A    between atoms: C_22  and  C_23
REMARK    7  A    between atoms: C_23  and  N_24
REMARK    8  A    between atoms: N_24  and  S_25
REMARK    9  A    between atoms: S_25  and  C_28
REMARK                            x       y       z     vdW  Elec       q    Type
REMARK                         _______ _______ _______ _____ _____    ______ ____
ROOT
ATOM      4  C   UNL     1      -0.653   1.375  24.339  0.00  0.00    +0.006 C 
ATOM      5  C   UNL     1      -0.006   0.916  24.112  0.00  0.00    +0.005 C 
ATOM      6  C   UNL     1      -0.118   0.128  23.896  0.00  0.00    +0.027 C 
ATOM     19  C   UNL     1      -0.874  -0.201  23.907  0.00  0.00    -0.048 C 
ATOM     20  C   UNL     1      -0.984  -0.989  23.690  0.00  0.00    +0.026 C 
ATOM     21  C   UNL     1      -1.520   0.259  24.134  0.00  0.00    -0.033 C 
ATOM     22  C   UNL     1      -1.409   1.047  24.350  0.00  0.00    +0.041 C 
ENDROOT
BRANCH   4   2
ATOM      1  C   UNL     1      -0.379   2.357  25.341  0.00  0.00    +0.000 C 
ATOM      2  C   UNL     1      -0.542   2.164  24.556  0.00  0.00    +0.000 C 
ATOM      3  C   UNL     1      -0.594   2.760  23.987  0.00  0.00    +0.000 C 
ENDBRANCH   4   2
BRANCH   6   7
ATOM      7  C   UNL     1       0.529  -0.333  23.669  0.00  0.00    +0.089 C 
BRANCH   7   8
ATOM      8  C   UNL     1       1.028  -0.073  23.065  0.00  0.00    +0.226 C 
ATOM      9  O   UNL     1       0.717   0.334  22.419  0.00  0.00    -0.275 OA
ATOM     10  N   UNL     1       1.839  -0.222  23.108  0.00  0.00    -0.274 N 
ATOM     11  C   UNL     1       2.150  -0.630  23.754  0.00  0.00    +0.115 C 
BRANCH  10  12
ATOM     12  C   UNL     1       2.337   0.037  22.504  0.00  0.00    +0.122 C 
BRANCH  12  13
ATOM     13  C   UNL     1       3.123   0.226  22.671  0.00  0.00    +0.017 A 
ATOM     14  C   UNL     1       3.372   1.012  22.649  0.00  0.00    +0.001 A 
ATOM     15  C   UNL     1       4.158   1.201  22.816  0.00  0.00    +0.020 A 
ATOM     16  C   UNL     1       4.695   0.603  23.005  0.00  0.00    +0.099 A 
ATOM     17  N   UNL     1       4.445  -0.183  23.026  0.00  0.00    -0.243 NA
ATOM     18  C   UNL     1       3.659  -0.372  22.859  0.00  0.00    +0.096 A 
ENDBRANCH  12  13
ENDBRANCH  10  12
ENDBRANCH   7   8
ENDBRANCH   6   7
BRANCH  22  23
ATOM     23  C   UNL     1      -2.055   1.508  24.577  0.00  0.00    +0.120 C 
BRANCH  23  24
ATOM     24  N   UNL     1      -2.823   1.235  24.444  0.00  0.00    -0.077 NA
BRANCH  24  25
ATOM     25  S   UNL     1      -3.468   1.685  24.691  0.00  0.00    +0.077 S 
ATOM     26  O   UNL     1      -3.548   1.990  23.928  0.00  0.00    -0.152 OA
ATOM     27  O   UNL     1      -3.388   1.381  25.454  0.00  0.00    -0.152 OA
BRANCH  25  28
ATOM     28  C   UNL     1      -4.114   2.135  24.938  0.00  0.00    +0.124 A 
ATOM     29  C   UNL     1      -4.037   2.951  25.034  0.00  0.00    +0.020 A 
ATOM     30  C   UNL     1      -4.682   3.400  25.281  0.00  0.00    -0.003 A 
ATOM     31  C   UNL     1      -5.406   3.035  25.433  0.00  0.00    -0.022 A 
ATOM     32  C   UNL     1      -6.051   3.484  25.680  0.00  0.00    +0.031 C 
ATOM     33  C   UNL     1      -5.484   2.219  25.338  0.00  0.00    -0.003 A 
ATOM     34  C   UNL     1      -4.837   1.769  25.090  0.00  0.00    +0.020 A 
ENDBRANCH  25  28
ENDBRANCH  24  25
ENDBRANCH  23  24
ENDBRANCH  22  23
TORSDOF 9
ENDMDL
MODEL 3
REMARK VINA RESULT:      -9.5      3.242      5.133
REMARK  Name = 
REMARK  9 active torsions:
REMARK  status: ('A' for Active; 'I' for Inactive)
REMARK    1  A    between atoms: C_2  and  C_4
REMARK    2  A    between atoms: C_6  and  C_7
REMARK    3  A    between atoms: C_7  and  C_8
REMARK    4  A    between atoms: N_10  and  C_12
REMARK    5  A    between atoms: C_12  and  C_13
REMARK    6  A    between atoms: C_22  and  C_23
REMARK    7  A    between atoms: C_23  and  N_24
REMARK    8  A    between atoms: N_24  and  S_25
REMARK    9  A    between atoms: S_25  and  C_28
REMARK                            x       y       z     vdW  Elec       q    Type
REMARK                         _______ _______ _______ _____ _____    ______ ____
ROOT
ATOM      4  C   UNL     1      -1.411   0.895  24.604  0.00  0.00    +0.006 C 
ATOM      5  C   UNL     1      -2.196   0.778  24.826  0.00  0.00    +0.005 C 
ATOM      6  C   UNL     1      -2.556   0.047  24.696  0.00  0.00    +0.027 C 
ATOM     19  C   UNL     1      -2.131  -0.566  24.344  0.00  0.00    -0.048 C 
ATOM     20  C   UNL     1      -2.493  -1.296  24.214  0.00  0.00    +0.026 C 
ATOM     21  C   UNL     1      -1.346  -0.448  24.122  0.00  0.00    -0.033 C 
ATOM     22  C   UNL     1      -0.985   0.282  24.252  0.00  0.00    +0.041 C 
ENDROOT
BRANCH   4   2
ATOM      1  C   UNL     1      -0.642   1.764  25.437  0.00  0.00    +0.000 C 
ATOM      2  C   UNL     1      -1.050   1.626  24.734  0.00  0.00    +0.000 C 
ATOM      3  C   UNL     1      -1.097   2.218  24.161  0.00  0.00    +0.000 C 
ENDBRANCH   4   2
BRANCH   6   7
ATOM      7  C   UNL     1      -3.343  -0.070  24.918  0.00  0.00    +0.089 C 
BRANCH   7   8
ATOM      8  C   UNL     1      -3.937   0.409  24.603  0.00  0.00    +0.226 C 
ATOM      9  O   UNL     1      -3.946   0.577  23.795  0.00  0.00    -0.275 OA
ATOM     10  N   UNL     1      -4.520   0.720  25.096  0.00  0.00    -0.274 N 
ATOM     11  C   UNL     1      -4.511   0.552  25.904  0.00  0.00    +0.115 C 
BRANCH  10  12
ATOM     12  C   UNL     1      -5.113   1.198  24.780  0.00  0.00    +0.122 C 
BRANCH  12  13
ATOM     13  C   UNL     1      -5.282   1.928  25.127  0.00  0.00    +0.017 A 
ATOM     14  C   UNL     1      -4.935   2.616  24.832  0.00  0.00    +0.001 A 
ATOM     15  C   UNL     1      -5.103   3.345  25.178  0.00  0.00    +0.020 A 
ATOM     16  C   UNL     1      -5.620   3.387  25.821  0.00  0.00    +0.099 A 
ATOM     17  N   UNL     1      -5.967   2.699  26.116  0.00  0.00    -0.243 NA
ATOM     18  C   UNL     1      -5.798   1.970  25.769  0.00  0.00    +0.096 A 
ENDBRANCH  12  13
ENDBRANCH  10  12
ENDBRANCH   7   8
ENDBRANCH   6   7
BRANCH  22  23
ATOM     23  C   UNL     1      -0.199   0.400  24.030  0.00  0.00    +0.120 C 
BRANCH  23  24
ATOM     24  N   UNL     1       0.171  -0.137  23.524  0.00  0.00    -0.077 NA
BRANCH  24  25
ATOM     25  S   UNL     1       0.936   0.011  23.256  0.00  0.00    +0.077 S 
ATOM     26  O   UNL     1       1.243  -0.412  23.894  0.00  0.00    -0.152 OA
ATOM     27  O   UNL     1       0.631   0.434  22.616  0.00  0.00    -0.152 OA
BRANCH  25  28
ATOM     28  C   UNL     1       1.703   0.159  22.986  0.00  0.00    +0.124 A 
ATOM     29  C   UNL     1       2.002  -0.262  22.343  0.00  0.00    +0.020 A 
ATOM     30  C   UNL     1       2.768  -0.114  22.075  0.00  0.00    -0.003 A 
ATOM     31  C   UNL     1       3.234   0.455  22.449  0.00  0.00    -0.022 A 
ATOM     32  C   UNL     1       3.999   0.603  22.180  0.00  0.00    +0.031 C 
ATOM     33  C   UNL     1       2.934   0.876  23.092  0.00  0.00    -0.003 A 
ATOM     34  C   UNL     1       2.168   0.728  23.361  0.00  0.00    +0.020 A 
ENDBRANCH  25  28
ENDBRANCH  24  25
ENDBRANCH  23  24
ENDBRANCH  22  23
TORSDOF 9
ENDMDL
MODEL 4
REMARK VINA RESULT:      -9.2      4.070      5.717
REMARK  Name = 
REMARK  9 active torsions:
REMARK  status: ('A' for Active; 'I' for Inactive)
REMARK    1  A    between atoms: C_2  and  C_4
REMARK    2  A    between atoms: C_6  and  C_7
REMARK    3  A    between atoms: C_7  and  C_8
REMARK    4  A    between atoms: N_10  and  C_12
REMARK    5  A    between atoms: C_12  and  C_13
REMARK    6  A    between atoms: C_22  and  C_23
REMARK    7  A    between atoms: C_23  and  N_24
REMARK    8  A    between atoms: N_24  and  S_25
REMARK    9  A    between atoms: S_25  and  C_28
REMARK                            x       y       z     vdW  Elec       q    Type
REMARK                         _______ _______ _______ _____ _____    ______ ____
ROOT
ATOM      4  C   UNL     1      -0.343   0.472  24.100  0.00  0.00    +0.006 C 
ATOM      5  C   UNL     1      -1.016   0.886  24.337  0.00  0.00    +0.005 C 
ATOM      6  C   UNL     1      -1.026   1.710  24.300  0.00  0.00    +0.027 C 
ATOM     19  C   UNL     1      -0.364   2.119  24.027  0.00  0.00    -0.048 C 
ATOM     20  C   UNL     1      -0.376   2.944  23.990  0.00  0.00    +0.026 C 
ATOM     21  C   UNL     1       0.308   1.705  23.790  0.00  0.00    -0.033 C 
ATOM     22  C   UNL     1       0.318   0.881  23.826  0.00  0.00    +0.041 C 
ENDROOT
BRANCH   4   2
ATOM      1  C   UNL     1      -0.474  -0.797  23.456  0.00  0.00    +0.000 C 
ATOM      2  C   UNL     1      -0.333  -0.353  24.136  0.00  0.00    +0.000 C 
ATOM      3  C   UNL     1      -0.181  -0.732  24.853  0.00  0.00    +0.000 C 
ENDBRANCH   4   2
BRANCH   6   7
ATOM      7  C   UNL     1      -1.700   2.125  24.538  0.00  0.00    +0.089 C 
BRANCH   7   8
ATOM      8  C   UNL     1      -2.420   1.995  24.156  0.00  0.00    +0.226 C 
ATOM      9  O   UNL     1      -2.431   1.719  23.379  0.00  0.00    -0.275 OA
ATOM     10  N   UNL     1      -3.128   2.143  24.552  0.00  0.00    -0.274 N 
ATOM     11  C   UNL     1      -3.117   2.420  25.329  0.00  0.00    +0.115 C 
BRANCH  10  12
ATOM     12  C   UNL     1      -3.848   2.013  24.170  0.00  0.00    +0.122 C 
BRANCH  12  13
ATOM     13  C   UNL     1      -4.550   2.013  24.604  0.00  0.00    +0.017 A 
ATOM     14  C   UNL     1      -4.870   1.300  24.871  0.00  0.00    +0.001 A 
ATOM     15  C   UNL     1      -5.572   1.299  25.304  0.00  0.00    +0.020 A 
ATOM     16  C   UNL     1      -5.954   2.012  25.471  0.00  0.00    +0.099 A 
ATOM     17  N   UNL     1      -5.635   2.724  25.205  0.00  0.00    -0.243 NA
ATOM     18  C   UNL     1      -4.932   2.725  24.771  0.00  0.00    +0.096 A 
ENDBRANCH  12  13
ENDBRANCH  10  12
ENDBRANCH   7   8
ENDBRANCH   6   7
BRANCH  22  23
ATOM     23  C   UNL     1       0.991   0.466  23.589  0.00  0.00    +0.120 C 
BRANCH  23  24
ATOM     24  N   UNL     1       1.499   0.792  23.027  0.00  0.00    -0.077 NA
BRANCH  24  25
ATOM     25  S   UNL     1       2.304   0.613  23.046  0.00  0.00    +0.077 S 
ATOM     26  O   UNL     1       2.417   1.183  23.631  0.00  0.00    -0.152 OA
ATOM     27  O   UNL     1       2.192   0.043  22.460  0.00  0.00    -0.152 OA
BRANCH  25  28
ATOM     28  C   UNL     1       3.110   0.434  23.065  0.00  0.00    +0.124 A 
ATOM     29  C   UNL     1       3.663   0.996  22.824  0.00  0.00    +0.020 A 
ATOM     30  C   UNL     1       4.467   0.817  22.843  0.00  0.00    -0.003 A 
ATOM     31  C   UNL     1       4.720   0.076  23.104  0.00  0.00    -0.022 A 
ATOM     32  C   UNL     1       5.524  -0.104  23.123  0.00  0.00    +0.031 C 
ATOM     33  C   UNL     1       4.166  -0.486  23.345  0.00  0.00    -0.003 A 
ATOM     34  C   UNL     1       3.360  -0.307  23.326  0.00  0.00    +0.020 A 
ENDBRANCH  25  28
ENDBRANCH  24  25
ENDBRANCH  23  24
ENDBRANCH  22  23
TORSDOF 9
ENDMDL
MODEL 5
REMARK VINA RESULT:      -8.7      1.454      5.880
REMARK  Name = 
REMARK  9 active torsions:
REMARK  status: ('A' for Active; 'I' for Inactive)
REMARK    1  A    between atoms: C_2  and  C_4
REMARK    2  A    between atoms: C_6  and  C_7
REMARK    3  A    between atoms: C_7  and  C_8
REMARK    4  A    between atoms: N_10  and  C_12
REMARK    5  A    between atoms: C_12  and  C_13
REMARK    6  A    between atoms: C_22  and  C_23
REMARK    7  A    between atoms: C_23  and  N_24
REMARK    8  A    between atoms: N_24  and  S_25
REMARK    9  A    between atoms: S_25  and  C_28
REMARK                            x       y       z     vdW  Elec       q    Type
REMARK                         _______ _______ _______ _____ _____    ______ ____
ROOT
ATOM      4  C   UNL     1      -3.323   1.203  23.897  0.00  0.00    +0.006 C 
ATOM      5  C   UNL     1      -3.649   0.450  23.983  0.00  0.00    +0.005 C 
ATOM      6  C   UNL     1      -4.253   0.324  24.530  0.00  0.00    +0.027 C 
ATOM     19  C   UNL     1      -4.531   0.949  24.991  0.00  0.00    -0.048 C 
ATOM     20  C   UNL     1      -5.135   0.822  25.538  0.00  0.00    +0.026 C 
ATOM     21  C   UNL     1      -4.204   1.701  24.904  0.00  0.00    -0.033 C 
ATOM     22  C   UNL     1      -3.601   1.829  24.358  0.00  0.00    +0.041 C 
ENDROOT
BRANCH   4   2
ATOM      1  C   UNL     1      -1.945   1.107  23.530  0.00  0.00    +0.000 C 
ATOM      2  C   UNL     1      -2.719   1.330  23.349  0.00  0.00    +0.000 C 
ATOM      3  C   UNL     1      -2.888   1.680  22.621  0.00  0.00    +0.000 C 
ENDBRANCH   4   2
BRANCH   6   7
ATOM      7  C   UNL     1      -4.580  -0.429  24.616  0.00  0.00    +0.089 C 
BRANCH   7   8
ATOM      8  C   UNL     1      -4.150  -1.025  24.994  0.00  0.00    +0.226 C 
ATOM      9  O   UNL     1      -3.864  -0.905  25.759  0.00  0.00    -0.275 OA
ATOM     10  N   UNL     1      -4.008  -1.739  24.607  0.00  0.00    -0.274 N 
ATOM     11  C   UNL     1      -4.294  -1.859  23.843  0.00  0.00    +0.115 C 
BRANCH  10  12
ATOM     12  C   UNL     1      -3.579  -2.333  24.985  0.00  0.00    +0.122 C 
BRANCH  12  13
ATOM     13  C   UNL     1      -2.823  -2.530  24.717  0.00  0.00    +0.017 A 
ATOM     14  C   UNL     1      -2.158  -2.258  25.123  0.00  0.00    +0.001 A 
ATOM     15  C   UNL     1      -1.402  -2.455  24.856  0.00  0.00    +0.020 A 
ATOM     16  C   UNL     1      -1.312  -2.923  24.181  0.00  0.00    +0.099 A 
ATOM     17  N   UNL     1      -1.978  -3.194  23.776  0.00  0.00    -0.243 NA
ATOM     18  C   UNL     1      -2.733  -2.997  24.044  0.00  0.00    +0.096 A 
ENDBRANCH  12  13
ENDBRANCH  10  12
ENDBRANCH   7   8
ENDBRANCH   6   7
BRANCH  22  23
ATOM     23  C   UNL     1      -3.273   2.581  24.271  0.00  0.00    +0.120 C 
BRANCH  23  24
ATOM     24  N   UNL     1      -3.269   3.105  24.908  0.00  0.00    -0.077 NA
BRANCH  24  25
ATOM     25  S   UNL     1      -2.722   3.721  24.932  0.00  0.00    +0.077 S 
ATOM     26  O   UNL     1      -3.132   4.109  24.331  0.00  0.00    -0.152 OA
ATOM     27  O   UNL     1      -2.311   3.333  25.533  0.00  0.00    -0.152 OA
BRANCH  25  28
ATOM     28  C   UNL     1      -2.174   4.338  24.956  0.00  0.00    +0.124 A 
ATOM     29  C   UNL     1      -1.368   4.176  24.890  0.00  0.00    +0.020 A 
ATOM     30  C   UNL     1      -0.821   4.793  24.914  0.00  0.00    -0.003 A 
ATOM     31  C   UNL     1      -1.079   5.571  25.003  0.00  0.00    -0.022 A 
ATOM     32  C   UNL     1      -0.532   6.188  25.027  0.00  0.00    +0.031 C 
ATOM     33  C   UNL     1      -1.885   5.733  25.068  0.00  0.00    -0.003 A 
ATOM     34  C   UNL     1      -2.433   5.116  25.045  0.00  0.00    +0.020 A 
ENDBRANCH  25  28
ENDBRANCH  24  25
ENDBRANCH  23  24
ENDBRANCH  22  23
TORSDOF 9
ENDMDL
