MODEL 1
REMARK VINA RESULT:     -14.9      0.000      0.000
REMARK  Name = 
REMARK  3 active torsions:
REMARK  status: ('A' for Active; 'I' for Inactive)
REMARK    1  A    between atoms: N_9  and  S_11
REMARK    2  A    between atoms: S_11  and  C_14
REMARK    3  A    between atoms: C_23  and  C_24
REMARK                            x       y       z     vdW  Elec       q    Type
REMARK                         _______ _______ _______ _____ _____    ______ ____
ROOT
ATOM      1  O   UNL     1      -2.720   0.399  24.566  0.00  0.00    -0.267 OA
ATOM      2  C   UNL     1      -3.495   0.644  24.710  0.00  0.00    +0.261 A 
ATOM      3  N   UNL     1      -3.679   1.449  24.715  0.00  0.00    -0.299 N 
ATOM      4  C   UNL     1      -4.419   1.097  24.876  0.00  0.00    +0.110 C 
ATOM      5  C   UNL     1      -4.975   1.910  24.954  0.00  0.00    +0.041 C 
ATOM      6  C   UNL     1      -5.559   2.469  25.049  0.00  0.00    +0.011 C 
ATOM      7  C   UNL     1      -4.871   2.456  24.912  0.00  0.00    +0.056 C 
ATOM      8  C   UNL     1      -4.158   3.012  24.748  0.00  0.00    +0.102 C 
ATOM      9  N   UNL     1      -3.578   2.451  24.655  0.00  0.00    -0.155 NA
ATOM     10  C   UNL     1      -4.224   2.482  24.782  0.00  0.00    +0.098 C 
ATOM     20  C   UNL     1      -4.452   1.694  24.859  0.00  0.00    +0.041 A 
ATOM     21  C   UNL     1      -5.042   1.135  24.998  0.00  0.00    +0.013 A 
ATOM     22  C   UNL     1      -4.859   0.332  24.994  0.00  0.00    +0.006 A 
ATOM     23  C   UNL     1      -4.085   0.086  24.850  0.00  0.00    +0.058 A 
ENDROOT
BRANCH  23  24
ATOM     24  C   UNL     1      -3.902  -0.719  24.845  0.00  0.00    +0.024 A 
ATOM     25  C   UNL     1      -3.999  -1.160  24.154  0.00  0.00    +0.003 A 
ATOM     26  C   UNL     1      -3.815  -1.964  24.149  0.00  0.00    +0.021 A 
ATOM     27  C   UNL     1      -3.535  -2.328  24.836  0.00  0.00    +0.099 A 
ATOM     28  N   UNL     1      -3.438  -1.887  25.526  0.00  0.00    -0.242 NA
ATOM     29  C   UNL     1      -3.622  -1.082  25.530  0.00  0.00    +0.099 A 
ENDBRANCH  23  24
BRANCH   9  11
ATOM     11  S   UNL     1      -2.832   2.126  24.520  0.00  0.00    +0.063 S 
ATOM     12  O   UNL     1      -2.996   2.085  23.712  0.00  0.00    -0.153 OA
ATOM     13  O   UNL     1      -2.668   2.166  25.327  0.00  0.00    -0.153 OA
BRANCH  11  14
ATOM     14  C   UNL     1      -2.086   1.800  24.385  0.00  0.00    +0.122 A 
ATOM     15  C   UNL     1      -1.853   1.607  23.618  0.00  0.00    +0.020 A 
ATOM     16  C   UNL     1      -1.107   1.281  23.483  0.00  0.00    +0.001 A 
ATOM     17  C   UNL     1      -0.594   1.149  24.116  0.00  0.00    +0.000 A 
ATOM     18  C   UNL     1      -0.827   1.342  24.882  0.00  0.00    +0.001 A 
ATOM     19  C   UNL     1      -1.574   1.668  25.018  0.00  0.00    +0.020 A 
ENDBRANCH  11  14
ENDBRANCH   9  11
TORSDOF 3
ENDMDL
MODEL 2
REMARK VINA RESULT:     -14.4      1.088      2.937
REMARK  Name = 
REMARK  3 active torsions:
REMARK  status: ('A' for Active; 'I' for Inactive)
REMARK    1  A    between atoms: N_9  and  S_11
REMARK    2  A    between atoms: S_11  and  C_14
REMARK    3  A    between atoms: C_23  and  C_24
REMARK                            x       y       z     vdW  Elec       q    Type
REMARK                         _______ _______ _______ _____ _____    ______ ____
ROOT
ATOM      1  O   UNL     1      -2.711   0.055  24.649  0.00  0.00    -0.267 OA
ATOM      2  C   UNL     1      -3.000   0.828  24.663  0.00  0.00    +0.261 A 
ATOM      3  N   UNL     1      -3.807   0.964  24.771  0.00  0.00    -0.299 N 
ATOM      4  C   UNL     1      -3.504   1.740  24.703  0.00  0.00    +0.110 C 
ATOM      5  C   UNL     1      -4.341   2.255  24.801  0.00  0.00    +0.041 C 
ATOM      6  C   UNL     1      -4.930   2.814  24.864  0.00  0.00    +0.011 C 
ATOM      7  C   UNL     1      -4.875   2.115  24.880  0.00  0.00    +0.056 C 
ATOM      8  C   UNL     1      -5.382   1.354  24.976  0.00  0.00    +0.102 C 
ATOM      9  N   UNL     1      -4.793   0.799  24.913  0.00  0.00    -0.155 NA
ATOM     10  C   UNL     1      -4.862   1.455  24.900  0.00  0.00    +0.098 C 
ATOM     20  C   UNL     1      -4.096   1.736  24.785  0.00  0.00    +0.041 A 
ATOM     21  C   UNL     1      -3.579   2.372  24.692  0.00  0.00    +0.013 A 
ATOM     22  C   UNL     1      -2.773   2.236  24.585  0.00  0.00    +0.006 A 
ATOM     23  C   UNL     1      -2.484   1.464  24.571  0.00  0.00    +0.058 A 
ENDROOT
BRANCH  23  24
ATOM     24  C   UNL     1      -1.677   1.327  24.464  0.00  0.00    +0.024 A 
ATOM     25  C   UNL     1      -1.173   1.301  25.117  0.00  0.00    +0.003 A 
ATOM     26  C   UNL     1      -0.366   1.164  25.010  0.00  0.00    +0.021 A 
ATOM     27  C   UNL     1      -0.063   1.055  24.249  0.00  0.00    +0.099 A 
ATOM     28  N   UNL     1      -0.567   1.081  23.597  0.00  0.00    -0.242 NA
ATOM     29  C   UNL     1      -1.374   1.218  23.704  0.00  0.00    +0.099 A 
ENDBRANCH  23  24
BRANCH   9  11
ATOM     11  S   UNL     1      -4.426   0.061  24.886  0.00  0.00    +0.063 S 
ATOM     12  O   UNL     1      -4.526   0.039  24.068  0.00  0.00    -0.153 OA
ATOM     13  O   UNL     1      -4.325   0.082  25.705  0.00  0.00    -0.153 OA
BRANCH  11  14
ATOM     14  C   UNL     1      -4.059  -0.678  24.861  0.00  0.00    +0.122 A 
ATOM     15  C   UNL     1      -3.743  -1.005  25.548  0.00  0.00    +0.020 A 
ATOM     16  C   UNL     1      -3.376  -1.744  25.522  0.00  0.00    +0.001 A 
ATOM     17  C   UNL     1      -3.325  -2.155  24.808  0.00  0.00    +0.000 A 
ATOM     18  C   UNL     1      -3.641  -1.827  24.121  0.00  0.00    +0.001 A 
ATOM     19  C   UNL     1      -4.009  -1.088  24.147  0.00  0.00    +0.020 A 
ENDBRANCH  11  14
ENDBRANCH   9  11
TORSDOF 3
ENDMDL
MODEL 3
REMARK VINA RESULT:     -14.3      1.153      3.302
REMARK  Name = 
REMARK  3 active torsions:
REMARK  status: ('A' for Active; 'I' for Inactive)
REMARK    1  A    between atoms: N_9  and  S_11
REMARK    2  A    between atoms: S_11  and  C_14
REMARK    3  A    between atoms: C_23  and  C_24
REMARK                            x       y       z     vdW  Elec       q    Type
REMARK                         _______ _______ _______ _____ _____    ______ ____
ROOT
ATOM      1  O   UNL     1      -2.617   0.584  24.829  0.00  0.00    -0.267 OA
ATOM      2  C   UNL     1      -3.107  -0.065  24.689  0.00  0.00    +0.261 A 
ATOM      3  N   UNL     1      -2.787  -0.825  24.661  0.00  0.00    -0.299 N 
ATOM      4  C   UNL     1      -3.598  -0.970  24.523  0.00  0.00    +0.110 C 
ATOM      5  C   UNL     1      -3.577  -1.953  24.427  0.00  0.00    +0.041 C 
ATOM      6  C   UNL     1      -3.727  -2.747  24.324  0.00  0.00    +0.011 C 
ATOM      7  C   UNL     1      -3.172  -2.336  24.449  0.00  0.00    +0.056 C 
ATOM      8  C   UNL     1      -2.264  -2.373  24.583  0.00  0.00    +0.102 C 
ATOM      9  N   UNL     1      -2.117  -1.580  24.686  0.00  0.00    -0.155 NA
ATOM     10  C   UNL     1      -2.628  -1.981  24.568  0.00  0.00    +0.098 C 
ATOM     20  C   UNL     1      -3.275  -1.474  24.521  0.00  0.00    +0.041 A 
ATOM     21  C   UNL     1      -4.085  -1.363  24.410  0.00  0.00    +0.013 A 
ATOM     22  C   UNL     1      -4.406  -0.605  24.438  0.00  0.00    +0.006 A 
ATOM     23  C   UNL     1      -3.917   0.045  24.578  0.00  0.00    +0.058 A 
ENDROOT
BRANCH  23  24
ATOM     24  C   UNL     1      -4.237   0.805  24.606  0.00  0.00    +0.024 A 
ATOM     25  C   UNL     1      -4.678   1.042  25.263  0.00  0.00    +0.003 A 
ATOM     26  C   UNL     1      -4.998   1.802  25.292  0.00  0.00    +0.021 A 
ATOM     27  C   UNL     1      -4.879   2.324  24.663  0.00  0.00    +0.099 A 
ATOM     28  N   UNL     1      -4.439   2.086  24.007  0.00  0.00    -0.242 NA
ATOM     29  C   UNL     1      -4.118   1.327  23.979  0.00  0.00    +0.099 A 
ENDBRANCH  23  24
BRANCH   9  11
ATOM     11  S   UNL     1      -1.699  -0.883  24.820  0.00  0.00    +0.063 S 
ATOM     12  O   UNL     1      -1.836  -0.955  25.630  0.00  0.00    -0.153 OA
ATOM     13  O   UNL     1      -1.560  -0.810  24.010  0.00  0.00    -0.153 OA
BRANCH  11  14
ATOM     14  C   UNL     1      -1.279  -0.185  24.954  0.00  0.00    +0.122 A 
ATOM     15  C   UNL     1      -1.199   0.107  25.721  0.00  0.00    +0.020 A 
ATOM     16  C   UNL     1      -0.779   0.806  25.855  0.00  0.00    +0.001 A 
ATOM     17  C   UNL     1      -0.440   1.210  25.221  0.00  0.00    +0.000 A 
ATOM     18  C   UNL     1      -0.520   0.918  24.454  0.00  0.00    +0.001 A 
ATOM     19  C   UNL     1      -0.940   0.220  24.320  0.00  0.00    +0.020 A 
ENDBRANCH  11  14
ENDBRANCH   9  11
TORSDOF 3
ENDMDL
MODEL 4
REMARK VINA RESULT:     -14.2      1.488      2.151
REMARK  Name = 
REMARK  3 active torsions:
REMARK  status: ('A' for Active; 'I' for Inactive)
REMARK    1  A    between atoms: N_9  and  S_11
REMARK    2  A    between atoms: S_11  and  C_14
REMARK    3  A    between atoms: C_23  and  C_24
REMARK                            x       y       z     vdW  Elec       q    Type
REMARK                         _______ _______ _______ _____ _____    ______ ____
ROOT
ATOM      1  O   UNL     1      -2.694   2.341  25.050  0.00  0.00    -0.267 OA
ATOM      2  C   UNL     1      -3.412   1.937  24.997  0.00  0.00    +0.261 A 
ATOM      3  N   UNL     1      -4.123   2.344  25.097  0.00  0.00    -0.299 N 
ATOM      4  C   UNL     1      -4.384   1.563  24.958  0.00  0.00    +0.110 C 
ATOM      5  C   UNL     1      -5.360   1.702  25.016  0.00  0.00    +0.041 C 
ATOM      6  C   UNL     1      -6.173   1.649  25.033  0.00  0.00    +0.011 C 
ATOM      7  C   UNL     1      -5.683   2.146  25.111  0.00  0.00    +0.056 C 
ATOM      8  C   UNL     1      -5.589   3.045  25.277  0.00  0.00    +0.102 C 
ATOM      9  N   UNL     1      -4.778   3.094  25.260  0.00  0.00    -0.155 NA
ATOM     10  C   UNL     1      -5.251   2.640  25.190  0.00  0.00    +0.098 C 
ATOM     20  C   UNL     1      -4.839   1.941  25.044  0.00  0.00    +0.041 A 
ATOM     21  C   UNL     1      -4.846   1.130  24.891  0.00  0.00    +0.013 A 
ATOM     22  C   UNL     1      -4.137   0.723  24.791  0.00  0.00    +0.006 A 
ATOM     23  C   UNL     1      -3.419   1.126  24.844  0.00  0.00    +0.058 A 
ENDROOT
BRANCH  23  24
ATOM     24  C   UNL     1      -2.708   0.719  24.744  0.00  0.00    +0.024 A 
ATOM     25  C   UNL     1      -2.360   0.333  25.386  0.00  0.00    +0.003 A 
ATOM     26  C   UNL     1      -1.649  -0.074  25.286  0.00  0.00    +0.021 A 
ATOM     27  C   UNL     1      -1.287  -0.095  24.544  0.00  0.00    +0.099 A 
ATOM     28  N   UNL     1      -1.635   0.290  23.904  0.00  0.00    -0.242 NA
ATOM     29  C   UNL     1      -2.346   0.697  24.004  0.00  0.00    +0.099 A 
ENDBRANCH  23  24
BRANCH   9  11
ATOM     11  S   UNL     1      -4.023   3.422  25.298  0.00  0.00    +0.063 S 
ATOM     12  O   UNL     1      -4.045   3.567  24.486  0.00  0.00    -0.153 OA
ATOM     13  O   UNL     1      -4.000   3.277  26.110  0.00  0.00    -0.153 OA
BRANCH  11  14
ATOM     14  C   UNL     1      -3.267   3.751  25.336  0.00  0.00    +0.122 A 
ATOM     15  C   UNL     1      -2.909   4.041  24.652  0.00  0.00    +0.020 A 
ATOM     16  C   UNL     1      -2.152   4.370  24.690  0.00  0.00    +0.001 A 
ATOM     17  C   UNL     1      -1.755   4.408  25.413  0.00  0.00    +0.000 A 
ATOM     18  C   UNL     1      -2.113   4.117  26.096  0.00  0.00    +0.001 A 
ATOM     19  C   UNL     1      -2.870   3.788  26.058  0.00  0.00    +0.020 A 
ENDBRANCH  11  14
ENDBRANCH   9  11
TORSDOF 3
ENDMDL
