MODEL 1
REMARK VINA RESULT:     -11.1      0.000      0.000
REMARK  Name = 
REMARK  2 active torsions:
REMARK  status: ('A' for Active; 'I' for Inactive)
REMARK    1  A    between atoms: C_2  and  N_4
REMARK    2  A    between atoms: C_7  and  C_9
REMARK                            x       y       z     vdW  Elec       q    Type
REMARK                         _______ _______ _______ _____ _____    ______ ____
ROOT
ATOM      9  C   UNL     1      -4.285   0.425  24.875  0.00  0.00    +0.207 A 
ATOM     10  N   UNL     1      -4.421  -0.097  24.251  0.00  0.00    -0.212 NA
ATOM     11  C   UNL     1      -4.119  -0.834  24.464  0.00  0.00    +0.118 A 
ATOM     12  C   UNL     1      -3.796  -0.768  25.221  0.00  0.00    +0.164 A 
ATOM     13  O   UNL     1      -3.899   0.010  25.475  0.00  0.00    -0.438 OA
ATOM     14  C   UNL     1      -3.451  -1.425  25.580  0.00  0.00    +0.039 A 
ATOM     15  C   UNL     1      -3.428  -2.148  25.184  0.00  0.00    -0.001 A 
ATOM     16  C   UNL     1      -3.751  -2.214  24.427  0.00  0.00    -0.020 A 
ATOM     17  C   UNL     1      -3.728  -2.936  24.030  0.00  0.00    +0.031 C 
ATOM     18  C   UNL     1      -4.097  -1.557  24.067  0.00  0.00    +0.018 A 
ENDROOT
BRANCH   9   7
ATOM      4  N   UNL     1      -4.428   2.555  24.924  0.00  0.00    -0.274 NA
ATOM      5  C   UNL     1      -5.225   2.342  24.935  0.00  0.00    +0.073 C 
ATOM      6  C   UNL     1      -5.269   1.518  24.918  0.00  0.00    +0.028 C 
ATOM      7  C   UNL     1      -4.498   1.222  24.896  0.00  0.00    +0.094 C 
ATOM      8  C   UNL     1      -3.979   1.862  24.900  0.00  0.00    +0.081 C 
BRANCH   4   2
ATOM      1  C   UNL     1      -3.953   3.708  24.226  0.00  0.00    +0.017 C 
ATOM      2  C   UNL     1      -4.131   3.324  24.935  0.00  0.00    +0.058 C 
ATOM      3  C   UNL     1      -4.013   3.711  25.654  0.00  0.00    +0.017 C 
ENDBRANCH   4   2
ENDBRANCH   9   7
TORSDOF 2
ENDMDL
MODEL 2
REMARK VINA RESULT:     -10.3      0.924      4.267
REMARK  Name = 
REMARK  2 active torsions:
REMARK  status: ('A' for Active; 'I' for Inactive)
REMARK    1  A    between atoms: C_2  and  N_4
REMARK    2  A    between atoms: C_7  and  C_9
REMARK                            x       y       z     vdW  Elec       q    Type
REMARK                         _______ _______ _______ _____ _____    ______ ____
ROOT
ATOM      9  C   UNL     1      -4.173   0.296  24.528  0.00  0.00    +0.207 A 
ATOM     10  N   UNL     1      -4.747   0.607  25.031  0.00  0.00    -0.212 NA
ATOM     11  C   UNL     1      -4.711   1.429  24.982  0.00  0.00    +0.118 A 
ATOM     12  C   UNL     1      -4.115   1.627  24.447  0.00  0.00    +0.164 A 
ATOM     13  O   UNL     1      -3.782   0.927  24.166  0.00  0.00    -0.438 OA
ATOM     14  C   UNL     1      -3.952   2.420  24.285  0.00  0.00    +0.039 A 
ATOM     15  C   UNL     1      -4.385   3.014  24.657  0.00  0.00    -0.001 A 
ATOM     16  C   UNL     1      -4.982   2.817  25.192  0.00  0.00    -0.020 A 
ATOM     17  C   UNL     1      -5.416   3.411  25.565  0.00  0.00    +0.031 C 
ATOM     18  C   UNL     1      -5.145   2.025  25.354  0.00  0.00    +0.018 A 
ENDROOT
BRANCH   9   7
ATOM      4  N   UNL     1      -3.461  -1.716  24.484  0.00  0.00    -0.274 NA
ATOM      5  C   UNL     1      -4.092  -1.759  23.954  0.00  0.00    +0.073 C 
ATOM      6  C   UNL     1      -4.435  -1.010  23.906  0.00  0.00    +0.028 C 
ATOM      7  C   UNL     1      -4.016  -0.505  24.406  0.00  0.00    +0.094 C 
ATOM      8  C   UNL     1      -3.415  -0.941  24.763  0.00  0.00    +0.081 C 
BRANCH   4   2
ATOM      1  C   UNL     1      -3.279  -3.023  25.034  0.00  0.00    +0.017 C 
ATOM      2  C   UNL     1      -2.964  -2.339  24.697  0.00  0.00    +0.058 C 
ATOM      3  C   UNL     1      -2.150  -2.278  24.574  0.00  0.00    +0.017 C 
ENDBRANCH   4   2
ENDBRANCH   9   7
TORSDOF 2
ENDMDL
MODEL 3
REMARK VINA RESULT:      -9.9      1.832      4.494
REMARK  Name = 
REMARK  2 active torsions:
REMARK  status: ('A' for Active; 'I' for Inactive)
REMARK    1  A    between atoms: C_2  and  N_4
REMARK    2  A    between atoms: C_7  and  C_9
REMARK                            x       y       z     vdW  Elec       q    Type
REMARK                         _______ _______ _______ _____ _____    ______ ____
ROOT
ATOM      9  C   UNL     1      -2.887   1.992  24.918  0.00  0.00    +0.207 A 
ATOM     10  N   UNL     1      -3.124   2.781  24.959  0.00  0.00    -0.212 NA
ATOM     11  C   UNL     1      -2.447   3.248  25.017  0.00  0.00    +0.118 A 
ATOM     12  C   UNL     1      -1.791   2.747  25.012  0.00  0.00    +0.164 A 
ATOM     13  O   UNL     1      -2.063   1.971  24.951  0.00  0.00    -0.438 OA
ATOM     14  C   UNL     1      -1.031   3.064  25.064  0.00  0.00    +0.039 A 
ATOM     15  C   UNL     1      -0.926   3.879  25.121  0.00  0.00    -0.001 A 
ATOM     16  C   UNL     1      -1.582   4.380  25.126  0.00  0.00    -0.020 A 
ATOM     17  C   UNL     1      -1.478   5.196  25.183  0.00  0.00    +0.031 C 
ATOM     18  C   UNL     1      -2.342   4.065  25.074  0.00  0.00    +0.018 A 
ENDROOT
BRANCH   9   7
ATOM      4  N   UNL     1      -3.832   0.081  24.805  0.00  0.00    -0.274 NA
ATOM      5  C   UNL     1      -4.480   0.584  24.713  0.00  0.00    +0.073 C 
ATOM      6  C   UNL     1      -4.205   1.362  24.744  0.00  0.00    +0.028 C 
ATOM      7  C   UNL     1      -3.387   1.339  24.856  0.00  0.00    +0.094 C 
ATOM      8  C   UNL     1      -3.157   0.547  24.893  0.00  0.00    +0.081 C 
BRANCH   4   2
ATOM      1  C   UNL     1      -4.144  -1.151  24.151  0.00  0.00    +0.017 C 
ATOM      2  C   UNL     1      -3.856  -0.743  24.808  0.00  0.00    +0.058 C 
ATOM      3  C   UNL     1      -3.591  -1.162  25.469  0.00  0.00    +0.017 C 
ENDBRANCH   4   2
ENDBRANCH   9   7
TORSDOF 2
ENDMDL
MODEL 4
REMARK VINA RESULT:      -8.6      2.404      3.828
REMARK  Name = 
REMARK  2 active torsions:
REMARK  status: ('A' for Active; 'I' for Inactive)
REMARK    1  A    between atoms: C_2  and  N_4
REMARK    2  A    between atoms: C_7  and  C_9
REMARK                            x       y       z     vdW  Elec       q    Type
REMARK                         _______ _______ _______ _____ _____    ______ ____
ROOT
ATOM      9  C   UNL     1      -2.989   1.818  24.930  0.00  0.00    +0.207 A 
ATOM     10  N   UNL     1      -3.611   1.287  24.823  0.00  0.00    -0.212 NA
ATOM     11  C   UNL     1      -4.317   1.695  24.944  0.00  0.00    +0.118 A 
ATOM     12  C   UNL     1      -4.132   2.478  25.126  0.00  0.00    +0.164 A 
ATOM     13  O   UNL     1      -3.312   2.554  25.118  0.00  0.00    -0.438 OA
ATOM     14  C   UNL     1      -4.736   3.020  25.276  0.00  0.00    +0.039 A 
ATOM     15  C   UNL     1      -5.524   2.780  25.243  0.00  0.00    -0.001 A 
ATOM     16  C   UNL     1      -5.709   1.996  25.061  0.00  0.00    -0.020 A 
ATOM     17  C   UNL     1      -6.497   1.755  25.028  0.00  0.00    +0.031 C 
ATOM     18  C   UNL     1      -5.106   1.454  24.911  0.00  0.00    +0.018 A 
ENDROOT
BRANCH   9   7
ATOM      4  N   UNL     1      -0.855   1.747  24.911  0.00  0.00    -0.274 NA
ATOM      5  C   UNL     1      -1.042   1.004  24.605  0.00  0.00    +0.073 C 
ATOM      6  C   UNL     1      -1.864   0.940  24.575  0.00  0.00    +0.028 C 
ATOM      7  C   UNL     1      -2.185   1.644  24.863  0.00  0.00    +0.094 C 
ATOM      8  C   UNL     1      -1.562   2.142  25.070  0.00  0.00    +0.081 C 
BRANCH   4   2
ATOM      1  C   UNL     1       0.112   2.349  25.773  0.00  0.00    +0.017 C 
ATOM      2  C   UNL     1      -0.096   2.043  25.036  0.00  0.00    +0.058 C 
ATOM      3  C   UNL     1       0.458   2.033  24.423  0.00  0.00    +0.017 C 
ENDBRANCH   4   2
ENDBRANCH   9   7
TORSDOF 2
ENDMDL
