REMARK  Name = 
REMARK  6 active torsions:
REMARK  status: ('A' for Active; 'I' for Inactive)
REMARK    1  A    between atoms: C_2  and  C_3
REMARK    2  A    between atoms: C_3  and  C_4
REMARK    3  A    between atoms: C_3  and  C_6
REMARK    4  A    between atoms: N_8  and  C_9
REMARK    5  A    between atoms: C_12  and  C_15
REMARK    6  A    between atoms: CA_21  and  C_22
REMARK                            x       y       z     vdW  Elec       q    Type
REMARK                         _______ _______ _______ _____ _____    ______ ____
ROOT
ATOM      9  C   UNL     1       3.572  -5.362   0.000  0.00  0.00    +0.073 A 
ATOM     10  C   UNL     1       4.287  -4.950   0.000  0.00  0.00    +0.016 A 
ATOM     11  C   UNL     1       5.001  -5.362   0.000  0.00  0.00    -0.001 A 
ATOM     12  C   UNL     1       5.001  -6.188   0.000  0.00  0.00    +0.006 A 
ATOM     13  C   UNL     1       4.287  -6.600   0.000  0.00  0.00    -0.001 A 
ATOM     14  C   UNL     1       3.572  -6.188   0.000  0.00  0.00    +0.016 A 
ENDROOT
BRANCH  12  15
ATOM     15  C   UNL     1       5.716  -6.600   0.000  0.00  0.00    +0.160 C 
ATOM     16  O   UNL     1       6.430  -6.188   0.000  0.00  0.00    -0.341 OA
ATOM     17  C   UNL     1       7.145  -6.600   0.000  0.00  0.00    +0.229 C 
ATOM     18  C   UNL     1       7.145  -7.425   0.000  0.00  0.00    +0.272 C 
ATOM     19  O   UNL     1       7.859  -7.838   0.000  0.00  0.00    -0.271 OA
ATOM     20  N   UNL     1       6.430  -7.838   0.000  0.00  0.00    -0.199 NA
ATOM     21  CA  UNL     1       5.716  -7.425   0.000  0.00  0.00    +0.159 C 
BRANCH  21  22
ATOM     22  C   UNL     1       5.001  -7.838   0.000  0.00  0.00    +0.206 C 
ATOM     23  O   UNL     1       4.287  -7.425   0.000  0.00  0.00    -0.218 OA
ENDBRANCH  21  22
ENDBRANCH  12  15
BRANCH   9   8
ATOM      6  C   UNL     1       2.143  -5.362   0.000  0.00  0.00    +0.245 C 
ATOM      7  O   UNL     1       2.143  -6.188   0.000  0.00  0.00    -0.273 OA
ATOM      8  N   UNL     1       2.858  -4.950   0.000  0.00  0.00    -0.179 NA
BRANCH   6   3
ATOM      3  C   UNL     1       1.429  -4.950   0.000  0.00  0.00    +0.079 C 
BRANCH   3   2
ATOM      1  C   UNL     1       0.000  -4.950   0.000  0.00  0.00    +0.001 C 
ATOM      2  C   UNL     1       0.715  -5.362   0.000  0.00  0.00    +0.009 C 
ENDBRANCH   3   2
BRANCH   3   4
ATOM      4  C   UNL     1       1.429  -4.125   0.000  0.00  0.00    +0.009 C 
ATOM      5  C   UNL     1       2.143  -3.712   0.000  0.00  0.00    +0.001 C 
ENDBRANCH   3   4
ENDBRANCH   6   3
ENDBRANCH   9   8
TORSDOF 6
