MODEL 1
REMARK VINA RESULT:     -10.2      0.000      0.000
REMARK  Name = 
REMARK  9 active torsions:
REMARK  status: ('A' for Active; 'I' for Inactive)
REMARK    1  A    between atoms: O_2  and  C_3
REMARK    2  A    between atoms: C_3  and  C_4
REMARK    3  A    between atoms: C_4  and  O_5
REMARK    4  A    between atoms: O_5  and  C_6
REMARK    5  A    between atoms: C_8  and  C_12
REMARK    6  A    between atoms: C_15  and  C_17
REMARK    7  A    between atoms: N_21  and  C_22
REMARK    8  A    between atoms: C_22  and  C_23
REMARK    9  A    between atoms: C_27  and  O_28
REMARK                            x       y       z     vdW  Elec       q    Type
REMARK                         _______ _______ _______ _____ _____    ______ ____
ROOT
ATOM     12  C   UNL     1      -0.766   2.626  25.277  0.00  0.00    +0.221 A 
ATOM     13  N   UNL     1      -0.226   2.340  25.832  0.00  0.00    -0.054 NA
ATOM     14  O   UNL     1       0.009   1.586  25.594  0.00  0.00    -0.336 OA
ATOM     15  C   UNL     1      -0.385   1.406  24.892  0.00  0.00    +0.251 A 
ATOM     16  N   UNL     1      -0.864   2.049  24.696  0.00  0.00    -0.188 NA
ENDROOT
BRANCH  12   8
ATOM      6  C   UNL     1      -2.292   4.152  25.602  0.00  0.00    +0.142 A 
ATOM      7  C   UNL     1      -1.916   3.418  25.579  0.00  0.00    +0.059 A 
ATOM      8  C   UNL     1      -1.142   3.360  25.300  0.00  0.00    +0.123 A 
ATOM      9  N   UNL     1      -0.743   4.035  25.044  0.00  0.00    -0.240 NA
ATOM     10  C   UNL     1      -1.119   4.769  25.067  0.00  0.00    +0.102 A 
ATOM     11  C   UNL     1      -1.893   4.829  25.346  0.00  0.00    +0.058 A 
BRANCH   6   5
ATOM      5  O   UNL     1      -3.066   4.212  25.880  0.00  0.00    -0.473 OA
BRANCH   5   4
ATOM      4  C   UNL     1      -3.684   3.861  25.461  0.00  0.00    +0.237 C 
BRANCH   4   3
ATOM      3  C   UNL     1      -4.423   3.769  25.816  0.00  0.00    +0.189 C 
BRANCH   3   2
ATOM      1  C   UNL     1      -5.641   3.041  25.647  0.00  0.00    +0.174 C 
ATOM      2  O   UNL     1      -5.079   3.571  25.357  0.00  0.00    -0.347 OA
ENDBRANCH   3   2
ENDBRANCH   4   3
ENDBRANCH   5   4
ENDBRANCH   6   5
ENDBRANCH  12   8
BRANCH  15  17
ATOM     17  C   UNL     1      -0.313   0.707  24.461  0.00  0.00    +0.138 C 
ATOM     18  C   UNL     1       0.234   0.561  23.860  0.00  0.00    +0.027 C 
ATOM     19  C   UNL     1       0.110  -0.206  23.582  0.00  0.00    +0.019 C 
ATOM     20  C   UNL     1      -0.513  -0.534  24.011  0.00  0.00    +0.073 C 
ATOM     21  N   UNL     1      -0.775   0.029  24.554  0.00  0.00    -0.263 NA
BRANCH  21  22
ATOM     22  C   UNL     1      -1.390  -0.067  25.095  0.00  0.00    +0.103 C 
BRANCH  22  23
ATOM     23  C   UNL     1      -1.877  -0.731  25.051  0.00  0.00    +0.033 A 
ATOM     24  C   UNL     1      -2.695  -0.648  25.123  0.00  0.00    +0.196 A 
ATOM     25  O   UNL     1      -3.025   0.099  25.238  0.00  0.00    -0.287 OA
ATOM     26  C   UNL     1      -3.183  -1.312  25.079  0.00  0.00    +0.079 A 
ATOM     27  C   UNL     1      -2.853  -2.059  24.964  0.00  0.00    +0.142 A 
ATOM     30  C   UNL     1      -2.036  -2.143  24.892  0.00  0.00    +0.037 A 
ATOM     31  C   UNL     1      -1.548  -1.478  24.936  0.00  0.00    +0.003 A 
BRANCH  27  28
ATOM     28  O   UNL     1      -3.341  -2.723  24.920  0.00  0.00    -0.471 OA
ATOM     29  C   UNL     1      -3.719  -2.910  24.211  0.00  0.00    +0.252 C 
ENDBRANCH  27  28
ENDBRANCH  22  23
ENDBRANCH  21  22
ENDBRANCH  15  17
TORSDOF 9
ENDMDL
MODEL 2
REMARK VINA RESULT:     -10.1      1.699      3.644
REMARK  Name = 
REMARK  9 active torsions:
REMARK  status: ('A' for Active; 'I' for Inactive)
REMARK    1  A    between atoms: O_2  and  C_3
REMARK    2  A    between atoms: C_3  and  C_4
REMARK    3  A    between atoms: C_4  and  O_5
REMARK    4  A    between atoms: O_5  and  C_6
REMARK    5  A    between atoms: C_8  and  C_12
REMARK    6  A    between atoms: C_15  and  C_17
REMARK    7  A    between atoms: N_21  and  C_22
REMARK    8  A    between atoms: C_22  and  C_23
REMARK    9  A    between atoms: C_27  and  O_28
REMARK                            x       y       z     vdW  Elec       q    Type
REMARK                         _______ _______ _______ _____ _____    ______ ____
ROOT
ATOM     12  C   UNL     1      -3.125   3.498  24.749  0.00  0.00    +0.221 A 
ATOM     13  N   UNL     1      -3.616   3.694  24.115  0.00  0.00    -0.054 NA
ATOM     14  O   UNL     1      -4.294   3.225  24.162  0.00  0.00    -0.336 OA
ATOM     15  C   UNL     1      -4.222   2.740  24.826  0.00  0.00    +0.251 A 
ATOM     16  N   UNL     1      -3.500   2.909  25.188  0.00  0.00    -0.188 NA
ENDROOT
BRANCH  12   8
ATOM      6  C   UNL     1      -0.987   3.685  25.142  0.00  0.00    +0.142 A 
ATOM      7  C   UNL     1      -1.722   3.350  24.977  0.00  0.00    +0.059 A 
ATOM      8  C   UNL     1      -2.389   3.832  24.914  0.00  0.00    +0.123 A 
ATOM      9  N   UNL     1      -2.321   4.647  25.017  0.00  0.00    -0.240 NA
ATOM     10  C   UNL     1      -1.586   4.982  25.182  0.00  0.00    +0.102 A 
ATOM     11  C   UNL     1      -0.918   4.501  25.245  0.00  0.00    +0.058 A 
BRANCH   6   5
ATOM      5  O   UNL     1      -0.319   3.205  25.205  0.00  0.00    -0.473 OA
BRANCH   5   4
ATOM      4  C   UNL     1      -0.086   2.736  24.568  0.00  0.00    +0.237 C 
BRANCH   4   3
ATOM      3  C   UNL     1       0.419   2.095  24.690  0.00  0.00    +0.189 C 
BRANCH   3   2
ATOM      1  C   UNL     1       0.905   1.066  23.826  0.00  0.00    +0.174 C 
ATOM      2  O   UNL     1       0.925   1.848  24.088  0.00  0.00    -0.347 OA
ENDBRANCH   3   2
ENDBRANCH   4   3
ENDBRANCH   5   4
ENDBRANCH   6   5
ENDBRANCH  12   8
BRANCH  15  17
ATOM     17  C   UNL     1      -4.775   2.184  25.082  0.00  0.00    +0.138 C 
ATOM     18  C   UNL     1      -5.456   2.344  25.519  0.00  0.00    +0.027 C 
ATOM     19  C   UNL     1      -5.846   1.629  25.654  0.00  0.00    +0.019 C 
ATOM     20  C   UNL     1      -5.406   1.028  25.300  0.00  0.00    +0.073 C 
ATOM     21  N   UNL     1      -4.744   1.371  24.947  0.00  0.00    -0.263 NA
BRANCH  21  22
ATOM     22  C   UNL     1      -4.155   0.971  24.531  0.00  0.00    +0.103 C 
BRANCH  22  23
ATOM     23  C   UNL     1      -4.045   0.162  24.646  0.00  0.00    +0.033 A 
ATOM     24  C   UNL     1      -3.958  -0.340  23.997  0.00  0.00    +0.196 A 
ATOM     25  O   UNL     1      -3.979  -0.031  23.232  0.00  0.00    -0.287 OA
ATOM     26  C   UNL     1      -3.849  -1.149  24.112  0.00  0.00    +0.079 A 
ATOM     27  C   UNL     1      -3.827  -1.458  24.876  0.00  0.00    +0.142 A 
ATOM     30  C   UNL     1      -3.915  -0.957  25.526  0.00  0.00    +0.037 A 
ATOM     31  C   UNL     1      -4.024  -0.147  25.411  0.00  0.00    +0.003 A 
BRANCH  27  28
ATOM     28  O   UNL     1      -3.718  -2.268  24.992  0.00  0.00    -0.471 OA
ATOM     29  C   UNL     1      -2.955  -2.575  25.062  0.00  0.00    +0.252 C 
ENDBRANCH  27  28
ENDBRANCH  22  23
ENDBRANCH  21  22
ENDBRANCH  15  17
TORSDOF 9
ENDMDL
MODEL 3
REMARK VINA RESULT:      -9.8      1.945      5.802
REMARK  Name = 
REMARK  9 active torsions:
REMARK  status: ('A' for Active; 'I' for Inactive)
REMARK    1  A    between atoms: O_2  and  C_3
REMARK    2  A    between atoms: C_3  and  C_4
REMARK    3  A    between atoms: C_4  and  O_5
REMARK    4  A    between atoms: O_5  and  C_6
REMARK    5  A    between atoms: C_8  and  C_12
REMARK    6  A    between atoms: C_15  and  C_17
REMARK    7  A    between atoms: N_21  and  C_22
REMARK    8  A    between atoms: C_22  and  C_23
REMARK    9  A    between atoms: C_27  and  O_28
REMARK                            x       y       z     vdW  Elec       q    Type
REMARK                         _______ _______ _______ _____ _____    ______ ____
ROOT
ATOM     12  C   UNL     1      -4.104  -0.287  24.762  0.00  0.00    +0.221 A 
ATOM     13  N   UNL     1      -4.613  -0.173  24.122  0.00  0.00    -0.054 NA
ATOM     14  O   UNL     1      -5.010   0.542  24.237  0.00  0.00    -0.336 OA
ATOM     15  C   UNL     1      -4.745   0.869  24.947  0.00  0.00    +0.251 A 
ATOM     16  N   UNL     1      -4.185   0.357  25.271  0.00  0.00    -0.188 NA
ENDROOT
BRANCH  12   8
ATOM      6  C   UNL     1      -2.283  -1.462  25.017  0.00  0.00    +0.142 A 
ATOM      7  C   UNL     1      -2.785  -0.817  24.907  0.00  0.00    +0.059 A 
ATOM      8  C   UNL     1      -3.601  -0.932  24.872  0.00  0.00    +0.123 A 
ATOM      9  N   UNL     1      -3.915  -1.691  24.947  0.00  0.00    -0.240 NA
ATOM     10  C   UNL     1      -3.413  -2.336  25.058  0.00  0.00    +0.102 A 
ATOM     11  C   UNL     1      -2.597  -2.222  25.092  0.00  0.00    +0.058 A 
BRANCH   6   5
ATOM      5  O   UNL     1      -1.466  -1.349  25.052  0.00  0.00    -0.473 OA
BRANCH   5   4
ATOM      4  C   UNL     1      -1.041  -1.192  24.362  0.00  0.00    +0.237 C 
BRANCH   4   3
ATOM      3  C   UNL     1      -0.288  -0.858  24.409  0.00  0.00    +0.189 C 
BRANCH   3   2
ATOM      1  C   UNL     1       0.532  -0.113  23.507  0.00  0.00    +0.174 C 
ATOM      2  O   UNL     1       0.192  -0.828  23.739  0.00  0.00    -0.347 OA
ENDBRANCH   3   2
ENDBRANCH   4   3
ENDBRANCH   5   4
ENDBRANCH   6   5
ENDBRANCH  12   8
BRANCH  15  17
ATOM     17  C   UNL     1      -4.996   1.583  25.275  0.00  0.00    +0.138 C 
ATOM     18  C   UNL     1      -5.647   1.686  25.771  0.00  0.00    +0.027 C 
ATOM     19  C   UNL     1      -5.694   2.487  25.968  0.00  0.00    +0.019 C 
ATOM     20  C   UNL     1      -5.071   2.877  25.593  0.00  0.00    +0.073 C 
ATOM     21  N   UNL     1      -4.640   2.319  25.165  0.00  0.00    -0.263 NA
BRANCH  21  22
ATOM     22  C   UNL     1      -3.971   2.471  24.708  0.00  0.00    +0.103 C 
BRANCH  22  23
ATOM     23  C   UNL     1      -3.480   3.107  24.892  0.00  0.00    +0.033 A 
ATOM     24  C   UNL     1      -3.297   3.668  24.316  0.00  0.00    +0.196 A 
ATOM     25  O   UNL     1      -3.605   3.593  23.555  0.00  0.00    -0.287 OA
ATOM     26  C   UNL     1      -2.806   4.305  24.501  0.00  0.00    +0.079 A 
ATOM     27  C   UNL     1      -2.498   4.380  25.262  0.00  0.00    +0.142 A 
ATOM     30  C   UNL     1      -2.680   3.820  25.839  0.00  0.00    +0.037 A 
ATOM     31  C   UNL     1      -3.172   3.183  25.654  0.00  0.00    +0.003 A 
BRANCH  27  28
ATOM     28  O   UNL     1      -2.006   5.017  25.447  0.00  0.00    -0.471 OA
ATOM     29  C   UNL     1      -1.244   5.053  25.135  0.00  0.00    +0.252 C 
ENDBRANCH  27  28
ENDBRANCH  22  23
ENDBRANCH  21  22
ENDBRANCH  15  17
TORSDOF 9
ENDMDL
MODEL 4
REMARK VINA RESULT:      -9.8      1.033      4.751
REMARK  Name = 
REMARK  9 active torsions:
REMARK  status: ('A' for Active; 'I' for Inactive)
REMARK    1  A    between atoms: O_2  and  C_3
REMARK    2  A    between atoms: C_3  and  C_4
REMARK    3  A    between atoms: C_4  and  O_5
REMARK    4  A    between atoms: O_5  and  C_6
REMARK    5  A    between atoms: C_8  and  C_12
REMARK    6  A    between atoms: C_15  and  C_17
REMARK    7  A    between atoms: N_21  and  C_22
REMARK    8  A    between atoms: C_22  and  C_23
REMARK    9  A    between atoms: C_27  and  O_28
REMARK                            x       y       z     vdW  Elec       q    Type
REMARK                         _______ _______ _______ _____ _____    ______ ____
ROOT
ATOM     12  C   UNL     1      -0.351   1.546  24.873  0.00  0.00    +0.221 A 
ATOM     13  N   UNL     1      -0.138   1.721  25.651  0.00  0.00    -0.054 NA
ATOM     14  O   UNL     1      -0.409   2.481  25.824  0.00  0.00    -0.336 OA
ATOM     15  C   UNL     1      -0.789   2.776  25.154  0.00  0.00    +0.251 A 
ATOM     16  N   UNL     1      -0.753   2.197  24.566  0.00  0.00    -0.188 NA
ENDROOT
BRANCH  12   8
ATOM      6  C   UNL     1      -0.373  -0.567  24.326  0.00  0.00    +0.142 A 
ATOM      7  C   UNL     1      -0.534   0.137  24.726  0.00  0.00    +0.059 A 
ATOM      8  C   UNL     1      -0.191   0.843  24.473  0.00  0.00    +0.123 A 
ATOM      9  N   UNL     1       0.313   0.846  23.820  0.00  0.00    -0.240 NA
ATOM     10  C   UNL     1       0.474   0.143  23.420  0.00  0.00    +0.102 A 
ATOM     11  C   UNL     1       0.131  -0.564  23.673  0.00  0.00    +0.058 A 
BRANCH   6   5
ATOM      5  O   UNL     1      -0.716  -1.273  24.578  0.00  0.00    -0.473 OA
BRANCH   5   4
ATOM      4  C   UNL     1      -1.492  -1.455  24.364  0.00  0.00    +0.237 C 
BRANCH   4   3
ATOM      3  C   UNL     1      -1.854  -2.133  24.666  0.00  0.00    +0.189 C 
BRANCH   3   2
ATOM      1  C   UNL     1      -3.195  -2.622  24.737  0.00  0.00    +0.174 C 
ATOM      2  O   UNL     1      -2.522  -2.443  24.295  0.00  0.00    -0.347 OA
ENDBRANCH   3   2
ENDBRANCH   4   3
ENDBRANCH   5   4
ENDBRANCH   6   5
ENDBRANCH  12   8
BRANCH  15  17
ATOM     17  C   UNL     1      -1.143   3.517  25.083  0.00  0.00    +0.138 C 
ATOM     18  C   UNL     1      -0.765   4.245  25.173  0.00  0.00    +0.027 C 
ATOM     19  C   UNL     1      -1.325   4.840  25.056  0.00  0.00    +0.019 C 
ATOM     20  C   UNL     1      -2.049   4.480  24.893  0.00  0.00    +0.073 C 
ATOM     21  N   UNL     1      -1.936   3.662  24.910  0.00  0.00    -0.263 NA
BRANCH  21  22
ATOM     22  C   UNL     1      -2.516   3.090  24.777  0.00  0.00    +0.103 C 
BRANCH  22  23
ATOM     23  C   UNL     1      -3.301   3.244  24.978  0.00  0.00    +0.033 A 
ATOM     24  C   UNL     1      -3.905   3.075  24.441  0.00  0.00    +0.196 A 
ATOM     25  O   UNL     1      -3.722   2.752  23.704  0.00  0.00    -0.287 OA
ATOM     26  C   UNL     1      -4.689   3.228  24.642  0.00  0.00    +0.079 A 
ATOM     27  C   UNL     1      -4.872   3.551  25.379  0.00  0.00    +0.142 A 
ATOM     30  C   UNL     1      -4.268   3.720  25.916  0.00  0.00    +0.037 A 
ATOM     31  C   UNL     1      -3.483   3.567  25.715  0.00  0.00    +0.003 A 
BRANCH  27  28
ATOM     28  O   UNL     1      -5.657   3.705  25.580  0.00  0.00    -0.471 OA
ATOM     29  C   UNL     1      -6.147   3.089  25.826  0.00  0.00    +0.252 C 
ENDBRANCH  27  28
ENDBRANCH  22  23
ENDBRANCH  21  22
ENDBRANCH  15  17
TORSDOF 9
ENDMDL
MODEL 5
REMARK VINA RESULT:      -9.7      1.583      4.440
REMARK  Name = 
REMARK  9 active torsions:
REMARK  status: ('A' for Active; 'I' for Inactive)
REMARK    1  A    between atoms: O_2  and  C_3
REMARK    2  A    between atoms: C_3  and  C_4
REMARK    3  A    between atoms: C_4  and  O_5
REMARK    4  A    between atoms: O_5  and  C_6
REMARK    5  A    between atoms: C_8  and  C_12
REMARK    6  A    between atoms: C_15  and  C_17
REMARK    7  A    between atoms: N_21  and  C_22
REMARK    8  A    between atoms: C_22  and  C_23
REMARK    9  A    between atoms: C_27  and  O_28
REMARK                            x       y       z     vdW  Elec       q    Type
REMARK                         _______ _______ _______ _____ _____    ______ ____
ROOT
ATOM     12  C   UNL     1      -3.923   3.456  25.724  0.00  0.00    +0.221 A 
ATOM     13  N   UNL     1      -3.816   3.833  26.451  0.00  0.00    -0.054 NA
ATOM     14  O   UNL     1      -3.108   4.256  26.418  0.00  0.00    -0.336 OA
ATOM     15  C   UNL     1      -2.777   4.140  25.671  0.00  0.00    +0.251 A 
ATOM     16  N   UNL     1      -3.280   3.646  25.243  0.00  0.00    -0.188 NA
ENDROOT
BRANCH  12   8
ATOM      6  C   UNL     1      -5.062   1.780  24.916  0.00  0.00    +0.142 A 
ATOM      7  C   UNL     1      -4.425   2.261  25.123  0.00  0.00    +0.059 A 
ATOM      8  C   UNL     1      -4.559   2.975  25.516  0.00  0.00    +0.123 A 
ATOM      9  N   UNL     1      -5.328   3.206  25.701  0.00  0.00    -0.240 NA
ATOM     10  C   UNL     1      -5.965   2.724  25.494  0.00  0.00    +0.102 A 
ATOM     11  C   UNL     1      -5.833   2.011  25.101  0.00  0.00    +0.058 A 
BRANCH   6   5
ATOM      5  O   UNL     1      -4.929   1.067  24.523  0.00  0.00    -0.473 OA
BRANCH   5   4
ATOM      4  C   UNL     1      -4.586   0.432  24.923  0.00  0.00    +0.237 C 
BRANCH   4   3
ATOM      3  C   UNL     1      -4.385  -0.254  24.512  0.00  0.00    +0.189 C 
BRANCH   3   2
ATOM      1  C   UNL     1      -3.842  -1.576  24.505  0.00  0.00    +0.174 C 
ATOM      2  O   UNL     1      -4.087  -0.907  24.919  0.00  0.00    -0.347 OA
ENDBRANCH   3   2
ENDBRANCH   4   3
ENDBRANCH   5   4
ENDBRANCH   6   5
ENDBRANCH  12   8
BRANCH  15  17
ATOM     17  C   UNL     1      -2.067   4.461  25.400  0.00  0.00    +0.138 C 
ATOM     18  C   UNL     1      -1.965   5.220  25.092  0.00  0.00    +0.027 C 
ATOM     19  C   UNL     1      -1.170   5.309  24.891  0.00  0.00    +0.019 C 
ATOM     20  C   UNL     1      -0.781   4.605  25.075  0.00  0.00    +0.073 C 
ATOM     21  N   UNL     1      -1.335   4.081  25.390  0.00  0.00    -0.263 NA
BRANCH  21  22
ATOM     22  C   UNL     1      -1.184   3.313  25.648  0.00  0.00    +0.103 C 
BRANCH  22  23
ATOM     23  C   UNL     1      -0.657   2.834  25.233  0.00  0.00    +0.033 A 
ATOM     24  C   UNL     1      -0.103   2.378  25.642  0.00  0.00    +0.196 A 
ATOM     25  O   UNL     1      -0.078   2.402  26.466  0.00  0.00    -0.287 OA
ATOM     26  C   UNL     1       0.424   1.899  25.226  0.00  0.00    +0.079 A 
ATOM     27  C   UNL     1       0.398   1.875  24.402  0.00  0.00    +0.142 A 
ATOM     30  C   UNL     1      -0.155   2.330  23.993  0.00  0.00    +0.037 A 
ATOM     31  C   UNL     1      -0.683   2.810  24.409  0.00  0.00    +0.003 A 
BRANCH  27  28
ATOM     28  O   UNL     1       0.926   1.396  23.986  0.00  0.00    -0.471 OA
ATOM     29  C   UNL     1       0.650   0.727  23.590  0.00  0.00    +0.252 C 
ENDBRANCH  27  28
ENDBRANCH  22  23
ENDBRANCH  21  22
ENDBRANCH  15  17
TORSDOF 9
ENDMDL
MODEL 6
REMARK VINA RESULT:      -9.3      1.391      4.403
REMARK  Name = 
REMARK  9 active torsions:
REMARK  status: ('A' for Active; 'I' for Inactive)
REMARK    1  A    between atoms: O_2  and  C_3
REMARK    2  A    between atoms: C_3  and  C_4
REMARK    3  A    between atoms: C_4  and  O_5
REMARK    4  A    between atoms: O_5  and  C_6
REMARK    5  A    between atoms: C_8  and  C_12
REMARK    6  A    between atoms: C_15  and  C_17
REMARK    7  A    between atoms: N_21  and  C_22
REMARK    8  A    between atoms: C_22  and  C_23
REMARK    9  A    between atoms: C_27  and  O_28
REMARK                            x       y       z     vdW  Elec       q    Type
REMARK                         _______ _______ _______ _____ _____    ______ ____
ROOT
ATOM     12  C   UNL     1      -1.888  -0.716  24.672  0.00  0.00    +0.221 A 
ATOM     13  N   UNL     1      -1.325  -1.083  25.151  0.00  0.00    -0.054 NA
ATOM     14  O   UNL     1      -0.601  -0.707  25.028  0.00  0.00    -0.336 OA
ATOM     15  C   UNL     1      -0.716  -0.108  24.472  0.00  0.00    +0.251 A 
ATOM     16  N   UNL     1      -1.511  -0.114  24.252  0.00  0.00    -0.188 NA
ENDROOT
BRANCH  12   8
ATOM      6  C   UNL     1      -4.057  -0.612  24.885  0.00  0.00    +0.142 A 
ATOM      7  C   UNL     1      -3.259  -0.411  24.936  0.00  0.00    +0.059 A 
ATOM      8  C   UNL     1      -2.687  -0.916  24.621  0.00  0.00    +0.123 A 
ATOM      9  N   UNL     1      -2.912  -1.620  24.257  0.00  0.00    -0.240 NA
ATOM     10  C   UNL     1      -3.711  -1.821  24.207  0.00  0.00    +0.102 A 
ATOM     11  C   UNL     1      -4.284  -1.317  24.520  0.00  0.00    +0.058 A 
BRANCH   6   5
ATOM      5  O   UNL     1      -4.630  -0.108  25.199  0.00  0.00    -0.473 OA
BRANCH   5   4
ATOM      4  C   UNL     1      -4.737   0.645  24.880  0.00  0.00    +0.237 C 
BRANCH   4   3
ATOM      3  C   UNL     1      -5.259   1.174  25.239  0.00  0.00    +0.189 C 
BRANCH   3   2
ATOM      1  C   UNL     1      -5.588   2.564  25.279  0.00  0.00    +0.174 C 
ATOM      2  O   UNL     1      -5.473   1.869  24.850  0.00  0.00    -0.347 OA
ENDBRANCH   3   2
ENDBRANCH   4   3
ENDBRANCH   5   4
ENDBRANCH   6   5
ENDBRANCH  12   8
BRANCH  15  17
ATOM     17  C   UNL     1      -0.138   0.406  24.186  0.00  0.00    +0.138 C 
ATOM     18  C   UNL     1       0.385   0.252  23.567  0.00  0.00    +0.027 C 
ATOM     19  C   UNL     1       0.865   0.916  23.467  0.00  0.00    +0.019 C 
ATOM     20  C   UNL     1       0.639   1.480  24.025  0.00  0.00    +0.073 C 
ATOM     21  N   UNL     1       0.019   1.165  24.469  0.00  0.00    -0.263 NA
BRANCH  21  22
ATOM     22  C   UNL     1      -0.374   1.543  25.088  0.00  0.00    +0.103 C 
BRANCH  22  23
ATOM     23  C   UNL     1      -0.466   2.362  25.079  0.00  0.00    +0.033 A 
ATOM     24  C   UNL     1      -0.336   2.800  25.767  0.00  0.00    +0.196 A 
ATOM     25  O   UNL     1      -0.114   2.417  26.463  0.00  0.00    -0.287 OA
ATOM     26  C   UNL     1      -0.428   3.619  25.758  0.00  0.00    +0.079 A 
ATOM     27  C   UNL     1      -0.650   4.002  25.062  0.00  0.00    +0.142 A 
ATOM     30  C   UNL     1      -0.780   3.565  24.374  0.00  0.00    +0.037 A 
ATOM     31  C   UNL     1      -0.688   2.745  24.383  0.00  0.00    +0.003 A 
BRANCH  27  28
ATOM     28  O   UNL     1      -0.742   4.822  25.053  0.00  0.00    -0.471 OA
ATOM     29  C   UNL     1      -1.498   5.152  25.069  0.00  0.00    +0.252 C 
ENDBRANCH  27  28
ENDBRANCH  22  23
ENDBRANCH  21  22
ENDBRANCH  15  17
TORSDOF 9
ENDMDL
MODEL 7
REMARK VINA RESULT:      -9.1      1.919      3.496
REMARK  Name = 
REMARK  9 active torsions:
REMARK  status: ('A' for Active; 'I' for Inactive)
REMARK    1  A    between atoms: O_2  and  C_3
REMARK    2  A    between atoms: C_3  and  C_4
REMARK    3  A    between atoms: C_4  and  O_5
REMARK    4  A    between atoms: O_5  and  C_6
REMARK    5  A    between atoms: C_8  and  C_12
REMARK    6  A    between atoms: C_15  and  C_17
REMARK    7  A    between atoms: N_21  and  C_22
REMARK    8  A    between atoms: C_22  and  C_23
REMARK    9  A    between atoms: C_27  and  O_28
REMARK                            x       y       z     vdW  Elec       q    Type
REMARK                         _______ _______ _______ _____ _____    ______ ____
ROOT
ATOM     12  C   UNL     1      -4.674   1.319  25.244  0.00  0.00    +0.221 A 
ATOM     13  N   UNL     1      -4.978   0.846  25.848  0.00  0.00    -0.054 NA
ATOM     14  O   UNL     1      -4.792   0.061  25.675  0.00  0.00    -0.336 OA
ATOM     15  C   UNL     1      -4.373   0.049  24.964  0.00  0.00    +0.251 A 
ATOM     16  N   UNL     1      -4.300   0.827  24.698  0.00  0.00    -0.188 NA
ENDROOT
BRANCH  12   8
ATOM      6  C   UNL     1      -4.146   3.408  24.895  0.00  0.00    +0.142 A 
ATOM      7  C   UNL     1      -4.087   2.586  24.944  0.00  0.00    +0.059 A 
ATOM      8  C   UNL     1      -4.734   2.141  25.195  0.00  0.00    +0.123 A 
ATOM      9  N   UNL     1      -5.440   2.515  25.398  0.00  0.00    -0.240 NA
ATOM     10  C   UNL     1      -5.499   3.337  25.349  0.00  0.00    +0.102 A 
ATOM     11  C   UNL     1      -4.853   3.783  25.098  0.00  0.00    +0.058 A 
BRANCH   6   5
ATOM      5  O   UNL     1      -3.500   3.855  24.644  0.00  0.00    -0.473 OA
BRANCH   5   4
ATOM      4  C   UNL     1      -2.911   4.067  25.180  0.00  0.00    +0.237 C 
BRANCH   4   3
ATOM      3  C   UNL     1      -2.163   4.282  24.907  0.00  0.00    +0.189 C 
BRANCH   3   2
ATOM      1  C   UNL     1      -0.976   5.067  25.041  0.00  0.00    +0.174 C 
ATOM      2  O   UNL     1      -1.737   4.874  25.293  0.00  0.00    -0.347 OA
ENDBRANCH   3   2
ENDBRANCH   4   3
ENDBRANCH   5   4
ENDBRANCH   6   5
ENDBRANCH  12   8
BRANCH  15  17
ATOM     17  C   UNL     1      -4.078  -0.622  24.586  0.00  0.00    +0.138 C 
ATOM     18  C   UNL     1      -4.495  -1.107  24.064  0.00  0.00    +0.027 C 
ATOM     19  C   UNL     1      -3.989  -1.711  23.818  0.00  0.00    +0.019 C 
ATOM     20  C   UNL     1      -3.261  -1.600  24.188  0.00  0.00    +0.073 C 
ATOM     21  N   UNL     1      -3.316  -0.927  24.663  0.00  0.00    -0.263 NA
BRANCH  21  22
ATOM     22  C   UNL     1      -2.713  -0.614  25.131  0.00  0.00    +0.103 C 
BRANCH  22  23
ATOM     23  C   UNL     1      -1.931  -0.647  24.874  0.00  0.00    +0.033 A 
ATOM     24  C   UNL     1      -1.331  -0.857  25.401  0.00  0.00    +0.196 A 
ATOM     25  O   UNL     1      -1.516  -1.033  26.186  0.00  0.00    -0.287 OA
ATOM     26  C   UNL     1      -0.549  -0.890  25.144  0.00  0.00    +0.079 A 
ATOM     27  C   UNL     1      -0.364  -0.713  24.360  0.00  0.00    +0.142 A 
ATOM     30  C   UNL     1      -0.963  -0.504  23.832  0.00  0.00    +0.037 A 
ATOM     31  C   UNL     1      -1.746  -0.471  24.090  0.00  0.00    +0.003 A 
BRANCH  27  28
ATOM     28  O   UNL     1       0.419  -0.746  24.102  0.00  0.00    -0.471 OA
ATOM     29  C   UNL     1       0.657  -0.303  23.448  0.00  0.00    +0.252 C 
ENDBRANCH  27  28
ENDBRANCH  22  23
ENDBRANCH  21  22
ENDBRANCH  15  17
TORSDOF 9
ENDMDL
MODEL 8
REMARK VINA RESULT:      -9.1      2.081      5.371
REMARK  Name = 
REMARK  9 active torsions:
REMARK  status: ('A' for Active; 'I' for Inactive)
REMARK    1  A    between atoms: O_2  and  C_3
REMARK    2  A    between atoms: C_3  and  C_4
REMARK    3  A    between atoms: C_4  and  O_5
REMARK    4  A    between atoms: O_5  and  C_6
REMARK    5  A    between atoms: C_8  and  C_12
REMARK    6  A    between atoms: C_15  and  C_17
REMARK    7  A    between atoms: N_21  and  C_22
REMARK    8  A    between atoms: C_22  and  C_23
REMARK    9  A    between atoms: C_27  and  O_28
REMARK                            x       y       z     vdW  Elec       q    Type
REMARK                         _______ _______ _______ _____ _____    ______ ____
ROOT
ATOM     12  C   UNL     1      -0.080   1.576  24.589  0.00  0.00    +0.221 A 
ATOM     13  N   UNL     1      -0.008   1.616  25.411  0.00  0.00    -0.054 NA
ATOM     14  O   UNL     1      -0.358   2.319  25.663  0.00  0.00    -0.336 OA
ATOM     15  C   UNL     1      -0.647   2.713  24.998  0.00  0.00    +0.251 A 
ATOM     16  N   UNL     1      -0.475   2.253  24.335  0.00  0.00    -0.188 NA
ENDROOT
BRANCH  12   8
ATOM      6  C   UNL     1       1.150   0.461  23.172  0.00  0.00    +0.142 A 
ATOM      7  C   UNL     1       0.875   1.072  23.654  0.00  0.00    +0.059 A 
ATOM      8  C   UNL     1       0.195   0.965  24.108  0.00  0.00    +0.123 A 
ATOM      9  N   UNL     1      -0.211   0.247  24.081  0.00  0.00    -0.240 NA
ATOM     10  C   UNL     1       0.064  -0.364  23.599  0.00  0.00    +0.102 A 
ATOM     11  C   UNL     1       0.744  -0.257  23.145  0.00  0.00    +0.058 A 
BRANCH   6   5
ATOM      5  O   UNL     1       1.830   0.567  22.718  0.00  0.00    -0.473 OA
BRANCH   5   4
ATOM      4  C   UNL     1       2.574   0.458  23.057  0.00  0.00    +0.237 C 
BRANCH   4   3
ATOM      3  C   UNL     1       3.252   0.506  22.587  0.00  0.00    +0.189 C 
BRANCH   3   2
ATOM      1  C   UNL     1       4.634   0.484  22.951  0.00  0.00    +0.174 C 
ATOM      2  O   UNL     1       3.922   0.894  22.870  0.00  0.00    -0.347 OA
ENDBRANCH   3   2
ENDBRANCH   4   3
ENDBRANCH   5   4
ENDBRANCH   6   5
ENDBRANCH  12   8
BRANCH  15  17
ATOM     17  C   UNL     1      -1.039   3.438  24.997  0.00  0.00    +0.138 C 
ATOM     18  C   UNL     1      -0.687   4.180  25.082  0.00  0.00    +0.027 C 
ATOM     19  C   UNL     1      -1.283   4.750  25.048  0.00  0.00    +0.019 C 
ATOM     20  C   UNL     1      -2.002   4.362  24.941  0.00  0.00    +0.073 C 
ATOM     21  N   UNL     1      -1.852   3.551  24.910  0.00  0.00    -0.263 NA
BRANCH  21  22
ATOM     22  C   UNL     1      -2.416   2.957  24.809  0.00  0.00    +0.103 C 
BRANCH  22  23
ATOM     23  C   UNL     1      -3.207   3.104  24.990  0.00  0.00    +0.033 A 
ATOM     24  C   UNL     1      -3.802   2.837  24.485  0.00  0.00    +0.196 A 
ATOM     25  O   UNL     1      -3.605   2.424  23.799  0.00  0.00    -0.287 OA
ATOM     26  C   UNL     1      -4.593   2.983  24.666  0.00  0.00    +0.079 A 
ATOM     27  C   UNL     1      -4.790   3.397  25.352  0.00  0.00    +0.142 A 
ATOM     30  C   UNL     1      -4.195   3.664  25.858  0.00  0.00    +0.037 A 
ATOM     31  C   UNL     1      -3.403   3.517  25.676  0.00  0.00    +0.003 A 
BRANCH  27  28
ATOM     28  O   UNL     1      -5.581   3.544  25.533  0.00  0.00    -0.471 OA
ATOM     29  C   UNL     1      -6.063   2.930  25.801  0.00  0.00    +0.252 C 
ENDBRANCH  27  28
ENDBRANCH  22  23
ENDBRANCH  21  22
ENDBRANCH  15  17
TORSDOF 9
ENDMDL
MODEL 9
REMARK VINA RESULT:      -6.7     16.242     18.441
REMARK  Name = 
REMARK  9 active torsions:
REMARK  status: ('A' for Active; 'I' for Inactive)
REMARK    1  A    between atoms: O_2  and  C_3
REMARK    2  A    between atoms: C_3  and  C_4
REMARK    3  A    between atoms: C_4  and  O_5
REMARK    4  A    between atoms: O_5  and  C_6
REMARK    5  A    between atoms: C_8  and  C_12
REMARK    6  A    between atoms: C_15  and  C_17
REMARK    7  A    between atoms: N_21  and  C_22
REMARK    8  A    between atoms: C_22  and  C_23
REMARK    9  A    between atoms: C_27  and  O_28
REMARK                            x       y       z     vdW  Elec       q    Type
REMARK                         _______ _______ _______ _____ _____    ______ ____
ROOT
ATOM     12  C   UNL     1      14.883   8.207  21.552  0.00  0.00    +0.221 A 
ATOM     13  N   UNL     1      14.496   8.842  21.911  0.00  0.00    -0.054 NA
ATOM     14  O   UNL     1      13.684   8.700  21.872  0.00  0.00    -0.336 OA
ATOM     15  C   UNL     1      13.570   7.978  21.489  0.00  0.00    +0.251 A 
ATOM     16  N   UNL     1      14.311   7.674  21.291  0.00  0.00    -0.188 NA
ENDROOT
BRANCH  12   8
ATOM      6  C   UNL     1      16.825   7.367  21.016  0.00  0.00    +0.142 A 
ATOM      7  C   UNL     1      16.009   7.452  21.099  0.00  0.00    +0.059 A 
ATOM      8  C   UNL     1      15.700   8.122  21.469  0.00  0.00    +0.123 A 
ATOM      9  N   UNL     1      16.206   8.706  21.755  0.00  0.00    -0.240 NA
ATOM     10  C   UNL     1      17.023   8.621  21.672  0.00  0.00    +0.102 A 
ATOM     11  C   UNL     1      17.332   7.952  21.303  0.00  0.00    +0.058 A 
BRANCH   6   5
ATOM      5  O   UNL     1      17.135   6.698  20.647  0.00  0.00    -0.473 OA
BRANCH   5   4
ATOM      4  C   UNL     1      17.058   6.603  19.831  0.00  0.00    +0.237 C 
BRANCH   4   3
ATOM      3  C   UNL     1      17.405   5.955  19.457  0.00  0.00    +0.189 C 
BRANCH   3   2
ATOM      1  C   UNL     1      17.269   5.564  18.089  0.00  0.00    +0.174 C 
ATOM      2  O   UNL     1      16.994   5.551  18.867  0.00  0.00    -0.347 OA
ENDBRANCH   3   2
ENDBRANCH   4   3
ENDBRANCH   5   4
ENDBRANCH   6   5
ENDBRANCH  12   8
BRANCH  15  17
ATOM     17  C   UNL     1      12.842   7.623  21.330  0.00  0.00    +0.138 C 
ATOM     18  C   UNL     1      12.389   7.187  21.865  0.00  0.00    +0.027 C 
ATOM     19  C   UNL     1      11.707   6.935  21.475  0.00  0.00    +0.019 C 
ATOM     20  C   UNL     1      11.738   7.216  20.700  0.00  0.00    +0.073 C 
ATOM     21  N   UNL     1      12.440   7.641  20.610  0.00  0.00    -0.263 NA
BRANCH  21  22
ATOM     22  C   UNL     1      12.694   8.018  19.922  0.00  0.00    +0.103 C 
BRANCH  22  23
ATOM     23  C   UNL     1      12.161   8.162  19.310  0.00  0.00    +0.033 A 
ATOM     24  C   UNL     1      12.343   7.926  18.540  0.00  0.00    +0.196 A 
ATOM     25  O   UNL     1      13.058   7.546  18.384  0.00  0.00    -0.287 OA
ATOM     26  C   UNL     1      11.810   8.070  17.928  0.00  0.00    +0.079 A 
ATOM     27  C   UNL     1      11.095   8.449  18.083  0.00  0.00    +0.142 A 
ATOM     30  C   UNL     1      10.912   8.686  18.852  0.00  0.00    +0.037 A 
ATOM     31  C   UNL     1      11.446   8.542  19.466  0.00  0.00    +0.003 A 
BRANCH  27  28
ATOM     28  O   UNL     1      10.561   8.593  17.470  0.00  0.00    -0.471 OA
ATOM     29  C   UNL     1      10.819   8.570  16.687  0.00  0.00    +0.252 C 
ENDBRANCH  27  28
ENDBRANCH  22  23
ENDBRANCH  21  22
ENDBRANCH  15  17
TORSDOF 9
ENDMDL
MODEL 10
REMARK VINA RESULT:      -6.4     15.542     17.676
REMARK  Name = 
REMARK  9 active torsions:
REMARK  status: ('A' for Active; 'I' for Inactive)
REMARK    1  A    between atoms: O_2  and  C_3
REMARK    2  A    between atoms: C_3  and  C_4
REMARK    3  A    between atoms: C_4  and  O_5
REMARK    4  A    between atoms: O_5  and  C_6
REMARK    5  A    between atoms: C_8  and  C_12
REMARK    6  A    between atoms: C_15  and  C_17
REMARK    7  A    between atoms: N_21  and  C_22
REMARK    8  A    between atoms: C_22  and  C_23
REMARK    9  A    between atoms: C_27  and  O_28
REMARK                            x       y       z     vdW  Elec       q    Type
REMARK                         _______ _______ _______ _____ _____    ______ ____
ROOT
ATOM     12  C   UNL     1      11.893   8.432  19.743  0.00  0.00    +0.221 A 
ATOM     13  N   UNL     1      11.732   9.039  19.208  0.00  0.00    -0.054 NA
ATOM     14  O   UNL     1      12.270   8.979  18.585  0.00  0.00    -0.336 OA
ATOM     15  C   UNL     1      12.763   8.335  18.734  0.00  0.00    +0.251 A 
ATOM     16  N   UNL     1      12.530   7.997  19.450  0.00  0.00    -0.188 NA
ENDROOT
BRANCH  12   8
ATOM      6  C   UNL     1      11.140   7.400  21.512  0.00  0.00    +0.142 A 
ATOM      7  C   UNL     1      11.545   7.546  20.808  0.00  0.00    +0.059 A 
ATOM      8  C   UNL     1      11.488   8.285  20.447  0.00  0.00    +0.123 A 
ATOM      9  N   UNL     1      11.028   8.878  20.788  0.00  0.00    -0.240 NA
ATOM     10  C   UNL     1      10.623   8.731  21.491  0.00  0.00    +0.102 A 
ATOM     11  C   UNL     1      10.678   7.993  21.854  0.00  0.00    +0.058 A 
BRANCH   6   5
ATOM      5  O   UNL     1      11.196   6.661  21.875  0.00  0.00    -0.473 OA
BRANCH   5   4
ATOM      4  C   UNL     1      10.748   6.028  21.594  0.00  0.00    +0.237 C 
BRANCH   4   3
ATOM      3  C   UNL     1      11.061   5.264  21.604  0.00  0.00    +0.189 C 
BRANCH   3   2
ATOM      1  C   UNL     1      10.593   3.999  21.133  0.00  0.00    +0.174 C 
ATOM      2  O   UNL     1      10.560   4.614  21.682  0.00  0.00    -0.347 OA
ENDBRANCH   3   2
ENDBRANCH   4   3
ENDBRANCH   5   4
ENDBRANCH   6   5
ENDBRANCH  12   8
BRANCH  15  17
ATOM     17  C   UNL     1      13.381   8.075  18.254  0.00  0.00    +0.138 C 
ATOM     18  C   UNL     1      13.317   7.853  17.461  0.00  0.00    +0.027 C 
ATOM     19  C   UNL     1      14.068   7.631  17.198  0.00  0.00    +0.019 C 
ATOM     20  C   UNL     1      14.594   7.716  17.827  0.00  0.00    +0.073 C 
ATOM     21  N   UNL     1      14.169   7.990  18.480  0.00  0.00    -0.263 NA
BRANCH  21  22
ATOM     22  C   UNL     1      14.479   8.151  19.227  0.00  0.00    +0.103 C 
BRANCH  22  23
ATOM     23  C   UNL     1      15.198   7.819  19.456  0.00  0.00    +0.033 A 
ATOM     24  C   UNL     1      15.773   8.288  19.818  0.00  0.00    +0.196 A 
ATOM     25  O   UNL     1      15.628   9.089  19.951  0.00  0.00    -0.287 OA
ATOM     26  C   UNL     1      16.492   7.956  20.047  0.00  0.00    +0.079 A 
ATOM     27  C   UNL     1      16.638   7.155  19.914  0.00  0.00    +0.142 A 
ATOM     30  C   UNL     1      16.064   6.685  19.552  0.00  0.00    +0.037 A 
ATOM     31  C   UNL     1      15.344   7.018  19.323  0.00  0.00    +0.003 A 
BRANCH  27  28
ATOM     28  O   UNL     1      17.358   6.822  20.143  0.00  0.00    -0.471 OA
ATOM     29  C   UNL     1      17.404   6.380  20.838  0.00  0.00    +0.252 C 
ENDBRANCH  27  28
ENDBRANCH  22  23
ENDBRANCH  21  22
ENDBRANCH  15  17
TORSDOF 9
ENDMDL
