MODEL 1
REMARK VINA RESULT:     -10.4      0.000      0.000
REMARK  Name = 
REMARK  8 active torsions:
REMARK  status: ('A' for Active; 'I' for Inactive)
REMARK    1  A    between atoms: O_2  and  C_3
REMARK    2  A    between atoms: C_3  and  C_4
REMARK    3  A    between atoms: C_4  and  O_5
REMARK    4  A    between atoms: O_5  and  C_6
REMARK    5  A    between atoms: C_9  and  C_12
REMARK    6  A    between atoms: C_15  and  C_17
REMARK    7  A    between atoms: N_21  and  C_22
REMARK    8  A    between atoms: C_22  and  C_23
REMARK                            x       y       z     vdW  Elec       q    Type
REMARK                         _______ _______ _______ _____ _____    ______ ____
ROOT
ATOM     12  C   UNL     1      -0.924  -0.122  24.450  0.00  0.00    +0.205 A 
ATOM     13  N   UNL     1      -0.972  -0.102  25.274  0.00  0.00    -0.056 NA
ATOM     14  O   UNL     1      -1.759  -0.236  25.486  0.00  0.00    -0.336 OA
ATOM     15  C   UNL     1      -2.195  -0.337  24.794  0.00  0.00    +0.251 A 
ATOM     16  N   UNL     1      -1.680  -0.267  24.153  0.00  0.00    -0.190 NA
ENDROOT
BRANCH  12   9
ATOM      6  C   UNL     1       1.130   0.199  23.108  0.00  0.00    +0.225 A 
ATOM      7  C   UNL     1       0.724   0.853  23.402  0.00  0.00    +0.058 A 
ATOM      8  C   UNL     1       0.039   0.747  23.849  0.00  0.00    +0.010 A 
ATOM      9  C   UNL     1      -0.239  -0.014  24.003  0.00  0.00    +0.058 A 
ATOM     10  C   UNL     1       0.168  -0.669  23.709  0.00  0.00    +0.105 A 
ATOM     11  N   UNL     1       0.852  -0.562  23.261  0.00  0.00    -0.210 NA
BRANCH   6   5
ATOM      5  O   UNL     1       1.815   0.305  22.660  0.00  0.00    -0.457 OA
BRANCH   5   4
ATOM      4  C   UNL     1       2.533   0.462  23.035  0.00  0.00    +0.239 C 
BRANCH   4   3
ATOM      3  C   UNL     1       3.233   0.472  22.598  0.00  0.00    +0.189 C 
BRANCH   3   2
ATOM      1  C   UNL     1       4.614   0.506  22.965  0.00  0.00    +0.174 C 
ATOM      2  O   UNL     1       3.888   0.889  22.878  0.00  0.00    -0.347 OA
ENDBRANCH   3   2
ENDBRANCH   4   3
ENDBRANCH   5   4
ENDBRANCH   6   5
ENDBRANCH  12   9
BRANCH  15  17
ATOM     17  C   UNL     1      -3.006  -0.483  24.749  0.00  0.00    +0.138 C 
ATOM     18  C   UNL     1      -3.367  -1.226  24.767  0.00  0.00    +0.027 C 
ATOM     19  C   UNL     1      -4.182  -1.115  24.707  0.00  0.00    +0.019 C 
ATOM     20  C   UNL     1      -4.326  -0.304  24.652  0.00  0.00    +0.073 C 
ATOM     21  N   UNL     1      -3.599   0.086  24.678  0.00  0.00    -0.263 NA
BRANCH  21  22
ATOM     22  C   UNL     1      -3.485   0.902  24.639  0.00  0.00    +0.101 C 
BRANCH  22  23
ATOM     23  C   UNL     1      -4.098   1.414  24.845  0.00  0.00    +0.012 A 
ATOM     24  C   UNL     1      -4.867   1.193  25.051  0.00  0.00    +0.073 A 
ATOM     25  N   UNL     1      -5.294   1.879  25.214  0.00  0.00    -0.324 N 
ATOM     26  C   UNL     1      -6.086   1.914  25.442  0.00  0.00    +0.130 C 
ATOM     27  C   UNL     1      -4.791   2.524  25.109  0.00  0.00    +0.060 A 
ATOM     28  C   UNL     1      -4.052   2.236  24.881  0.00  0.00    +0.015 A 
ATOM     29  C   UNL     1      -3.432   2.761  24.736  0.00  0.00    +0.001 A 
ATOM     30  C   UNL     1      -3.551   3.573  24.819  0.00  0.00    +0.000 A 
ATOM     31  C   UNL     1      -4.290   3.860  25.047  0.00  0.00    +0.001 A 
ATOM     32  C   UNL     1      -4.910   3.336  25.192  0.00  0.00    +0.017 A 
ENDBRANCH  22  23
ENDBRANCH  21  22
ENDBRANCH  15  17
TORSDOF 8
ENDMDL
MODEL 2
REMARK VINA RESULT:      -9.2      1.492      2.641
REMARK  Name = 
REMARK  8 active torsions:
REMARK  status: ('A' for Active; 'I' for Inactive)
REMARK    1  A    between atoms: O_2  and  C_3
REMARK    2  A    between atoms: C_3  and  C_4
REMARK    3  A    between atoms: C_4  and  O_5
REMARK    4  A    between atoms: O_5  and  C_6
REMARK    5  A    between atoms: C_9  and  C_12
REMARK    6  A    between atoms: C_15  and  C_17
REMARK    7  A    between atoms: N_21  and  C_22
REMARK    8  A    between atoms: C_22  and  C_23
REMARK                            x       y       z     vdW  Elec       q    Type
REMARK                         _______ _______ _______ _____ _____    ______ ____
ROOT
ATOM     12  C   UNL     1      -0.466   1.983  24.852  0.00  0.00    +0.205 A 
ATOM     13  N   UNL     1      -0.674   1.791  25.627  0.00  0.00    -0.056 NA
ATOM     14  O   UNL     1      -1.213   2.356  25.894  0.00  0.00    -0.336 OA
ATOM     15  C   UNL     1      -1.337   2.897  25.284  0.00  0.00    +0.251 A 
ATOM     16  N   UNL     1      -0.876   2.667  24.640  0.00  0.00    -0.190 NA
ENDROOT
BRANCH  12   9
ATOM      6  C   UNL     1       1.112   0.728  23.418  0.00  0.00    +0.225 A 
ATOM      7  C   UNL     1       0.347   0.444  23.536  0.00  0.00    +0.058 A 
ATOM      8  C   UNL     1      -0.179   0.862  24.014  0.00  0.00    +0.010 A 
ATOM      9  C   UNL     1       0.060   1.565  24.374  0.00  0.00    +0.058 A 
ATOM     10  C   UNL     1       0.825   1.849  24.256  0.00  0.00    +0.105 A 
ATOM     11  N   UNL     1       1.351   1.430  23.777  0.00  0.00    -0.210 NA
BRANCH   6   5
ATOM      5  O   UNL     1       1.639   0.310  22.939  0.00  0.00    -0.457 OA
BRANCH   5   4
ATOM      4  C   UNL     1       2.433   0.529  22.910  0.00  0.00    +0.239 C 
BRANCH   4   3
ATOM      3  C   UNL     1       2.965   0.095  22.452  0.00  0.00    +0.189 C 
BRANCH   3   2
ATOM      1  C   UNL     1       4.365   0.286  22.663  0.00  0.00    +0.174 C 
ATOM      2  O   UNL     1       3.683   0.431  22.223  0.00  0.00    -0.347 OA
ENDBRANCH   3   2
ENDBRANCH   4   3
ENDBRANCH   5   4
ENDBRANCH   6   5
ENDBRANCH  12   9
BRANCH  15  17
ATOM     17  C   UNL     1      -1.836   3.554  25.313  0.00  0.00    +0.138 C 
ATOM     18  C   UNL     1      -1.610   4.327  25.496  0.00  0.00    +0.027 C 
ATOM     19  C   UNL     1      -2.282   4.804  25.460  0.00  0.00    +0.019 C 
ATOM     20  C   UNL     1      -2.923   4.326  25.253  0.00  0.00    +0.073 C 
ATOM     21  N   UNL     1      -2.647   3.555  25.163  0.00  0.00    -0.263 NA
BRANCH  21  22
ATOM     22  C   UNL     1      -3.102   2.898  24.958  0.00  0.00    +0.101 C 
BRANCH  22  23
ATOM     23  C   UNL     1      -3.915   2.901  25.095  0.00  0.00    +0.012 A 
ATOM     24  C   UNL     1      -4.367   3.553  25.323  0.00  0.00    +0.073 A 
ATOM     25  N   UNL     1      -5.150   3.308  25.398  0.00  0.00    -0.324 N 
ATOM     26  C   UNL     1      -5.789   3.783  25.616  0.00  0.00    +0.130 C 
ATOM     27  C   UNL     1      -5.184   2.504  25.216  0.00  0.00    +0.060 A 
ATOM     28  C   UNL     1      -4.421   2.253  25.029  0.00  0.00    +0.015 A 
ATOM     29  C   UNL     1      -4.286   1.466  24.822  0.00  0.00    +0.001 A 
ATOM     30  C   UNL     1      -4.912   0.930  24.803  0.00  0.00    +0.000 A 
ATOM     31  C   UNL     1      -5.675   1.182  24.990  0.00  0.00    +0.001 A 
ATOM     32  C   UNL     1      -5.812   1.969  25.196  0.00  0.00    +0.017 A 
ENDBRANCH  22  23
ENDBRANCH  21  22
ENDBRANCH  15  17
TORSDOF 8
ENDMDL
MODEL 3
REMARK VINA RESULT:      -8.9      2.278      3.830
REMARK  Name = 
REMARK  8 active torsions:
REMARK  status: ('A' for Active; 'I' for Inactive)
REMARK    1  A    between atoms: O_2  and  C_3
REMARK    2  A    between atoms: C_3  and  C_4
REMARK    3  A    between atoms: C_4  and  O_5
REMARK    4  A    between atoms: O_5  and  C_6
REMARK    5  A    between atoms: C_9  and  C_12
REMARK    6  A    between atoms: C_15  and  C_17
REMARK    7  A    between atoms: N_21  and  C_22
REMARK    8  A    between atoms: C_22  and  C_23
REMARK                            x       y       z     vdW  Elec       q    Type
REMARK                         _______ _______ _______ _____ _____    ______ ____
ROOT
ATOM     12  C   UNL     1      -0.865   1.470  25.447  0.00  0.00    +0.205 A 
ATOM     13  N   UNL     1      -0.285   1.861  25.884  0.00  0.00    -0.056 NA
ATOM     14  O   UNL     1      -0.471   2.665  25.894  0.00  0.00    -0.336 OA
ATOM     15  C   UNL     1      -1.166   2.770  25.461  0.00  0.00    +0.251 A 
ATOM     16  N   UNL     1      -1.410   2.032  25.185  0.00  0.00    -0.190 NA
ENDROOT
BRANCH  12   9
ATOM      6  C   UNL     1      -0.953  -0.962  24.997  0.00  0.00    +0.225 A 
ATOM      7  C   UNL     1      -1.262  -0.661  25.700  0.00  0.00    +0.058 A 
ATOM      8  C   UNL     1      -1.233   0.149  25.850  0.00  0.00    +0.010 A 
ATOM      9  C   UNL     1      -0.894   0.659  25.297  0.00  0.00    +0.058 A 
ATOM     10  C   UNL     1      -0.585   0.359  24.593  0.00  0.00    +0.105 A 
ATOM     11  N   UNL     1      -0.614  -0.452  24.444  0.00  0.00    -0.210 NA
BRANCH   6   5
ATOM      5  O   UNL     1      -0.982  -1.773  24.847  0.00  0.00    -0.457 OA
BRANCH   5   4
ATOM      4  C   UNL     1      -1.572  -2.082  24.362  0.00  0.00    +0.239 C 
BRANCH   4   3
ATOM      3  C   UNL     1      -1.944  -2.790  24.564  0.00  0.00    +0.189 C 
BRANCH   3   2
ATOM      1  C   UNL     1      -3.320  -3.150  24.418  0.00  0.00    +0.174 C 
ATOM      2  O   UNL     1      -2.562  -3.080  24.099  0.00  0.00    -0.347 OA
ENDBRANCH   3   2
ENDBRANCH   4   3
ENDBRANCH   5   4
ENDBRANCH   6   5
ENDBRANCH  12   9
BRANCH  15  17
ATOM     17  C   UNL     1      -1.551   3.488  25.329  0.00  0.00    +0.138 C 
ATOM     18  C   UNL     1      -1.197   4.234  25.324  0.00  0.00    +0.027 C 
ATOM     19  C   UNL     1      -1.784   4.793  25.169  0.00  0.00    +0.019 C 
ATOM     20  C   UNL     1      -2.500   4.393  25.079  0.00  0.00    +0.073 C 
ATOM     21  N   UNL     1      -2.356   3.587  25.177  0.00  0.00    -0.263 NA
BRANCH  21  22
ATOM     22  C   UNL     1      -2.918   2.985  25.132  0.00  0.00    +0.101 C 
BRANCH  22  23
ATOM     23  C   UNL     1      -3.717   3.158  25.239  0.00  0.00    +0.012 A 
ATOM     24  C   UNL     1      -4.029   3.887  25.468  0.00  0.00    +0.073 A 
ATOM     25  N   UNL     1      -4.849   3.812  25.507  0.00  0.00    -0.324 N 
ATOM     26  C   UNL     1      -5.381   4.408  25.714  0.00  0.00    +0.130 C 
ATOM     27  C   UNL     1      -5.044   3.038  25.302  0.00  0.00    +0.060 A 
ATOM     28  C   UNL     1      -4.345   2.634  25.137  0.00  0.00    +0.015 A 
ATOM     29  C   UNL     1      -4.371   1.839  24.914  0.00  0.00    +0.001 A 
ATOM     30  C   UNL     1      -5.095   1.450  24.857  0.00  0.00    +0.000 A 
ATOM     31  C   UNL     1      -5.795   1.854  25.022  0.00  0.00    +0.001 A 
ATOM     32  C   UNL     1      -5.770   2.648  25.245  0.00  0.00    +0.017 A 
ENDBRANCH  22  23
ENDBRANCH  21  22
ENDBRANCH  15  17
TORSDOF 8
ENDMDL
MODEL 4
REMARK VINA RESULT:      -8.7      1.228      2.925
REMARK  Name = 
REMARK  8 active torsions:
REMARK  status: ('A' for Active; 'I' for Inactive)
REMARK    1  A    between atoms: O_2  and  C_3
REMARK    2  A    between atoms: C_3  and  C_4
REMARK    3  A    between atoms: C_4  and  O_5
REMARK    4  A    between atoms: O_5  and  C_6
REMARK    5  A    between atoms: C_9  and  C_12
REMARK    6  A    between atoms: C_15  and  C_17
REMARK    7  A    between atoms: N_21  and  C_22
REMARK    8  A    between atoms: C_22  and  C_23
REMARK                            x       y       z     vdW  Elec       q    Type
REMARK                         _______ _______ _______ _____ _____    ______ ____
ROOT
ATOM     12  C   UNL     1      -0.539   1.149  24.347  0.00  0.00    +0.205 A 
ATOM     13  N   UNL     1      -0.605   1.382  25.136  0.00  0.00    -0.056 NA
ATOM     14  O   UNL     1      -1.404   1.512  25.298  0.00  0.00    -0.336 OA
ATOM     15  C   UNL     1      -1.831   1.359  24.609  0.00  0.00    +0.251 A 
ATOM     16  N   UNL     1      -1.297   1.135  24.021  0.00  0.00    -0.190 NA
ENDROOT
BRANCH  12   9
ATOM      6  C   UNL     1       1.564   0.592  23.167  0.00  0.00    +0.225 A 
ATOM      7  C   UNL     1       0.921   0.076  23.131  0.00  0.00    +0.058 A 
ATOM      8  C   UNL     1       0.220   0.262  23.524  0.00  0.00    +0.010 A 
ATOM      9  C   UNL     1       0.161   0.963  23.954  0.00  0.00    +0.058 A 
ATOM     10  C   UNL     1       0.804   1.479  23.991  0.00  0.00    +0.105 A 
ATOM     11  N   UNL     1       1.505   1.294  23.598  0.00  0.00    -0.210 NA
BRANCH   6   5
ATOM      5  O   UNL     1       2.265   0.407  22.774  0.00  0.00    -0.457 OA
BRANCH   5   4
ATOM      4  C   UNL     1       2.978   0.739  23.023  0.00  0.00    +0.239 C 
BRANCH   4   3
ATOM      3  C   UNL     1       3.694   0.429  22.754  0.00  0.00    +0.189 C 
BRANCH   3   2
ATOM      1  C   UNL     1       5.050   0.272  23.176  0.00  0.00    +0.174 C 
ATOM      2  O   UNL     1       4.407   0.760  23.005  0.00  0.00    -0.347 OA
ENDBRANCH   3   2
ENDBRANCH   4   3
ENDBRANCH   5   4
ENDBRANCH   6   5
ENDBRANCH  12   9
BRANCH  15  17
ATOM     17  C   UNL     1      -2.649   1.420  24.522  0.00  0.00    +0.138 C 
ATOM     18  C   UNL     1      -3.059   2.077  24.235  0.00  0.00    +0.027 C 
ATOM     19  C   UNL     1      -3.865   1.898  24.243  0.00  0.00    +0.019 C 
ATOM     20  C   UNL     1      -3.952   1.131  24.535  0.00  0.00    +0.073 C 
ATOM     21  N   UNL     1      -3.202   0.836  24.708  0.00  0.00    -0.263 NA
BRANCH  21  22
ATOM     22  C   UNL     1      -3.033   0.089  25.013  0.00  0.00    +0.101 C 
BRANCH  22  23
ATOM     23  C   UNL     1      -3.406  -0.577  24.702  0.00  0.00    +0.012 A 
ATOM     24  C   UNL     1      -3.995  -0.578  24.123  0.00  0.00    +0.073 A 
ATOM     25  N   UNL     1      -4.209  -1.361  23.978  0.00  0.00    -0.324 N 
ATOM     26  C   UNL     1      -4.779  -1.615  23.438  0.00  0.00    +0.130 C 
ATOM     27  C   UNL     1      -3.753  -1.844  24.466  0.00  0.00    +0.060 A 
ATOM     28  C   UNL     1      -3.257  -1.360  24.914  0.00  0.00    +0.015 A 
ATOM     29  C   UNL     1      -2.734  -1.696  25.456  0.00  0.00    +0.001 A 
ATOM     30  C   UNL     1      -2.707  -2.514  25.552  0.00  0.00    +0.000 A 
ATOM     31  C   UNL     1      -3.203  -2.998  25.104  0.00  0.00    +0.001 A 
ATOM     32  C   UNL     1      -3.726  -2.664  24.561  0.00  0.00    +0.017 A 
ENDBRANCH  22  23
ENDBRANCH  21  22
ENDBRANCH  15  17
TORSDOF 8
ENDMDL
MODEL 5
REMARK VINA RESULT:      -8.5      2.900      4.613
REMARK  Name = 
REMARK  8 active torsions:
REMARK  status: ('A' for Active; 'I' for Inactive)
REMARK    1  A    between atoms: O_2  and  C_3
REMARK    2  A    between atoms: C_3  and  C_4
REMARK    3  A    between atoms: C_4  and  O_5
REMARK    4  A    between atoms: O_5  and  C_6
REMARK    5  A    between atoms: C_9  and  C_12
REMARK    6  A    between atoms: C_15  and  C_17
REMARK    7  A    between atoms: N_21  and  C_22
REMARK    8  A    between atoms: C_22  and  C_23
REMARK                            x       y       z     vdW  Elec       q    Type
REMARK                         _______ _______ _______ _____ _____    ______ ____
ROOT
ATOM     12  C   UNL     1      -4.668   0.861  24.804  0.00  0.00    +0.205 A 
ATOM     13  N   UNL     1      -5.375   1.111  24.460  0.00  0.00    -0.056 NA
ATOM     14  O   UNL     1      -5.468   1.915  24.625  0.00  0.00    -0.336 OA
ATOM     15  C   UNL     1      -4.818   2.159  25.071  0.00  0.00    +0.251 A 
ATOM     16  N   UNL     1      -4.324   1.508  25.182  0.00  0.00    -0.190 NA
ENDROOT
BRANCH  12   9
ATOM      6  C   UNL     1      -3.744  -1.434  24.719  0.00  0.00    +0.225 A 
ATOM      7  C   UNL     1      -3.967  -1.053  24.022  0.00  0.00    +0.058 A 
ATOM      8  C   UNL     1      -4.275  -0.288  24.050  0.00  0.00    +0.010 A 
ATOM      9  C   UNL     1      -4.360   0.096  24.775  0.00  0.00    +0.058 A 
ATOM     10  C   UNL     1      -4.137  -0.285  25.473  0.00  0.00    +0.105 A 
ATOM     11  N   UNL     1      -3.830  -1.050  25.444  0.00  0.00    -0.210 NA
BRANCH   6   5
ATOM      5  O   UNL     1      -3.437  -2.199  24.691  0.00  0.00    -0.457 OA
BRANCH   5   4
ATOM      4  C   UNL     1      -2.697  -2.334  24.352  0.00  0.00    +0.239 C 
BRANCH   4   3
ATOM      3  C   UNL     1      -2.167  -2.855  24.711  0.00  0.00    +0.189 C 
BRANCH   3   2
ATOM      1  C   UNL     1      -0.767  -2.592  24.817  0.00  0.00    +0.174 C 
ATOM      2  O   UNL     1      -1.401  -2.934  24.415  0.00  0.00    -0.347 OA
ENDBRANCH   3   2
ENDBRANCH   4   3
ENDBRANCH   5   4
ENDBRANCH   6   5
ENDBRANCH  12   9
BRANCH  15  17
ATOM     17  C   UNL     1      -4.686   2.923  25.356  0.00  0.00    +0.138 C 
ATOM     18  C   UNL     1      -5.250   3.416  25.701  0.00  0.00    +0.027 C 
ATOM     19  C   UNL     1      -4.879   4.124  25.905  0.00  0.00    +0.019 C 
ATOM     20  C   UNL     1      -4.085   4.068  25.687  0.00  0.00    +0.073 C 
ATOM     21  N   UNL     1      -3.966   3.326  25.348  0.00  0.00    -0.263 NA
BRANCH  21  22
ATOM     22  C   UNL     1      -3.252   3.037  25.052  0.00  0.00    +0.101 C 
BRANCH  22  23
ATOM     23  C   UNL     1      -2.564   3.486  25.124  0.00  0.00    +0.012 A 
ATOM     24  C   UNL     1      -2.503   4.302  25.012  0.00  0.00    +0.073 A 
ATOM     25  N   UNL     1      -1.718   4.518  25.140  0.00  0.00    -0.324 N 
ATOM     26  C   UNL     1      -1.411   5.283  25.086  0.00  0.00    +0.130 C 
ATOM     27  C   UNL     1      -1.294   3.838  25.330  0.00  0.00    +0.060 A 
ATOM     28  C   UNL     1      -1.817   3.200  25.321  0.00  0.00    +0.015 A 
ATOM     29  C   UNL     1      -1.543   2.440  25.492  0.00  0.00    +0.001 A 
ATOM     30  C   UNL     1      -0.748   2.319  25.674  0.00  0.00    +0.000 A 
ATOM     31  C   UNL     1      -0.225   2.957  25.683  0.00  0.00    +0.001 A 
ATOM     32  C   UNL     1      -0.497   3.716  25.512  0.00  0.00    +0.017 A 
ENDBRANCH  22  23
ENDBRANCH  21  22
ENDBRANCH  15  17
TORSDOF 8
ENDMDL
MODEL 6
REMARK VINA RESULT:      -8.3      1.978      5.510
REMARK  Name = 
REMARK  8 active torsions:
REMARK  status: ('A' for Active; 'I' for Inactive)
REMARK    1  A    between atoms: O_2  and  C_3
REMARK    2  A    between atoms: C_3  and  C_4
REMARK    3  A    between atoms: C_4  and  O_5
REMARK    4  A    between atoms: O_5  and  C_6
REMARK    5  A    between atoms: C_9  and  C_12
REMARK    6  A    between atoms: C_15  and  C_17
REMARK    7  A    between atoms: N_21  and  C_22
REMARK    8  A    between atoms: C_22  and  C_23
REMARK                            x       y       z     vdW  Elec       q    Type
REMARK                         _______ _______ _______ _____ _____    ______ ____
ROOT
ATOM     12  C   UNL     1      -1.097   2.234  24.820  0.00  0.00    +0.205 A 
ATOM     13  N   UNL     1      -0.338   2.372  25.113  0.00  0.00    -0.056 NA
ATOM     14  O   UNL     1       0.149   1.755  24.860  0.00  0.00    -0.336 OA
ATOM     15  C   UNL     1      -0.310   1.237  24.412  0.00  0.00    +0.251 A 
ATOM     16  N   UNL     1      -1.080   1.533  24.387  0.00  0.00    -0.190 NA
ENDROOT
BRANCH  12   9
ATOM      6  C   UNL     1      -3.076   3.675  25.180  0.00  0.00    +0.225 A 
ATOM      7  C   UNL     1      -2.510   3.598  25.774  0.00  0.00    +0.058 A 
ATOM      8  C   UNL     1      -1.849   3.117  25.654  0.00  0.00    +0.010 A 
ATOM      9  C   UNL     1      -1.756   2.715  24.940  0.00  0.00    +0.058 A 
ATOM     10  C   UNL     1      -2.324   2.792  24.346  0.00  0.00    +0.105 A 
ATOM     11  N   UNL     1      -2.983   3.273  24.466  0.00  0.00    -0.210 NA
BRANCH   6   5
ATOM      5  O   UNL     1      -3.737   4.156  25.299  0.00  0.00    -0.457 OA
BRANCH   5   4
ATOM      4  C   UNL     1      -4.429   3.836  25.613  0.00  0.00    +0.239 C 
BRANCH   4   3
ATOM      3  C   UNL     1      -5.162   4.142  25.392  0.00  0.00    +0.189 C 
BRANCH   3   2
ATOM      1  C   UNL     1      -6.177   3.179  25.683  0.00  0.00    +0.174 C 
ATOM      2  O   UNL     1      -5.843   3.923  25.805  0.00  0.00    -0.347 OA
ENDBRANCH   3   2
ENDBRANCH   4   3
ENDBRANCH   5   4
ENDBRANCH   6   5
ENDBRANCH  12   9
BRANCH  15  17
ATOM     17  C   UNL     1      -0.046   0.543  24.051  0.00  0.00    +0.138 C 
ATOM     18  C   UNL     1       0.498   0.495  23.432  0.00  0.00    +0.027 C 
ATOM     19  C   UNL     1       0.601  -0.301  23.244  0.00  0.00    +0.019 C 
ATOM     20  C   UNL     1       0.120  -0.746  23.746  0.00  0.00    +0.073 C 
ATOM     21  N   UNL     1      -0.279  -0.224  24.245  0.00  0.00    -0.263 NA
BRANCH  21  22
ATOM     22  C   UNL     1      -0.818  -0.433  24.834  0.00  0.00    +0.101 C 
BRANCH  22  23
ATOM     23  C   UNL     1      -1.286  -1.106  24.744  0.00  0.00    +0.012 A 
ATOM     24  C   UNL     1      -1.089  -1.780  24.311  0.00  0.00    +0.073 A 
ATOM     25  N   UNL     1      -1.714  -2.314  24.371  0.00  0.00    -0.324 N 
ATOM     26  C   UNL     1      -1.750  -3.061  24.022  0.00  0.00    +0.130 C 
ATOM     27  C   UNL     1      -2.298  -1.970  24.842  0.00  0.00    +0.060 A 
ATOM     28  C   UNL     1      -2.033  -1.224  25.072  0.00  0.00    +0.015 A 
ATOM     29  C   UNL     1      -2.507  -0.748  25.551  0.00  0.00    +0.001 A 
ATOM     30  C   UNL     1      -3.246  -1.018  25.800  0.00  0.00    +0.000 A 
ATOM     31  C   UNL     1      -3.510  -1.765  25.569  0.00  0.00    +0.001 A 
ATOM     32  C   UNL     1      -3.037  -2.241  25.090  0.00  0.00    +0.017 A 
ENDBRANCH  22  23
ENDBRANCH  21  22
ENDBRANCH  15  17
TORSDOF 8
ENDMDL
