MODEL 1
REMARK VINA RESULT:     -13.0      0.000      0.000
REMARK  Name = 
REMARK  4 active torsions:
REMARK  status: ('A' for Active; 'I' for Inactive)
REMARK    1  A    between atoms: N_7  and  C_10
REMARK    2  A    between atoms: C_12  and  C_16
REMARK    3  A    between atoms: C_19  and  C_21
REMARK    4  A    between atoms: N_25  and  C_26
REMARK                            x       y       z     vdW  Elec       q    Type
REMARK                         _______ _______ _______ _____ _____    ______ ____
ROOT
ATOM     16  C   UNL     1      -3.407   2.521  24.530  0.00  0.00    +0.203 A 
ATOM     17  N   UNL     1      -3.160   2.672  23.758  0.00  0.00    -0.056 NA
ATOM     18  O   UNL     1      -2.602   3.278  23.782  0.00  0.00    -0.336 OA
ATOM     19  C   UNL     1      -2.504   3.503  24.570  0.00  0.00    +0.251 A 
ATOM     20  N   UNL     1      -3.001   3.035  25.031  0.00  0.00    -0.190 NA
ENDROOT
BRANCH  16  12
ATOM     10  C   UNL     1      -4.329   0.587  24.950  0.00  0.00    +0.132 A 
ATOM     11  C   UNL     1      -3.774   1.153  24.720  0.00  0.00    +0.037 A 
ATOM     12  C   UNL     1      -3.961   1.955  24.760  0.00  0.00    +0.043 A 
ATOM     13  C   UNL     1      -4.705   2.192  25.030  0.00  0.00    +0.024 A 
ATOM     14  C   UNL     1      -5.260   1.626  25.260  0.00  0.00    +0.100 A 
ATOM     15  N   UNL     1      -5.071   0.824  25.220  0.00  0.00    -0.229 NA
BRANCH  10   7
ATOM      1  C   UNL     1      -3.739  -3.049  24.098  0.00  0.00    +0.095 C 
ATOM      2  C   UNL     1      -3.576  -2.622  24.785  0.00  0.00    +0.226 C 
ATOM      3  O   UNL     1      -3.225  -2.997  25.431  0.00  0.00    -0.275 OA
ATOM      4  N   UNL     1      -3.764  -1.820  24.827  0.00  0.00    -0.276 N 
ATOM      5  C   UNL     1      -3.601  -1.392  25.513  0.00  0.00    +0.115 C 
ATOM      6  C   UNL     1      -3.790  -0.590  25.554  0.00  0.00    +0.114 C 
ATOM      7  N   UNL     1      -4.141  -0.215  24.909  0.00  0.00    -0.290 N 
ATOM      8  C   UNL     1      -4.303  -0.642  24.222  0.00  0.00    +0.114 C 
ATOM      9  C   UNL     1      -4.115  -1.444  24.180  0.00  0.00    +0.115 C 
ENDBRANCH  10   7
ENDBRANCH  16  12
BRANCH  19  21
ATOM     21  C   UNL     1      -1.998   4.093  24.846  0.00  0.00    +0.138 C 
ATOM     22  C   UNL     1      -2.187   4.889  24.942  0.00  0.00    +0.027 C 
ATOM     23  C   UNL     1      -1.517   5.277  25.230  0.00  0.00    +0.019 C 
ATOM     24  C   UNL     1      -0.915   4.719  25.312  0.00  0.00    +0.072 C 
ATOM     25  N   UNL     1      -1.211   3.988  25.075  0.00  0.00    -0.268 NA
BRANCH  25  26
ATOM     26  C   UNL     1      -0.796   3.275  25.068  0.00  0.00    +0.058 C 
ATOM     27  C   UNL     1      -0.745   2.821  25.756  0.00  0.00    +0.016 C 
ATOM     28  C   UNL     1      -0.329   2.108  25.749  0.00  0.00    +0.001 C 
ATOM     29  C   UNL     1       0.034   1.849  25.055  0.00  0.00    +0.000 C 
ATOM     30  C   UNL     1      -0.017   2.302  24.368  0.00  0.00    +0.001 C 
ATOM     31  C   UNL     1      -0.432   3.016  24.375  0.00  0.00    +0.016 C 
ENDBRANCH  25  26
ENDBRANCH  19  21
TORSDOF 4
ENDMDL
MODEL 2
REMARK VINA RESULT:     -12.4      1.535      2.786
REMARK  Name = 
REMARK  4 active torsions:
REMARK  status: ('A' for Active; 'I' for Inactive)
REMARK    1  A    between atoms: N_7  and  C_10
REMARK    2  A    between atoms: C_12  and  C_16
REMARK    3  A    between atoms: C_19  and  C_21
REMARK    4  A    between atoms: N_25  and  C_26
REMARK                            x       y       z     vdW  Elec       q    Type
REMARK                         _______ _______ _______ _____ _____    ______ ____
ROOT
ATOM     16  C   UNL     1      -0.861   2.018  25.150  0.00  0.00    +0.203 A 
ATOM     17  N   UNL     1      -0.875   2.164  25.961  0.00  0.00    -0.056 NA
ATOM     18  O   UNL     1      -1.014   2.969  26.074  0.00  0.00    -0.336 OA
ATOM     19  C   UNL     1      -1.086   3.321  25.331  0.00  0.00    +0.251 A 
ATOM     20  N   UNL     1      -0.991   2.734  24.761  0.00  0.00    -0.190 NA
ENDROOT
BRANCH  16  12
ATOM     10  C   UNL     1      -1.209  -0.020  24.449  0.00  0.00    +0.132 A 
ATOM     11  C   UNL     1      -1.331   0.712  24.809  0.00  0.00    +0.037 A 
ATOM     12  C   UNL     1      -0.738   1.286  24.790  0.00  0.00    +0.043 A 
ATOM     13  C   UNL     1      -0.022   1.126  24.412  0.00  0.00    +0.024 A 
ATOM     14  C   UNL     1       0.101   0.394  24.053  0.00  0.00    +0.100 A 
ATOM     15  N   UNL     1      -0.493  -0.179  24.072  0.00  0.00    -0.229 NA
BRANCH  10   7
ATOM      1  C   UNL     1      -4.306  -2.167  24.148  0.00  0.00    +0.095 C 
ATOM      2  C   UNL     1      -3.585  -2.309  24.523  0.00  0.00    +0.226 C 
ATOM      3  O   UNL     1      -3.458  -3.023  24.918  0.00  0.00    -0.275 OA
ATOM      4  N   UNL     1      -2.991  -1.737  24.505  0.00  0.00    -0.276 N 
ATOM      5  C   UNL     1      -2.270  -1.879  24.881  0.00  0.00    +0.115 C 
ATOM      6  C   UNL     1      -1.676  -1.306  24.862  0.00  0.00    +0.114 C 
ATOM      7  N   UNL     1      -1.802  -0.593  24.468  0.00  0.00    -0.290 N 
ATOM      8  C   UNL     1      -2.523  -0.451  24.093  0.00  0.00    +0.114 C 
ATOM      9  C   UNL     1      -3.118  -1.023  24.111  0.00  0.00    +0.115 C 
ENDBRANCH  10   7
ENDBRANCH  16  12
BRANCH  19  21
ATOM     21  C   UNL     1      -1.227   4.121  25.186  0.00  0.00    +0.138 C 
ATOM     22  C   UNL     1      -0.655   4.695  25.034  0.00  0.00    +0.027 C 
ATOM     23  C   UNL     1      -1.042   5.416  24.922  0.00  0.00    +0.019 C 
ATOM     24  C   UNL     1      -1.852   5.286  25.005  0.00  0.00    +0.072 C 
ATOM     25  N   UNL     1      -1.967   4.487  25.168  0.00  0.00    -0.268 NA
BRANCH  25  26
ATOM     26  C   UNL     1      -2.694   4.116  25.292  0.00  0.00    +0.058 C 
ATOM     27  C   UNL     1      -3.119   3.820  24.649  0.00  0.00    +0.016 C 
ATOM     28  C   UNL     1      -3.846   3.448  24.772  0.00  0.00    +0.001 C 
ATOM     29  C   UNL     1      -4.147   3.373  25.537  0.00  0.00    +0.000 C 
ATOM     30  C   UNL     1      -3.721   3.669  26.179  0.00  0.00    +0.001 C 
ATOM     31  C   UNL     1      -2.994   4.040  26.055  0.00  0.00    +0.016 C 
ENDBRANCH  25  26
ENDBRANCH  19  21
TORSDOF 4
ENDMDL
MODEL 3
REMARK VINA RESULT:     -12.3      1.426      5.085
REMARK  Name = 
REMARK  4 active torsions:
REMARK  status: ('A' for Active; 'I' for Inactive)
REMARK    1  A    between atoms: N_7  and  C_10
REMARK    2  A    between atoms: C_12  and  C_16
REMARK    3  A    between atoms: C_19  and  C_21
REMARK    4  A    between atoms: N_25  and  C_26
REMARK                            x       y       z     vdW  Elec       q    Type
REMARK                         _______ _______ _______ _____ _____    ______ ____
ROOT
ATOM     16  C   UNL     1      -4.018   0.208  25.105  0.00  0.00    +0.203 A 
ATOM     17  N   UNL     1      -4.007  -0.142  25.851  0.00  0.00    -0.056 NA
ATOM     18  O   UNL     1      -3.795  -0.934  25.759  0.00  0.00    -0.336 OA
ATOM     19  C   UNL     1      -3.676  -1.073  24.954  0.00  0.00    +0.251 A 
ATOM     20  N   UNL     1      -3.813  -0.367  24.551  0.00  0.00    -0.190 NA
ENDROOT
BRANCH  16  12
ATOM     10  C   UNL     1      -3.803   2.364  24.839  0.00  0.00    +0.132 A 
ATOM     11  C   UNL     1      -3.620   1.577  25.002  0.00  0.00    +0.037 A 
ATOM     12  C   UNL     1      -4.202   0.996  24.941  0.00  0.00    +0.043 A 
ATOM     13  C   UNL     1      -4.969   1.203  24.716  0.00  0.00    +0.024 A 
ATOM     14  C   UNL     1      -5.152   1.990  24.553  0.00  0.00    +0.100 A 
ATOM     15  N   UNL     1      -4.569   2.571  24.614  0.00  0.00    -0.229 NA
BRANCH  10   7
ATOM      1  C   UNL     1      -0.712   4.540  24.790  0.00  0.00    +0.095 C 
ATOM      2  C   UNL     1      -1.469   4.684  25.084  0.00  0.00    +0.226 C 
ATOM      3  O   UNL     1      -1.643   5.409  25.439  0.00  0.00    -0.275 OA
ATOM      4  N   UNL     1      -2.053   4.105  25.023  0.00  0.00    -0.276 N 
ATOM      5  C   UNL     1      -2.810   4.249  25.317  0.00  0.00    +0.115 C 
ATOM      6  C   UNL     1      -3.393   3.668  25.255  0.00  0.00    +0.114 C 
ATOM      7  N   UNL     1      -3.220   2.945  24.900  0.00  0.00    -0.290 N 
ATOM      8  C   UNL     1      -2.463   2.801  24.606  0.00  0.00    +0.114 C 
ATOM      9  C   UNL     1      -1.879   3.380  24.667  0.00  0.00    +0.115 C 
ENDBRANCH  10   7
ENDBRANCH  16  12
BRANCH  19  21
ATOM     21  C   UNL     1      -3.457  -1.792  24.614  0.00  0.00    +0.138 C 
ATOM     22  C   UNL     1      -3.970  -2.365  24.318  0.00  0.00    +0.027 C 
ATOM     23  C   UNL     1      -3.515  -2.992  24.032  0.00  0.00    +0.019 C 
ATOM     24  C   UNL     1      -2.721  -2.805  24.152  0.00  0.00    +0.072 C 
ATOM     25  N   UNL     1      -2.684  -2.065  24.512  0.00  0.00    -0.268 NA
BRANCH  25  26
ATOM     26  C   UNL     1      -1.997  -1.664  24.731  0.00  0.00    +0.058 C 
ATOM     27  C   UNL     1      -1.603  -1.190  24.181  0.00  0.00    +0.016 C 
ATOM     28  C   UNL     1      -0.916  -0.790  24.400  0.00  0.00    +0.001 C 
ATOM     29  C   UNL     1      -0.622  -0.863  25.168  0.00  0.00    +0.000 C 
ATOM     30  C   UNL     1      -1.015  -1.337  25.717  0.00  0.00    +0.001 C 
ATOM     31  C   UNL     1      -1.703  -1.737  25.498  0.00  0.00    +0.016 C 
ENDBRANCH  25  26
ENDBRANCH  19  21
TORSDOF 4
ENDMDL
MODEL 4
REMARK VINA RESULT:     -11.5      1.532      5.777
REMARK  Name = 
REMARK  4 active torsions:
REMARK  status: ('A' for Active; 'I' for Inactive)
REMARK    1  A    between atoms: N_7  and  C_10
REMARK    2  A    between atoms: C_12  and  C_16
REMARK    3  A    between atoms: C_19  and  C_21
REMARK    4  A    between atoms: N_25  and  C_26
REMARK                            x       y       z     vdW  Elec       q    Type
REMARK                         _______ _______ _______ _____ _____    ______ ____
ROOT
ATOM     16  C   UNL     1      -1.120  -0.372  24.794  0.00  0.00    +0.203 A 
ATOM     17  N   UNL     1      -1.115  -0.660  25.567  0.00  0.00    -0.056 NA
ATOM     18  O   UNL     1      -1.659  -1.278  25.613  0.00  0.00    -0.336 OA
ATOM     19  C   UNL     1      -2.001  -1.372  24.867  0.00  0.00    +0.251 A 
ATOM     20  N   UNL     1      -1.668  -0.812  24.362  0.00  0.00    -0.190 NA
ENDROOT
BRANCH  16  12
ATOM     10  C   UNL     1      -0.404   1.648  24.380  0.00  0.00    +0.132 A 
ATOM     11  C   UNL     1      -0.866   1.029  24.669  0.00  0.00    +0.037 A 
ATOM     12  C   UNL     1      -0.659   0.248  24.504  0.00  0.00    +0.043 A 
ATOM     13  C   UNL     1       0.010   0.086  24.048  0.00  0.00    +0.024 A 
ATOM     14  C   UNL     1       0.471   0.705  23.758  0.00  0.00    +0.100 A 
ATOM     15  N   UNL     1       0.264   1.487  23.924  0.00  0.00    -0.229 NA
BRANCH  10   7
ATOM      1  C   UNL     1      -1.991   4.945  25.331  0.00  0.00    +0.095 C 
ATOM      2  C   UNL     1      -1.238   4.772  25.044  0.00  0.00    +0.226 C 
ATOM      3  O   UNL     1      -0.692   5.379  24.923  0.00  0.00    -0.275 OA
ATOM      4  N   UNL     1      -1.029   3.991  24.878  0.00  0.00    -0.276 N 
ATOM      5  C   UNL     1      -0.275   3.818  24.591  0.00  0.00    +0.115 C 
ATOM      6  C   UNL     1      -0.067   3.036  24.425  0.00  0.00    +0.114 C 
ATOM      7  N   UNL     1      -0.612   2.430  24.546  0.00  0.00    -0.290 N 
ATOM      8  C   UNL     1      -1.366   2.603  24.833  0.00  0.00    +0.114 C 
ATOM      9  C   UNL     1      -1.575   3.384  24.999  0.00  0.00    +0.115 C 
ENDBRANCH  10   7
ENDBRANCH  16  12
BRANCH  19  21
ATOM     21  C   UNL     1      -2.575  -1.928  24.665  0.00  0.00    +0.138 C 
ATOM     22  C   UNL     1      -2.441  -2.722  24.487  0.00  0.00    +0.027 C 
ATOM     23  C   UNL     1      -3.169  -3.072  24.317  0.00  0.00    +0.019 C 
ATOM     24  C   UNL     1      -3.753  -2.494  24.391  0.00  0.00    +0.072 C 
ATOM     25  N   UNL     1      -3.387  -1.787  24.606  0.00  0.00    -0.268 NA
BRANCH  25  26
ATOM     26  C   UNL     1      -3.764  -1.066  24.738  0.00  0.00    +0.058 C 
ATOM     27  C   UNL     1      -3.963  -0.582  24.100  0.00  0.00    +0.016 C 
ATOM     28  C   UNL     1      -4.340   0.140  24.232  0.00  0.00    +0.001 C 
ATOM     29  C   UNL     1      -4.519   0.378  25.002  0.00  0.00    +0.000 C 
ATOM     30  C   UNL     1      -4.320  -0.106  25.639  0.00  0.00    +0.001 C 
ATOM     31  C   UNL     1      -3.943  -0.828  25.507  0.00  0.00    +0.016 C 
ENDBRANCH  25  26
ENDBRANCH  19  21
TORSDOF 4
ENDMDL
MODEL 5
REMARK VINA RESULT:     -11.1      2.204      4.096
REMARK  Name = 
REMARK  4 active torsions:
REMARK  status: ('A' for Active; 'I' for Inactive)
REMARK    1  A    between atoms: N_7  and  C_10
REMARK    2  A    between atoms: C_12  and  C_16
REMARK    3  A    between atoms: C_19  and  C_21
REMARK    4  A    between atoms: N_25  and  C_26
REMARK                            x       y       z     vdW  Elec       q    Type
REMARK                         _______ _______ _______ _____ _____    ______ ____
ROOT
ATOM     16  C   UNL     1      -3.207   0.746  24.550  0.00  0.00    +0.203 A 
ATOM     17  N   UNL     1      -3.511   0.976  23.818  0.00  0.00    -0.056 NA
ATOM     18  O   UNL     1      -4.141   1.489  23.953  0.00  0.00    -0.336 OA
ATOM     19  C   UNL     1      -4.228   1.577  24.770  0.00  0.00    +0.251 A 
ATOM     20  N   UNL     1      -3.651   1.118  25.137  0.00  0.00    -0.190 NA
ENDROOT
BRANCH  16  12
ATOM     10  C   UNL     1      -1.198  -0.104  24.467  0.00  0.00    +0.132 A 
ATOM     11  C   UNL     1      -1.834   0.407  24.344  0.00  0.00    +0.037 A 
ATOM     12  C   UNL     1      -2.571   0.235  24.672  0.00  0.00    +0.043 A 
ATOM     13  C   UNL     1      -2.672  -0.449  25.123  0.00  0.00    +0.024 A 
ATOM     14  C   UNL     1      -2.037  -0.961  25.245  0.00  0.00    +0.100 A 
ATOM     15  N   UNL     1      -1.300  -0.788  24.917  0.00  0.00    -0.229 NA
BRANCH  10   7
ATOM      1  C   UNL     1       2.112   0.044  22.647  0.00  0.00    +0.095 C 
ATOM      2  C   UNL     1       1.749   0.585  23.153  0.00  0.00    +0.226 C 
ATOM      3  O   UNL     1       2.124   1.300  23.331  0.00  0.00    -0.275 OA
ATOM      4  N   UNL     1       1.013   0.414  23.482  0.00  0.00    -0.276 N 
ATOM      5  C   UNL     1       0.650   0.955  23.988  0.00  0.00    +0.115 C 
ATOM      6  C   UNL     1      -0.087   0.782  24.316  0.00  0.00    +0.114 C 
ATOM      7  N   UNL     1      -0.461   0.069  24.139  0.00  0.00    -0.290 N 
ATOM      8  C   UNL     1      -0.098  -0.472  23.632  0.00  0.00    +0.114 C 
ATOM      9  C   UNL     1       0.638  -0.301  23.304  0.00  0.00    +0.115 C 
ENDBRANCH  10   7
ENDBRANCH  16  12
BRANCH  19  21
ATOM     21  C   UNL     1      -4.794   2.042  25.150  0.00  0.00    +0.138 C 
ATOM     22  C   UNL     1      -5.549   1.800  25.375  0.00  0.00    +0.027 C 
ATOM     23  C   UNL     1      -5.924   2.441  25.735  0.00  0.00    +0.019 C 
ATOM     24  C   UNL     1      -5.401   3.079  25.732  0.00  0.00    +0.072 C 
ATOM     25  N   UNL     1      -4.702   2.833  25.370  0.00  0.00    -0.268 NA
BRANCH  25  26
ATOM     26  C   UNL     1      -4.029   3.294  25.248  0.00  0.00    +0.058 C 
ATOM     27  C   UNL     1      -3.474   3.379  25.853  0.00  0.00    +0.016 C 
ATOM     28  C   UNL     1      -2.800   3.840  25.733  0.00  0.00    +0.001 C 
ATOM     29  C   UNL     1      -2.682   4.217  25.008  0.00  0.00    +0.000 C 
ATOM     30  C   UNL     1      -3.237   4.132  24.404  0.00  0.00    +0.001 C 
ATOM     31  C   UNL     1      -3.911   3.670  24.525  0.00  0.00    +0.016 C 
ENDBRANCH  25  26
ENDBRANCH  19  21
TORSDOF 4
ENDMDL
MODEL 6
REMARK VINA RESULT:     -10.9      2.076      4.333
REMARK  Name = 
REMARK  4 active torsions:
REMARK  status: ('A' for Active; 'I' for Inactive)
REMARK    1  A    between atoms: N_7  and  C_10
REMARK    2  A    between atoms: C_12  and  C_16
REMARK    3  A    between atoms: C_19  and  C_21
REMARK    4  A    between atoms: N_25  and  C_26
REMARK                            x       y       z     vdW  Elec       q    Type
REMARK                         _______ _______ _______ _____ _____    ______ ____
ROOT
ATOM     16  C   UNL     1      -0.704   2.371  24.980  0.00  0.00    +0.203 A 
ATOM     17  N   UNL     1      -0.143   2.135  25.537  0.00  0.00    -0.056 NA
ATOM     18  O   UNL     1       0.264   1.487  25.231  0.00  0.00    -0.336 OA
ATOM     19  C   UNL     1      -0.045   1.323  24.483  0.00  0.00    +0.251 A 
ATOM     20  N   UNL     1      -0.642   1.869  24.329  0.00  0.00    -0.190 NA
ENDROOT
BRANCH  16  12
ATOM     10  C   UNL     1      -2.569   3.479  25.226  0.00  0.00    +0.132 A 
ATOM     11  C   UNL     1      -2.040   2.851  25.146  0.00  0.00    +0.037 A 
ATOM     12  C   UNL     1      -1.233   2.999  25.060  0.00  0.00    +0.043 A 
ATOM     13  C   UNL     1      -0.955   3.776  25.055  0.00  0.00    +0.024 A 
ATOM     14  C   UNL     1      -1.484   4.404  25.135  0.00  0.00    +0.100 A 
ATOM     15  N   UNL     1      -2.291   4.255  25.221  0.00  0.00    -0.229 NA
BRANCH  10   7
ATOM      1  C   UNL     1      -6.146   2.258  25.150  0.00  0.00    +0.095 C 
ATOM      2  C   UNL     1      -5.796   2.879  25.565  0.00  0.00    +0.226 C 
ATOM      3  O   UNL     1      -6.253   3.350  26.066  0.00  0.00    -0.275 OA
ATOM      4  N   UNL     1      -4.990   3.029  25.481  0.00  0.00    -0.276 N 
ATOM      5  C   UNL     1      -4.640   3.650  25.896  0.00  0.00    +0.115 C 
ATOM      6  C   UNL     1      -3.832   3.800  25.811  0.00  0.00    +0.114 C 
ATOM      7  N   UNL     1      -3.376   3.329  25.311  0.00  0.00    -0.290 N 
ATOM      8  C   UNL     1      -3.726   2.708  24.896  0.00  0.00    +0.114 C 
ATOM      9  C   UNL     1      -4.533   2.558  24.980  0.00  0.00    +0.115 C 
ENDBRANCH  10   7
ENDBRANCH  16  12
BRANCH  19  21
ATOM     21  C   UNL     1       0.203   0.718  23.980  0.00  0.00    +0.138 C 
ATOM     22  C   UNL     1       0.788   0.776  23.402  0.00  0.00    +0.027 C 
ATOM     23  C   UNL     1       0.854   0.041  23.032  0.00  0.00    +0.019 C 
ATOM     24  C   UNL     1       0.309  -0.470  23.381  0.00  0.00    +0.072 C 
ATOM     25  N   UNL     1      -0.094  -0.053  23.966  0.00  0.00    -0.268 NA
BRANCH  25  26
ATOM     26  C   UNL     1      -0.689  -0.352  24.454  0.00  0.00    +0.058 C 
ATOM     27  C   UNL     1      -1.474  -0.339  24.199  0.00  0.00    +0.016 C 
ATOM     28  C   UNL     1      -2.070  -0.638  24.686  0.00  0.00    +0.001 C 
ATOM     29  C   UNL     1      -1.880  -0.948  25.427  0.00  0.00    +0.000 C 
ATOM     30  C   UNL     1      -1.096  -0.960  25.681  0.00  0.00    +0.001 C 
ATOM     31  C   UNL     1      -0.500  -0.661  25.194  0.00  0.00    +0.016 C 
ENDBRANCH  25  26
ENDBRANCH  19  21
TORSDOF 4
ENDMDL
MODEL 7
REMARK VINA RESULT:     -10.5      1.860      3.837
REMARK  Name = 
REMARK  4 active torsions:
REMARK  status: ('A' for Active; 'I' for Inactive)
REMARK    1  A    between atoms: N_7  and  C_10
REMARK    2  A    between atoms: C_12  and  C_16
REMARK    3  A    between atoms: C_19  and  C_21
REMARK    4  A    between atoms: N_25  and  C_26
REMARK                            x       y       z     vdW  Elec       q    Type
REMARK                         _______ _______ _______ _____ _____    ______ ____
ROOT
ATOM     16  C   UNL     1      -2.109  -0.116  24.675  0.00  0.00    +0.203 A 
ATOM     17  N   UNL     1      -1.664  -0.419  25.299  0.00  0.00    -0.056 NA
ATOM     18  O   UNL     1      -0.867  -0.337  25.108  0.00  0.00    -0.336 OA
ATOM     19  C   UNL     1      -0.819   0.019  24.364  0.00  0.00    +0.251 A 
ATOM     20  N   UNL     1      -1.587   0.155  24.098  0.00  0.00    -0.190 NA
ENDROOT
BRANCH  16  12
ATOM     10  C   UNL     1      -4.156   0.633  24.799  0.00  0.00    +0.132 A 
ATOM     11  C   UNL     1      -3.333   0.605  24.839  0.00  0.00    +0.037 A 
ATOM     12  C   UNL     1      -2.933  -0.087  24.636  0.00  0.00    +0.043 A 
ATOM     13  C   UNL     1      -3.358  -0.753  24.393  0.00  0.00    +0.024 A 
ATOM     14  C   UNL     1      -4.181  -0.724  24.353  0.00  0.00    +0.100 A 
ATOM     15  N   UNL     1      -4.580  -0.031  24.556  0.00  0.00    -0.229 NA
BRANCH  10   7
ATOM      1  C   UNL     1      -5.468   4.136  25.348  0.00  0.00    +0.095 C 
ATOM      2  C   UNL     1      -5.750   3.407  25.611  0.00  0.00    +0.226 C 
ATOM      3  O   UNL     1      -6.430   3.370  26.077  0.00  0.00    -0.275 OA
ATOM      4  N   UNL     1      -5.352   2.713  25.408  0.00  0.00    -0.276 N 
ATOM      5  C   UNL     1      -5.634   1.984  25.671  0.00  0.00    +0.115 C 
ATOM      6  C   UNL     1      -5.235   1.290  25.468  0.00  0.00    +0.114 C 
ATOM      7  N   UNL     1      -4.555   1.326  25.002  0.00  0.00    -0.290 N 
ATOM      8  C   UNL     1      -4.274   2.056  24.739  0.00  0.00    +0.114 C 
ATOM      9  C   UNL     1      -4.672   2.749  24.942  0.00  0.00    +0.115 C 
ENDBRANCH  10   7
ENDBRANCH  16  12
BRANCH  19  21
ATOM     21  C   UNL     1      -0.124   0.205  23.960  0.00  0.00    +0.138 C 
ATOM     22  C   UNL     1       0.296  -0.299  23.461  0.00  0.00    +0.027 C 
ATOM     23  C   UNL     1       0.953   0.113  23.178  0.00  0.00    +0.019 C 
ATOM     24  C   UNL     1       0.938   0.871  23.502  0.00  0.00    +0.072 C 
ATOM     25  N   UNL     1       0.273   0.929  23.986  0.00  0.00    -0.268 NA
BRANCH  25  26
ATOM     26  C   UNL     1       0.043   1.591  24.420  0.00  0.00    +0.058 C 
ATOM     27  C   UNL     1      -0.393   2.190  24.056  0.00  0.00    +0.016 C 
ATOM     28  C   UNL     1      -0.623   2.854  24.489  0.00  0.00    +0.001 C 
ATOM     29  C   UNL     1      -0.418   2.918  25.286  0.00  0.00    +0.000 C 
ATOM     30  C   UNL     1       0.018   2.320  25.649  0.00  0.00    +0.001 C 
ATOM     31  C   UNL     1       0.248   1.656  25.216  0.00  0.00    +0.016 C 
ENDBRANCH  25  26
ENDBRANCH  19  21
TORSDOF 4
ENDMDL
