MODEL 1
REMARK VINA RESULT:      -9.2      0.000      0.000
REMARK  Name = 
REMARK  3 active torsions:
REMARK  status: ('A' for Active; 'I' for Inactive)
REMARK    1  A    between atoms: C_4  and  C_7
REMARK    2  A    between atoms: C_14  and  O_16
REMARK    3  A    between atoms: O_16  and  C_17
REMARK                            x       y       z     vdW  Elec       q    Type
REMARK                         _______ _______ _______ _____ _____    ______ ____
ROOT
ATOM      7  C   UNL     1      -3.644  -0.036  24.709  0.00  0.00    +0.270 C 
ATOM      8  O   UNL     1      -4.355   0.323  24.493  0.00  0.00    -0.268 OA
ATOM      9  N   UNL     1      -2.952   0.409  24.747  0.00  0.00    -0.268 N 
ATOM     10  C   UNL     1      -2.272  -0.003  24.969  0.00  0.00    +0.126 C 
ATOM     11  C   UNL     1      -1.503   0.281  25.057  0.00  0.00    +0.164 C 
ATOM     12  O   UNL     1      -1.222   1.050  24.945  0.00  0.00    -0.348 OA
ATOM     13  C   UNL     1      -1.643   1.722  24.718  0.00  0.00    +0.187 C 
ATOM     14  C   UNL     1      -2.447   1.793  24.546  0.00  0.00    +0.217 C 
ATOM     15  C   UNL     1      -3.029   1.208  24.559  0.00  0.00    +0.140 C 
ENDROOT
BRANCH   7   4
ATOM      1  C   UNL     1      -3.614  -2.927  24.427  0.00  0.00    +0.075 C 
ATOM      2  C   UNL     1      -3.614  -2.171  24.757  0.00  0.00    +0.155 A 
ATOM      3  C   UNL     1      -3.637  -1.459  24.339  0.00  0.00    +0.063 A 
ATOM      4  C   UNL     1      -3.627  -0.842  24.887  0.00  0.00    +0.176 A 
ATOM      5  N   UNL     1      -3.598  -1.171  25.642  0.00  0.00    -0.073 NA
ATOM      6  O   UNL     1      -3.589  -1.993  25.562  0.00  0.00    -0.358 OA
ENDBRANCH   7   4
BRANCH  14  16
ATOM     16  O   UNL     1      -2.702   2.548  24.333  0.00  0.00    -0.459 OA
BRANCH  16  17
ATOM     17  C   UNL     1      -2.739   3.146  24.900  0.00  0.00    +0.245 A 
ATOM     18  C   UNL     1      -2.101   3.662  24.997  0.00  0.00    +0.156 A 
ATOM     19  N   UNL     1      -2.137   4.259  25.564  0.00  0.00    -0.236 NA
ATOM     20  C   UNL     1      -2.810   4.343  26.034  0.00  0.00    +0.120 A 
ATOM     21  C   UNL     1      -3.447   3.828  25.937  0.00  0.00    +0.123 A 
ATOM     22  N   UNL     1      -3.411   3.230  25.369  0.00  0.00    -0.207 NA
ENDBRANCH  16  17
ENDBRANCH  14  16
TORSDOF 3
ENDMDL
MODEL 2
REMARK VINA RESULT:      -8.9      1.243      4.651
REMARK  Name = 
REMARK  3 active torsions:
REMARK  status: ('A' for Active; 'I' for Inactive)
REMARK    1  A    between atoms: C_4  and  C_7
REMARK    2  A    between atoms: C_14  and  O_16
REMARK    3  A    between atoms: O_16  and  C_17
REMARK                            x       y       z     vdW  Elec       q    Type
REMARK                         _______ _______ _______ _____ _____    ______ ____
ROOT
ATOM      7  C   UNL     1      -1.671   2.499  25.301  0.00  0.00    +0.270 C 
ATOM      8  O   UNL     1      -1.064   2.106  25.699  0.00  0.00    -0.268 OA
ATOM      9  N   UNL     1      -2.187   2.076  24.815  0.00  0.00    -0.268 N 
ATOM     10  C   UNL     1      -2.774   2.522  24.443  0.00  0.00    +0.126 C 
ATOM     11  C   UNL     1      -3.367   2.266  23.930  0.00  0.00    +0.164 C 
ATOM     12  O   UNL     1      -3.520   1.501  23.662  0.00  0.00    -0.348 OA
ATOM     13  C   UNL     1      -3.117   0.803  23.841  0.00  0.00    +0.187 C 
ATOM     14  C   UNL     1      -2.462   0.698  24.332  0.00  0.00    +0.217 C 
ATOM     15  C   UNL     1      -2.049   1.265  24.765  0.00  0.00    +0.140 C 
ENDROOT
BRANCH   7   4
ATOM      1  C   UNL     1      -1.287   5.365  25.033  0.00  0.00    +0.075 C 
ATOM      2  C   UNL     1      -1.585   4.632  25.266  0.00  0.00    +0.155 A 
ATOM      3  C   UNL     1      -1.304   3.895  25.022  0.00  0.00    +0.063 A 
ATOM      4  C   UNL     1      -1.761   3.314  25.389  0.00  0.00    +0.176 A 
ATOM      5  N   UNL     1      -2.324   3.691  25.859  0.00  0.00    -0.073 NA
ATOM      6  O   UNL     1      -2.215   4.506  25.783  0.00  0.00    -0.358 OA
ENDBRANCH   7   4
BRANCH  14  16
ATOM     16  O   UNL     1      -2.185  -0.077  24.398  0.00  0.00    -0.459 OA
BRANCH  16  17
ATOM     17  C   UNL     1      -2.664  -0.659  24.731  0.00  0.00    +0.245 A 
ATOM     18  C   UNL     1      -3.058  -1.197  24.245  0.00  0.00    +0.156 A 
ATOM     19  N   UNL     1      -3.538  -1.780  24.578  0.00  0.00    -0.236 NA
ATOM     20  C   UNL     1      -3.624  -1.825  25.398  0.00  0.00    +0.120 A 
ATOM     21  C   UNL     1      -3.231  -1.286  25.883  0.00  0.00    +0.123 A 
ATOM     22  N   UNL     1      -2.751  -0.704  25.550  0.00  0.00    -0.207 NA
ENDBRANCH  16  17
ENDBRANCH  14  16
TORSDOF 3
ENDMDL
MODEL 3
REMARK VINA RESULT:      -8.6      1.881      2.345
REMARK  Name = 
REMARK  3 active torsions:
REMARK  status: ('A' for Active; 'I' for Inactive)
REMARK    1  A    between atoms: C_4  and  C_7
REMARK    2  A    between atoms: C_14  and  O_16
REMARK    3  A    between atoms: O_16  and  C_17
REMARK                            x       y       z     vdW  Elec       q    Type
REMARK                         _______ _______ _______ _____ _____    ______ ____
ROOT
ATOM      7  C   UNL     1      -2.105   0.539  24.269  0.00  0.00    +0.270 C 
ATOM      8  O   UNL     1      -2.709   0.278  23.771  0.00  0.00    -0.268 OA
ATOM      9  N   UNL     1      -2.128   1.302  24.581  0.00  0.00    -0.268 N 
ATOM     10  C   UNL     1      -1.497   1.507  25.072  0.00  0.00    +0.126 C 
ATOM     11  C   UNL     1      -1.361   2.220  25.464  0.00  0.00    +0.164 C 
ATOM     12  O   UNL     1      -1.822   2.904  25.463  0.00  0.00    -0.348 OA
ATOM     13  C   UNL     1      -2.534   3.044  25.068  0.00  0.00    +0.187 C 
ATOM     14  C   UNL     1      -2.959   2.535  24.578  0.00  0.00    +0.217 C 
ATOM     15  C   UNL     1      -2.778   1.759  24.361  0.00  0.00    +0.140 C 
ENDROOT
BRANCH   7   4
ATOM      1  C   UNL     1      -0.539  -1.604  25.448  0.00  0.00    +0.075 C 
ATOM      2  C   UNL     1      -0.758  -0.949  24.996  0.00  0.00    +0.155 A 
ATOM      3  C   UNL     1      -1.506  -0.601  24.978  0.00  0.00    +0.063 A 
ATOM      4  C   UNL     1      -1.478   0.036  24.454  0.00  0.00    +0.176 A 
ATOM      5  N   UNL     1      -0.713   0.081  24.148  0.00  0.00    -0.073 NA
ATOM      6  O   UNL     1      -0.269  -0.528  24.483  0.00  0.00    -0.358 OA
ENDBRANCH   7   4
BRANCH  14  16
ATOM     16  O   UNL     1      -3.657   2.841  24.263  0.00  0.00    -0.459 OA
BRANCH  16  17
ATOM     17  C   UNL     1      -4.328   2.910  24.738  0.00  0.00    +0.245 A 
ATOM     18  C   UNL     1      -4.469   3.609  25.153  0.00  0.00    +0.156 A 
ATOM     19  N   UNL     1      -5.140   3.677  25.628  0.00  0.00    -0.236 NA
ATOM     20  C   UNL     1      -5.671   3.048  25.688  0.00  0.00    +0.120 A 
ATOM     21  C   UNL     1      -5.529   2.349  25.272  0.00  0.00    +0.123 A 
ATOM     22  N   UNL     1      -4.858   2.281  24.797  0.00  0.00    -0.207 NA
ENDBRANCH  16  17
ENDBRANCH  14  16
TORSDOF 3
ENDMDL
