MODEL 1
REMARK VINA RESULT:     -12.8      0.000      0.000
REMARK  Name = 
REMARK  3 active torsions:
REMARK  status: ('A' for Active; 'I' for Inactive)
REMARK    1  A    between atoms: C_7  and  C_9
REMARK    2  A    between atoms: N_12  and  C_13
REMARK    3  A    between atoms: C_13  and  C_14
REMARK                            x       y       z     vdW  Elec       q    Type
REMARK                         _______ _______ _______ _____ _____    ______ ____
ROOT
ATOM      9  C   UNL     1      -4.355   0.966  24.739  0.00  0.00    +0.076 C 
ATOM     10  C   UNL     1      -5.028   1.320  25.058  0.00  0.00    +0.026 C 
ATOM     11  C   UNL     1      -4.955   2.137  24.969  0.00  0.00    +0.073 C 
ATOM     12  N   UNL     1      -4.236   2.288  24.594  0.00  0.00    -0.268 NA
ATOM     21  C   UNL     1      -3.865   1.565  24.452  0.00  0.00    +0.080 C 
ENDROOT
BRANCH   9   7
ATOM      1  F   UNL     1      -3.239  -3.157  25.360  0.00  0.00    -0.204 F 
ATOM      2  C   UNL     1      -3.531  -2.474  25.004  0.00  0.00    +0.142 A 
ATOM      3  C   UNL     1      -3.509  -1.755  25.408  0.00  0.00    +0.050 A 
ATOM      4  C   UNL     1      -3.801  -1.071  25.051  0.00  0.00    +0.102 A 
ATOM      5  C   UNL     1      -4.117  -1.106  24.290  0.00  0.00    +0.100 A 
ATOM      6  N   UNL     1      -4.363  -0.348  24.080  0.00  0.00    -0.229 NA
ATOM      7  C   UNL     1      -4.199   0.157  24.712  0.00  0.00    +0.140 A 
ATOM      8  N   UNL     1      -3.852  -0.291  25.311  0.00  0.00    -0.229 NA
ATOM     22  C   UNL     1      -4.140  -1.825  23.885  0.00  0.00    +0.023 A 
ATOM     23  C   UNL     1      -3.847  -2.509  24.242  0.00  0.00    +0.031 A 
ENDBRANCH   9   7
BRANCH  12  13
ATOM     13  C   UNL     1      -3.939   3.032  24.396  0.00  0.00    +0.101 C 
BRANCH  13  14
ATOM     14  C   UNL     1      -3.440   3.430  24.919  0.00  0.00    +0.021 A 
ATOM     15  C   UNL     1      -3.709   3.634  25.672  0.00  0.00    -0.001 A 
ATOM     16  C   UNL     1      -3.209   4.032  26.194  0.00  0.00    -0.000 A 
ATOM     17  C   UNL     1      -2.442   4.227  25.964  0.00  0.00    +0.002 A 
ATOM     18  C   UNL     1      -2.172   4.023  25.211  0.00  0.00    +0.029 A 
ATOM     19  C   UNL     1      -2.672   3.625  24.688  0.00  0.00    +0.137 A 
ATOM     20  F   UNL     1      -2.403   3.421  23.935  0.00  0.00    -0.204 F 
ENDBRANCH  13  14
ENDBRANCH  12  13
TORSDOF 3
ENDMDL
MODEL 2
REMARK VINA RESULT:     -12.7      1.180      5.051
REMARK  Name = 
REMARK  3 active torsions:
REMARK  status: ('A' for Active; 'I' for Inactive)
REMARK    1  A    between atoms: C_7  and  C_9
REMARK    2  A    between atoms: N_12  and  C_13
REMARK    3  A    between atoms: C_13  and  C_14
REMARK                            x       y       z     vdW  Elec       q    Type
REMARK                         _______ _______ _______ _____ _____    ______ ____
ROOT
ATOM      9  C   UNL     1      -3.418   1.873  24.789  0.00  0.00    +0.076 C 
ATOM     10  C   UNL     1      -4.024   1.808  24.233  0.00  0.00    +0.026 C 
ATOM     11  C   UNL     1      -4.424   1.100  24.372  0.00  0.00    +0.073 C 
ATOM     12  N   UNL     1      -4.066   0.728  25.015  0.00  0.00    -0.268 NA
ATOM     21  C   UNL     1      -3.445   1.206  25.273  0.00  0.00    +0.080 C 
ENDROOT
BRANCH   9   7
ATOM      1  F   UNL     1      -1.272   5.578  25.340  0.00  0.00    -0.204 F 
ATOM      2  C   UNL     1      -1.432   4.787  25.170  0.00  0.00    +0.142 A 
ATOM      3  C   UNL     1      -2.202   4.499  25.233  0.00  0.00    +0.050 A 
ATOM      4  C   UNL     1      -2.362   3.707  25.063  0.00  0.00    +0.102 A 
ATOM      5  C   UNL     1      -1.751   3.204  24.831  0.00  0.00    +0.100 A 
ATOM      6  N   UNL     1      -2.072   2.456  24.700  0.00  0.00    -0.229 NA
ATOM      7  C   UNL     1      -2.882   2.497  24.851  0.00  0.00    +0.140 A 
ATOM      8  N   UNL     1      -3.060   3.270  25.076  0.00  0.00    -0.229 NA
ATOM     22  C   UNL     1      -0.979   3.492  24.768  0.00  0.00    +0.023 A 
ATOM     23  C   UNL     1      -0.821   4.284  24.938  0.00  0.00    +0.031 A 
ENDBRANCH   9   7
BRANCH  12  13
ATOM     13  C   UNL     1      -4.290   0.005  25.343  0.00  0.00    +0.101 C 
BRANCH  13  14
ATOM     14  C   UNL     1      -4.045  -0.701  24.993  0.00  0.00    +0.021 A 
ATOM     15  C   UNL     1      -4.212  -0.847  24.198  0.00  0.00    -0.001 A 
ATOM     16  C   UNL     1      -3.967  -1.553  23.849  0.00  0.00    -0.000 A 
ATOM     17  C   UNL     1      -3.556  -2.113  24.292  0.00  0.00    +0.002 A 
ATOM     18  C   UNL     1      -3.389  -1.967  25.088  0.00  0.00    +0.029 A 
ATOM     19  C   UNL     1      -3.634  -1.261  25.438  0.00  0.00    +0.137 A 
ATOM     20  F   UNL     1      -3.467  -1.115  26.232  0.00  0.00    -0.204 F 
ENDBRANCH  13  14
ENDBRANCH  12  13
TORSDOF 3
ENDMDL
MODEL 3
REMARK VINA RESULT:     -12.5      0.792      1.154
REMARK  Name = 
REMARK  3 active torsions:
REMARK  status: ('A' for Active; 'I' for Inactive)
REMARK    1  A    between atoms: C_7  and  C_9
REMARK    2  A    between atoms: N_12  and  C_13
REMARK    3  A    between atoms: C_13  and  C_14
REMARK                            x       y       z     vdW  Elec       q    Type
REMARK                         _______ _______ _______ _____ _____    ______ ____
ROOT
ATOM      9  C   UNL     1      -3.567   0.960  24.068  0.00  0.00    +0.076 C 
ATOM     10  C   UNL     1      -3.199   1.322  23.425  0.00  0.00    +0.026 C 
ATOM     11  C   UNL     1      -3.281   2.138  23.508  0.00  0.00    +0.073 C 
ATOM     12  N   UNL     1      -3.701   2.282  24.203  0.00  0.00    -0.268 NA
ATOM     21  C   UNL     1      -3.877   1.554  24.549  0.00  0.00    +0.080 C 
ENDROOT
BRANCH   9   7
ATOM      1  F   UNL     1      -3.405  -3.115  25.482  0.00  0.00    -0.204 F 
ATOM      2  C   UNL     1      -3.570  -2.459  25.010  0.00  0.00    +0.142 A 
ATOM      3  C   UNL     1      -3.319  -1.709  25.244  0.00  0.00    +0.050 A 
ATOM      4  C   UNL     1      -3.484  -1.053  24.772  0.00  0.00    +0.102 A 
ATOM      5  C   UNL     1      -3.900  -1.148  24.065  0.00  0.00    +0.100 A 
ATOM      6  N   UNL     1      -3.982  -0.405  23.716  0.00  0.00    -0.229 NA
ATOM      7  C   UNL     1      -3.616   0.148  24.206  0.00  0.00    +0.140 A 
ATOM      8  N   UNL     1      -3.309  -0.252  24.858  0.00  0.00    -0.229 NA
ATOM     22  C   UNL     1      -4.151  -1.899  23.831  0.00  0.00    +0.023 A 
ATOM     23  C   UNL     1      -3.985  -2.554  24.304  0.00  0.00    +0.031 A 
ENDBRANCH   9   7
BRANCH  12  13
ATOM     13  C   UNL     1      -3.908   3.023  24.501  0.00  0.00    +0.101 C 
BRANCH  13  14
ATOM     14  C   UNL     1      -3.379   3.438  24.979  0.00  0.00    +0.021 A 
ATOM     15  C   UNL     1      -2.608   3.578  24.719  0.00  0.00    -0.001 A 
ATOM     16  C   UNL     1      -2.081   3.993  25.198  0.00  0.00    -0.000 A 
ATOM     17  C   UNL     1      -2.322   4.269  25.936  0.00  0.00    +0.002 A 
ATOM     18  C   UNL     1      -3.093   4.129  26.197  0.00  0.00    +0.029 A 
ATOM     19  C   UNL     1      -3.622   3.714  25.718  0.00  0.00    +0.137 A 
ATOM     20  F   UNL     1      -4.392   3.574  25.978  0.00  0.00    -0.204 F 
ENDBRANCH  13  14
ENDBRANCH  12  13
TORSDOF 3
ENDMDL
