MODEL 1
REMARK VINA RESULT:     -12.2      0.000      0.000
REMARK  Name = 
REMARK  6 active torsions:
REMARK  status: ('A' for Active; 'I' for Inactive)
REMARK    1  A    between atoms: C_4  and  C_19
REMARK    2  A    between atoms: C_5  and  N_6
REMARK    3  A    between atoms: C_7  and  C_9
REMARK    4  A    between atoms: C_9  and  O_10
REMARK    5  A    between atoms: O_10  and  C_11
REMARK    6  A    between atoms: C_22  and  C_25
REMARK                            x       y       z     vdW  Elec       q    Type
REMARK                         _______ _______ _______ _____ _____    ______ ____
ROOT
ATOM      1  O   UNL     1      -5.873   3.890  25.680  0.00  0.00    -0.220 OA
ATOM      2  C   UNL     1      -5.244   3.434  25.403  0.00  0.00    +0.184 C 
ATOM      3  C   UNL     1      -4.456   3.673  25.355  0.00  0.00    +0.042 C 
ATOM      4  C   UNL     1      -4.017   3.046  25.048  0.00  0.00    +0.049 C 
ATOM      5  C   UNL     1      -4.534   2.418  24.906  0.00  0.00    +0.132 C 
ATOM     17  C   UNL     1      -5.292   2.659  25.126  0.00  0.00    +0.202 C 
ATOM     18  O   UNL     1      -5.978   2.204  25.077  0.00  0.00    -0.219 OA
ENDROOT
BRANCH   4  19
ATOM     19  C   UNL     1      -3.204   3.045  24.907  0.00  0.00    -0.002 A 
ATOM     20  C   UNL     1      -2.919   3.073  24.134  0.00  0.00    +0.095 A 
ATOM     21  N   UNL     1      -2.106   3.073  23.993  0.00  0.00    -0.240 NA
ATOM     22  C   UNL     1      -1.578   3.045  24.627  0.00  0.00    +0.153 A 
ATOM     23  C   UNL     1      -1.863   3.017  25.401  0.00  0.00    +0.023 A 
ATOM     24  C   UNL     1      -2.676   3.018  25.541  0.00  0.00    -0.001 A 
BRANCH  22  25
ATOM     25  C   UNL     1      -0.765   3.045  24.487  0.00  0.00    +0.435 C 
ATOM     26  F   UNL     1       0.048   3.044  24.347  0.00  0.00    -0.164 F 
ATOM     27  F   UNL     1      -0.749   3.865  24.575  0.00  0.00    -0.164 F 
ATOM     28  F   UNL     1      -0.781   2.225  24.399  0.00  0.00    -0.164 F 
ENDBRANCH  22  25
ENDBRANCH   4  19
BRANCH   5   6
ATOM      6  N   UNL     1      -4.329   1.681  24.600  0.00  0.00    -0.201 NA
ATOM      7  C   UNL     1      -4.550   0.992  24.997  0.00  0.00    +0.286 C 
ATOM      8  O   UNL     1      -4.977   1.042  25.702  0.00  0.00    -0.269 OA
BRANCH   7   9
ATOM      9  C   UNL     1      -4.346   0.255  24.690  0.00  0.00    +0.291 C 
BRANCH   9  10
ATOM     10  O   UNL     1      -4.207  -0.380  25.199  0.00  0.00    -0.466 OA
BRANCH  10  11
ATOM     11  C   UNL     1      -3.988  -1.114  24.893  0.00  0.00    +0.139 A 
ATOM     12  C   UNL     1      -3.460  -1.593  25.308  0.00  0.00    +0.037 A 
ATOM     13  C   UNL     1      -3.241  -2.328  25.002  0.00  0.00    +0.003 A 
ATOM     14  C   UNL     1      -3.550  -2.583  24.281  0.00  0.00    +0.000 A 
ATOM     15  C   UNL     1      -4.079  -2.104  23.866  0.00  0.00    +0.003 A 
ATOM     16  C   UNL     1      -4.297  -1.370  24.172  0.00  0.00    +0.037 A 
ENDBRANCH  10  11
ENDBRANCH   9  10
ENDBRANCH   7   9
ENDBRANCH   5   6
TORSDOF 6
ENDMDL
MODEL 2
REMARK VINA RESULT:     -12.0      2.519      3.387
REMARK  Name = 
REMARK  6 active torsions:
REMARK  status: ('A' for Active; 'I' for Inactive)
REMARK    1  A    between atoms: C_4  and  C_19
REMARK    2  A    between atoms: C_5  and  N_6
REMARK    3  A    between atoms: C_7  and  C_9
REMARK    4  A    between atoms: C_9  and  O_10
REMARK    5  A    between atoms: O_10  and  C_11
REMARK    6  A    between atoms: C_22  and  C_25
REMARK                            x       y       z     vdW  Elec       q    Type
REMARK                         _______ _______ _______ _____ _____    ______ ____
ROOT
ATOM      1  O   UNL     1      -0.997   4.313  25.028  0.00  0.00    -0.220 OA
ATOM      2  C   UNL     1      -1.520   3.681  24.940  0.00  0.00    +0.184 C 
ATOM      3  C   UNL     1      -2.342   3.720  25.005  0.00  0.00    +0.042 C 
ATOM      4  C   UNL     1      -2.643   2.962  24.876  0.00  0.00    +0.049 C 
ATOM      5  C   UNL     1      -2.008   2.456  24.732  0.00  0.00    +0.132 C 
ATOM     17  C   UNL     1      -1.314   2.901  24.771  0.00  0.00    +0.202 C 
ATOM     18  O   UNL     1      -0.548   2.615  24.661  0.00  0.00    -0.219 OA
ENDROOT
BRANCH   4  19
ATOM     19  C   UNL     1      -3.440   2.750  24.889  0.00  0.00    -0.002 A 
ATOM     20  C   UNL     1      -3.842   2.698  25.608  0.00  0.00    +0.095 A 
ATOM     21  N   UNL     1      -4.639   2.485  25.621  0.00  0.00    -0.240 NA
ATOM     22  C   UNL     1      -5.034   2.324  24.915  0.00  0.00    +0.153 A 
ATOM     23  C   UNL     1      -4.632   2.375  24.196  0.00  0.00    +0.023 A 
ATOM     24  C   UNL     1      -3.835   2.588  24.183  0.00  0.00    -0.001 A 
BRANCH  22  25
ATOM     25  C   UNL     1      -5.831   2.111  24.928  0.00  0.00    +0.435 C 
ATOM     26  F   UNL     1      -6.628   1.898  24.940  0.00  0.00    -0.164 F 
ATOM     27  F   UNL     1      -5.628   1.337  24.724  0.00  0.00    -0.164 F 
ATOM     28  F   UNL     1      -6.033   2.884  25.131  0.00  0.00    -0.164 F 
ENDBRANCH  22  25
ENDBRANCH   4  19
BRANCH   5   6
ATOM      6  N   UNL     1      -2.058   1.648  24.575  0.00  0.00    -0.201 NA
ATOM      7  C   UNL     1      -1.658   1.109  25.055  0.00  0.00    +0.286 C 
ATOM      8  O   UNL     1      -1.207   1.379  25.693  0.00  0.00    -0.269 OA
BRANCH   7   9
ATOM      9  C   UNL     1      -1.708   0.301  24.899  0.00  0.00    +0.291 C 
BRANCH   9  10
ATOM     10  O   UNL     1      -1.983  -0.216  25.480  0.00  0.00    -0.466 OA
BRANCH  10  11
ATOM     11  C   UNL     1      -2.354  -0.920  25.265  0.00  0.00    +0.139 A 
ATOM     12  C   UNL     1      -3.147  -1.044  25.457  0.00  0.00    +0.037 A 
ATOM     13  C   UNL     1      -3.519  -1.749  25.241  0.00  0.00    +0.003 A 
ATOM     14  C   UNL     1      -3.097  -2.329  24.833  0.00  0.00    +0.000 A 
ATOM     15  C   UNL     1      -2.304  -2.205  24.641  0.00  0.00    +0.003 A 
ATOM     16  C   UNL     1      -1.933  -1.501  24.857  0.00  0.00    +0.037 A 
ENDBRANCH  10  11
ENDBRANCH   9  10
ENDBRANCH   7   9
ENDBRANCH   5   6
TORSDOF 6
ENDMDL
MODEL 3
REMARK VINA RESULT:     -11.8      1.979      3.730
REMARK  Name = 
REMARK  6 active torsions:
REMARK  status: ('A' for Active; 'I' for Inactive)
REMARK    1  A    between atoms: C_4  and  C_19
REMARK    2  A    between atoms: C_5  and  N_6
REMARK    3  A    between atoms: C_7  and  C_9
REMARK    4  A    between atoms: C_9  and  O_10
REMARK    5  A    between atoms: O_10  and  C_11
REMARK    6  A    between atoms: C_22  and  C_25
REMARK                            x       y       z     vdW  Elec       q    Type
REMARK                         _______ _______ _______ _____ _____    ______ ____
ROOT
ATOM      1  O   UNL     1       0.193  -0.185  23.915  0.00  0.00    -0.220 OA
ATOM      2  C   UNL     1      -0.328   0.394  24.189  0.00  0.00    +0.184 C 
ATOM      3  C   UNL     1      -0.166   1.200  24.256  0.00  0.00    +0.042 C 
ATOM      4  C   UNL     1      -0.840   1.571  24.552  0.00  0.00    +0.049 C 
ATOM      5  C   UNL     1      -1.419   0.995  24.669  0.00  0.00    +0.132 C 
ATOM     17  C   UNL     1      -1.102   0.267  24.444  0.00  0.00    +0.202 C 
ATOM     18  O   UNL     1      -1.491  -0.460  24.470  0.00  0.00    -0.219 OA
ENDROOT
BRANCH   4  19
ATOM     19  C   UNL     1      -0.921   2.378  24.705  0.00  0.00    -0.002 A 
ATOM     20  C   UNL     1      -1.020   2.908  24.082  0.00  0.00    +0.095 A 
ATOM     21  N   UNL     1      -1.101   3.715  24.235  0.00  0.00    -0.240 NA
ATOM     22  C   UNL     1      -1.083   3.991  25.012  0.00  0.00    +0.153 A 
ATOM     23  C   UNL     1      -0.984   3.460  25.636  0.00  0.00    +0.023 A 
ATOM     24  C   UNL     1      -0.903   2.654  25.483  0.00  0.00    -0.001 A 
BRANCH  22  25
ATOM     25  C   UNL     1      -1.164   4.798  25.166  0.00  0.00    +0.435 C 
ATOM     26  F   UNL     1      -1.243   5.604  25.319  0.00  0.00    -0.164 F 
ATOM     27  F   UNL     1      -1.927   4.668  25.451  0.00  0.00    -0.164 F 
ATOM     28  F   UNL     1      -0.400   4.928  24.880  0.00  0.00    -0.164 F 
ENDBRANCH  22  25
ENDBRANCH   4  19
BRANCH   5   6
ATOM      6  N   UNL     1      -2.180   1.124  24.959  0.00  0.00    -0.201 NA
ATOM      7  C   UNL     1      -2.836   0.919  24.503  0.00  0.00    +0.286 C 
ATOM      8  O   UNL     1      -2.731   0.584  23.755  0.00  0.00    -0.269 OA
BRANCH   7   9
ATOM      9  C   UNL     1      -3.597   1.047  24.793  0.00  0.00    +0.291 C 
BRANCH   9  10
ATOM     10  O   UNL     1      -4.106   1.567  24.403  0.00  0.00    -0.466 OA
BRANCH  10  11
ATOM     11  C   UNL     1      -4.692   1.964  24.824  0.00  0.00    +0.139 A 
ATOM     12  C   UNL     1      -4.659   2.785  24.903  0.00  0.00    +0.037 A 
ATOM     13  C   UNL     1      -5.247   3.183  25.325  0.00  0.00    +0.003 A 
ATOM     14  C   UNL     1      -5.867   2.760  25.667  0.00  0.00    +0.000 A 
ATOM     15  C   UNL     1      -5.900   1.940  25.588  0.00  0.00    +0.003 A 
ATOM     16  C   UNL     1      -5.313   1.542  25.167  0.00  0.00    +0.037 A 
ENDBRANCH  10  11
ENDBRANCH   9  10
ENDBRANCH   7   9
ENDBRANCH   5   6
TORSDOF 6
ENDMDL
MODEL 4
REMARK VINA RESULT:     -11.7      2.539      4.970
REMARK  Name = 
REMARK  6 active torsions:
REMARK  status: ('A' for Active; 'I' for Inactive)
REMARK    1  A    between atoms: C_4  and  C_19
REMARK    2  A    between atoms: C_5  and  N_6
REMARK    3  A    between atoms: C_7  and  C_9
REMARK    4  A    between atoms: C_9  and  O_10
REMARK    5  A    between atoms: O_10  and  C_11
REMARK    6  A    between atoms: C_22  and  C_25
REMARK                            x       y       z     vdW  Elec       q    Type
REMARK                         _______ _______ _______ _____ _____    ______ ____
ROOT
ATOM      1  O   UNL     1      -1.753  -2.029  24.681  0.00  0.00    -0.220 OA
ATOM      2  C   UNL     1      -2.005  -1.243  24.673  0.00  0.00    +0.184 C 
ATOM      3  C   UNL     1      -2.788  -0.985  24.704  0.00  0.00    +0.042 C 
ATOM      4  C   UNL     1      -2.785  -0.160  24.683  0.00  0.00    +0.049 C 
ATOM      5  C   UNL     1      -2.001   0.091  24.640  0.00  0.00    +0.132 C 
ATOM     17  C   UNL     1      -1.519  -0.579  24.634  0.00  0.00    +0.202 C 
ATOM     18  O   UNL     1      -0.695  -0.583  24.595  0.00  0.00    -0.219 OA
ENDROOT
BRANCH   4  19
ATOM     19  C   UNL     1      -3.451   0.327  24.702  0.00  0.00    -0.002 A 
ATOM     20  C   UNL     1      -3.647   0.783  24.044  0.00  0.00    +0.095 A 
ATOM     21  N   UNL     1      -4.312   1.271  24.063  0.00  0.00    -0.240 NA
ATOM     22  C   UNL     1      -4.781   1.302  24.741  0.00  0.00    +0.153 A 
ATOM     23  C   UNL     1      -4.585   0.845  25.400  0.00  0.00    +0.023 A 
ATOM     24  C   UNL     1      -3.919   0.358  25.381  0.00  0.00    -0.001 A 
BRANCH  22  25
ATOM     25  C   UNL     1      -5.447   1.789  24.761  0.00  0.00    +0.435 C 
ATOM     26  F   UNL     1      -6.112   2.277  24.781  0.00  0.00    -0.164 F 
ATOM     27  F   UNL     1      -5.933   1.130  24.664  0.00  0.00    -0.164 F 
ATOM     28  F   UNL     1      -4.960   2.448  24.859  0.00  0.00    -0.164 F 
ENDBRANCH  22  25
ENDBRANCH   4  19
BRANCH   5   6
ATOM      6  N   UNL     1      -1.743   0.874  24.608  0.00  0.00    -0.201 NA
ATOM      7  C   UNL     1      -1.232   1.165  25.187  0.00  0.00    +0.286 C 
ATOM      8  O   UNL     1      -0.978   0.671  25.799  0.00  0.00    -0.269 OA
BRANCH   7   9
ATOM      9  C   UNL     1      -0.975   1.947  25.155  0.00  0.00    +0.291 C 
BRANCH   9  10
ATOM     10  O   UNL     1      -1.189   2.477  25.751  0.00  0.00    -0.466 OA
BRANCH  10  11
ATOM     11  C   UNL     1      -1.304   3.274  25.572  0.00  0.00    +0.139 A 
ATOM     12  C   UNL     1      -2.008   3.647  25.786  0.00  0.00    +0.037 A 
ATOM     13  C   UNL     1      -2.124   4.445  25.608  0.00  0.00    +0.003 A 
ATOM     14  C   UNL     1      -1.535   4.868  25.216  0.00  0.00    +0.000 A 
ATOM     15  C   UNL     1      -0.831   4.495  25.001  0.00  0.00    +0.003 A 
ATOM     16  C   UNL     1      -0.716   3.699  25.180  0.00  0.00    +0.037 A 
ENDBRANCH  10  11
ENDBRANCH   9  10
ENDBRANCH   7   9
ENDBRANCH   5   6
TORSDOF 6
ENDMDL
MODEL 5
REMARK VINA RESULT:     -11.7      2.750      4.157
REMARK  Name = 
REMARK  6 active torsions:
REMARK  status: ('A' for Active; 'I' for Inactive)
REMARK    1  A    between atoms: C_4  and  C_19
REMARK    2  A    between atoms: C_5  and  N_6
REMARK    3  A    between atoms: C_7  and  C_9
REMARK    4  A    between atoms: C_9  and  O_10
REMARK    5  A    between atoms: O_10  and  C_11
REMARK    6  A    between atoms: C_22  and  C_25
REMARK                            x       y       z     vdW  Elec       q    Type
REMARK                         _______ _______ _______ _____ _____    ______ ____
ROOT
ATOM      1  O   UNL     1      -5.470   2.440  25.152  0.00  0.00    -0.220 OA
ATOM      2  C   UNL     1      -4.914   1.871  24.932  0.00  0.00    +0.184 C 
ATOM      3  C   UNL     1      -4.999   1.054  25.015  0.00  0.00    +0.042 C 
ATOM      4  C   UNL     1      -4.314   0.697  24.725  0.00  0.00    +0.049 C 
ATOM      5  C   UNL     1      -3.806   1.292  24.464  0.00  0.00    +0.132 C 
ATOM     17  C   UNL     1      -4.178   2.018  24.592  0.00  0.00    +0.202 C 
ATOM     18  O   UNL     1      -3.867   2.760  24.411  0.00  0.00    -0.219 OA
ENDROOT
BRANCH   4  19
ATOM     19  C   UNL     1      -4.163  -0.114  24.702  0.00  0.00    -0.002 A 
ATOM     20  C   UNL     1      -3.958  -0.516  25.392  0.00  0.00    +0.095 A 
ATOM     21  N   UNL     1      -3.807  -1.327  25.368  0.00  0.00    -0.240 NA
ATOM     22  C   UNL     1      -3.862  -1.736  24.653  0.00  0.00    +0.153 A 
ATOM     23  C   UNL     1      -4.068  -1.333  23.963  0.00  0.00    +0.023 A 
ATOM     24  C   UNL     1      -4.218  -0.522  23.986  0.00  0.00    -0.001 A 
BRANCH  22  25
ATOM     25  C   UNL     1      -3.712  -2.546  24.629  0.00  0.00    +0.435 C 
ATOM     26  F   UNL     1      -3.560  -3.357  24.605  0.00  0.00    -0.164 F 
ATOM     27  F   UNL     1      -4.284  -2.636  24.041  0.00  0.00    -0.164 F 
ATOM     28  F   UNL     1      -3.139  -2.457  25.216  0.00  0.00    -0.164 F 
ENDBRANCH  22  25
ENDBRANCH   4  19
BRANCH   5   6
ATOM      6  N   UNL     1      -3.059   1.182  24.133  0.00  0.00    -0.201 NA
ATOM      7  C   UNL     1      -2.398   1.534  24.479  0.00  0.00    +0.286 C 
ATOM      8  O   UNL     1      -2.484   1.996  25.158  0.00  0.00    -0.269 OA
BRANCH   7   9
ATOM      9  C   UNL     1      -1.651   1.424  24.149  0.00  0.00    +0.291 C 
BRANCH   9  10
ATOM     10  O   UNL     1      -1.062   1.037  24.578  0.00  0.00    -0.466 OA
BRANCH  10  11
ATOM     11  C   UNL     1      -0.485   0.598  24.184  0.00  0.00    +0.139 A 
ATOM     12  C   UNL     1      -0.462  -0.222  24.268  0.00  0.00    +0.037 A 
ATOM     13  C   UNL     1       0.116  -0.662  23.874  0.00  0.00    +0.003 A 
ATOM     14  C   UNL     1       0.670  -0.279  23.397  0.00  0.00    +0.000 A 
ATOM     15  C   UNL     1       0.647   0.541  23.314  0.00  0.00    +0.003 A 
ATOM     16  C   UNL     1       0.070   0.979  23.707  0.00  0.00    +0.037 A 
ENDBRANCH  10  11
ENDBRANCH   9  10
ENDBRANCH   7   9
ENDBRANCH   5   6
TORSDOF 6
ENDMDL
MODEL 6
REMARK VINA RESULT:     -11.4      2.743      4.683
REMARK  Name = 
REMARK  6 active torsions:
REMARK  status: ('A' for Active; 'I' for Inactive)
REMARK    1  A    between atoms: C_4  and  C_19
REMARK    2  A    between atoms: C_5  and  N_6
REMARK    3  A    between atoms: C_7  and  C_9
REMARK    4  A    between atoms: C_9  and  O_10
REMARK    5  A    between atoms: O_10  and  C_11
REMARK    6  A    between atoms: C_22  and  C_25
REMARK                            x       y       z     vdW  Elec       q    Type
REMARK                         _______ _______ _______ _____ _____    ______ ____
ROOT
ATOM      1  O   UNL     1       0.684   1.303  23.885  0.00  0.00    -0.220 OA
ATOM      2  C   UNL     1      -0.066   1.147  24.191  0.00  0.00    +0.184 C 
ATOM      3  C   UNL     1      -0.395   0.399  24.309  0.00  0.00    +0.042 C 
ATOM      4  C   UNL     1      -1.151   0.500  24.624  0.00  0.00    +0.049 C 
ATOM      5  C   UNL     1      -1.290   1.310  24.699  0.00  0.00    +0.132 C 
ATOM     17  C   UNL     1      -0.618   1.709  24.431  0.00  0.00    +0.202 C 
ATOM     18  O   UNL     1      -0.518   2.528  24.408  0.00  0.00    -0.219 OA
ENDROOT
BRANCH   4  19
ATOM     19  C   UNL     1      -1.676  -0.103  24.827  0.00  0.00    -0.002 A 
ATOM     20  C   UNL     1      -2.109  -0.487  24.240  0.00  0.00    +0.095 A 
ATOM     21  N   UNL     1      -2.634  -1.091  24.443  0.00  0.00    -0.240 NA
ATOM     22  C   UNL     1      -2.725  -1.309  25.234  0.00  0.00    +0.153 A 
ATOM     23  C   UNL     1      -2.291  -0.924  25.821  0.00  0.00    +0.023 A 
ATOM     24  C   UNL     1      -1.766  -0.321  25.618  0.00  0.00    -0.001 A 
BRANCH  22  25
ATOM     25  C   UNL     1      -3.250  -1.912  25.438  0.00  0.00    +0.435 C 
ATOM     26  F   UNL     1      -3.775  -2.514  25.642  0.00  0.00    -0.164 F 
ATOM     27  F   UNL     1      -2.737  -2.470  25.111  0.00  0.00    -0.164 F 
ATOM     28  F   UNL     1      -3.763  -1.354  25.764  0.00  0.00    -0.164 F 
ENDBRANCH  22  25
ENDBRANCH   4  19
BRANCH   5   6
ATOM      6  N   UNL     1      -1.977   1.659  24.991  0.00  0.00    -0.201 NA
ATOM      7  C   UNL     1      -2.398   2.195  24.526  0.00  0.00    +0.286 C 
ATOM      8  O   UNL     1      -2.130   2.382  23.767  0.00  0.00    -0.269 OA
BRANCH   7   9
ATOM      9  C   UNL     1      -3.086   2.544  24.817  0.00  0.00    +0.291 C 
BRANCH   9  10
ATOM     10  O   UNL     1      -3.797   2.461  24.408  0.00  0.00    -0.466 OA
BRANCH  10  11
ATOM     11  C   UNL     1      -4.514   2.490  24.814  0.00  0.00    +0.139 A 
ATOM     12  C   UNL     1      -4.736   3.180  25.209  0.00  0.00    +0.037 A 
ATOM     13  C   UNL     1      -5.454   3.209  25.616  0.00  0.00    +0.003 A 
ATOM     14  C   UNL     1      -5.948   2.549  25.628  0.00  0.00    +0.000 A 
ATOM     15  C   UNL     1      -5.725   1.859  25.234  0.00  0.00    +0.003 A 
ATOM     16  C   UNL     1      -5.009   1.830  24.827  0.00  0.00    +0.037 A 
ENDBRANCH  10  11
ENDBRANCH   9  10
ENDBRANCH   7   9
ENDBRANCH   5   6
TORSDOF 6
ENDMDL
