MODEL 1
REMARK VINA RESULT:      -7.8      0.000      0.000
REMARK  Name = 
REMARK  7 active torsions:
REMARK  status: ('A' for Active; 'I' for Inactive)
REMARK    1  A    between atoms: N_6  and  C_7
REMARK    2  A    between atoms: C_7  and  C_8
REMARK    3  A    between atoms: C_11  and  S_14
REMARK    4  A    between atoms: C_23  and  C_24
REMARK    5  A    between atoms: C_24  and  C_25
REMARK    6  A    between atoms: C_25  and  C_26
REMARK    7  A    between atoms: N_28  and  C_29
REMARK                            x       y       z     vdW  Elec       q    Type
REMARK                         _______ _______ _______ _____ _____    ______ ____
ROOT
ATOM      1  C   UNL     1       0.052  -0.208  23.500  0.00  0.00    +0.090 C 
ATOM      2  N   UNL     1       0.025   0.595  23.690  0.00  0.00    -0.271 NA
ATOM      3  C   UNL     1      -0.721   0.895  23.874  0.00  0.00    +0.083 C 
ATOM      4  C   UNL     1      -1.407   0.437  23.874  0.00  0.00    +0.035 C 
ATOM      5  C   UNL     1      -2.039   0.924  24.084  0.00  0.00    +0.074 C 
ATOM      6  N   UNL     1      -1.743   1.684  24.214  0.00  0.00    -0.262 NA
ATOM     18  C   UNL     1      -0.928   1.665  24.085  0.00  0.00    +0.151 C 
ATOM     19  C   UNL     1      -0.440   2.326  24.162  0.00  0.00    +0.257 C 
ATOM     20  O   UNL     1      -0.818   3.026  24.383  0.00  0.00    -0.272 OA
ATOM     21  N   UNL     1       0.375   2.380  24.049  0.00  0.00    -0.203 NA
ATOM     22  C   UNL     1       0.904   1.785  23.830  0.00  0.00    +0.131 C 
ATOM     23  C   UNL     1       0.748   0.991  23.670  0.00  0.00    +0.080 C 
ENDROOT
BRANCH   6   7
ATOM      7  C   UNL     1      -2.184   2.345  24.436  0.00  0.00    +0.100 C 
BRANCH   7   8
ATOM      8  C   UNL     1      -2.997   2.276  24.558  0.00  0.00    -0.006 A 
ATOM      9  C   UNL     1      -3.285   2.027  25.290  0.00  0.00    -0.002 A 
ATOM     10  C   UNL     1      -4.097   1.959  25.411  0.00  0.00    +0.018 A 
ATOM     11  C   UNL     1      -4.623   2.139  24.801  0.00  0.00    +0.106 A 
ATOM     12  C   UNL     1      -4.334   2.388  24.069  0.00  0.00    +0.018 A 
ATOM     13  C   UNL     1      -3.522   2.457  23.947  0.00  0.00    -0.002 A 
BRANCH  11  14
ATOM     14  S   UNL     1      -5.435   2.070  24.922  0.00  0.00    +0.010 S 
ATOM     15  C   UNL     1      -6.248   2.003  25.044  0.00  0.00    +0.182 C 
ATOM     16  O   UNL     1      -5.477   2.875  25.099  0.00  0.00    -0.169 OA
ATOM     17  O   UNL     1      -5.395   1.266  24.746  0.00  0.00    -0.169 OA
ENDBRANCH  11  14
ENDBRANCH   7   8
ENDBRANCH   6   7
BRANCH  23  24
ATOM     24  C   UNL     1       1.403   0.533  23.463  0.00  0.00    +0.027 C 
BRANCH  24  25
ATOM     25  C   UNL     1       2.050   0.882  23.088  0.00  0.00    +0.089 C 
BRANCH  25  26
ATOM     26  C   UNL     1       2.787   0.513  23.109  0.00  0.00    +0.246 C 
ATOM     27  O   UNL     1       2.839  -0.308  23.055  0.00  0.00    -0.273 OA
ATOM     28  N   UNL     1       3.473   0.966  23.182  0.00  0.00    -0.179 NA
BRANCH  28  29
ATOM     29  C   UNL     1       4.210   0.596  23.203  0.00  0.00    +0.073 A 
ATOM     30  C   UNL     1       4.589   0.393  22.499  0.00  0.00    +0.017 A 
ATOM     31  C   UNL     1       5.326   0.024  22.519  0.00  0.00    +0.001 A 
ATOM     32  C   UNL     1       5.685  -0.142  23.243  0.00  0.00    +0.000 A 
ATOM     33  C   UNL     1       5.306   0.061  23.947  0.00  0.00    +0.001 A 
ATOM     34  C   UNL     1       4.569   0.430  23.927  0.00  0.00    +0.017 A 
ENDBRANCH  28  29
ENDBRANCH  25  26
ENDBRANCH  24  25
ENDBRANCH  23  24
TORSDOF 7
ENDMDL
MODEL 2
REMARK VINA RESULT:      -7.4      2.220      7.340
REMARK  Name = 
REMARK  7 active torsions:
REMARK  status: ('A' for Active; 'I' for Inactive)
REMARK    1  A    between atoms: N_6  and  C_7
REMARK    2  A    between atoms: C_7  and  C_8
REMARK    3  A    between atoms: C_11  and  S_14
REMARK    4  A    between atoms: C_23  and  C_24
REMARK    5  A    between atoms: C_24  and  C_25
REMARK    6  A    between atoms: C_25  and  C_26
REMARK    7  A    between atoms: N_28  and  C_29
REMARK                            x       y       z     vdW  Elec       q    Type
REMARK                         _______ _______ _______ _____ _____    ______ ____
ROOT
ATOM      1  C   UNL     1      -0.573   2.068  24.692  0.00  0.00    +0.090 C 
ATOM      2  N   UNL     1      -0.496   1.354  24.285  0.00  0.00    -0.271 NA
ATOM      3  C   UNL     1       0.246   1.209  23.955  0.00  0.00    +0.083 C 
ATOM      4  C   UNL     1       0.882   1.732  24.018  0.00  0.00    +0.035 C 
ATOM      5  C   UNL     1       1.525   1.400  23.623  0.00  0.00    +0.074 C 
ATOM      6  N   UNL     1       1.288   0.672  23.315  0.00  0.00    -0.262 NA
ATOM     18  C   UNL     1       0.497   0.554  23.521  0.00  0.00    +0.151 C 
ATOM     19  C   UNL     1       0.067  -0.117  23.309  0.00  0.00    +0.257 C 
ATOM     20  O   UNL     1       0.479  -0.681  22.868  0.00  0.00    -0.272 OA
ATOM     21  N   UNL     1      -0.719  -0.300  23.479  0.00  0.00    -0.203 NA
ATOM     22  C   UNL     1      -1.270   0.145  23.903  0.00  0.00    +0.131 C 
ATOM     23  C   UNL     1      -1.170   0.881  24.262  0.00  0.00    +0.080 C 
ENDROOT
BRANCH   6   7
ATOM      7  C   UNL     1       1.758   0.153  22.878  0.00  0.00    +0.100 C 
BRANCH   7   8
ATOM      8  C   UNL     1       2.576   0.148  22.986  0.00  0.00    -0.006 A 
ATOM      9  C   UNL     1       3.035   0.762  22.682  0.00  0.00    -0.002 A 
ATOM     10  C   UNL     1       3.852   0.756  22.789  0.00  0.00    +0.018 A 
ATOM     11  C   UNL     1       4.211   0.138  23.201  0.00  0.00    +0.106 A 
ATOM     12  C   UNL     1       3.751  -0.476  23.504  0.00  0.00    +0.018 A 
ATOM     13  C   UNL     1       2.934  -0.471  23.397  0.00  0.00    -0.002 A 
BRANCH  11  14
ATOM     14  S   UNL     1       5.029   0.133  23.308  0.00  0.00    +0.010 S 
ATOM     15  C   UNL     1       5.846   0.126  23.416  0.00  0.00    +0.182 C 
ATOM     16  O   UNL     1       4.999  -0.673  23.487  0.00  0.00    -0.169 OA
ATOM     17  O   UNL     1       5.059   0.937  23.130  0.00  0.00    -0.169 OA
ENDBRANCH  11  14
ENDBRANCH   7   8
ENDBRANCH   6   7
BRANCH  23  24
ATOM     24  C   UNL     1      -1.834   1.183  24.649  0.00  0.00    +0.027 C 
BRANCH  24  25
ATOM     25  C   UNL     1      -2.588   1.051  24.340  0.00  0.00    +0.089 C 
BRANCH  25  26
ATOM     26  C   UNL     1      -3.252   1.339  24.735  0.00  0.00    +0.246 C 
ATOM     27  O   UNL     1      -3.366   1.163  25.533  0.00  0.00    -0.273 OA
ATOM     28  N   UNL     1      -3.802   1.803  24.333  0.00  0.00    -0.179 NA
BRANCH  28  29
ATOM     29  C   UNL     1      -4.466   2.091  24.729  0.00  0.00    +0.073 A 
ATOM     30  C   UNL     1      -4.456   2.850  25.053  0.00  0.00    +0.017 A 
ATOM     31  C   UNL     1      -5.119   3.138  25.449  0.00  0.00    +0.001 A 
ATOM     32  C   UNL     1      -5.794   2.669  25.520  0.00  0.00    +0.000 A 
ATOM     33  C   UNL     1      -5.804   1.910  25.195  0.00  0.00    +0.001 A 
ATOM     34  C   UNL     1      -5.140   1.622  24.800  0.00  0.00    +0.017 A 
ENDBRANCH  28  29
ENDBRANCH  25  26
ENDBRANCH  24  25
ENDBRANCH  23  24
TORSDOF 7
ENDMDL
MODEL 3
REMARK VINA RESULT:      -6.6     15.269     16.318
REMARK  Name = 
REMARK  7 active torsions:
REMARK  status: ('A' for Active; 'I' for Inactive)
REMARK    1  A    between atoms: N_6  and  C_7
REMARK    2  A    between atoms: C_7  and  C_8
REMARK    3  A    between atoms: C_11  and  S_14
REMARK    4  A    between atoms: C_23  and  C_24
REMARK    5  A    between atoms: C_24  and  C_25
REMARK    6  A    between atoms: C_25  and  C_26
REMARK    7  A    between atoms: N_28  and  C_29
REMARK                            x       y       z     vdW  Elec       q    Type
REMARK                         _______ _______ _______ _____ _____    ______ ____
ROOT
ATOM      1  C   UNL     1      -7.336 -10.291  13.204  0.00  0.00    +0.090 C 
ATOM      2  N   UNL     1      -6.840 -10.201  13.858  0.00  0.00    -0.271 NA
ATOM      3  C   UNL     1      -7.218 -10.161  14.590  0.00  0.00    +0.083 C 
ATOM      4  C   UNL     1      -8.037 -10.207  14.683  0.00  0.00    +0.035 C 
ATOM      5  C   UNL     1      -8.207 -10.148  15.487  0.00  0.00    +0.074 C 
ATOM      6  N   UNL     1      -7.493 -10.065  15.893  0.00  0.00    -0.262 NA
ATOM     18  C   UNL     1      -6.882 -10.074  15.339  0.00  0.00    +0.151 C 
ATOM     19  C   UNL     1      -6.085 -10.004  15.539  0.00  0.00    +0.257 C 
ATOM     20  O   UNL     1      -5.924  -9.922  16.345  0.00  0.00    -0.272 OA
ATOM     21  N   UNL     1      -5.427 -10.004  15.042  0.00  0.00    -0.203 NA
ATOM     22  C   UNL     1      -5.404 -10.075  14.219  0.00  0.00    +0.131 C 
ATOM     23  C   UNL     1      -6.033 -10.163  13.693  0.00  0.00    +0.080 C 
ENDROOT
BRANCH   6   7
ATOM      7  C   UNL     1      -7.405  -9.987  16.710  0.00  0.00    +0.100 C 
BRANCH   7   8
ATOM      8  C   UNL     1      -8.068 -10.017  17.201  0.00  0.00    -0.006 A 
ATOM      9  C   UNL     1      -8.478  -9.325  17.383  0.00  0.00    -0.002 A 
ATOM     10  C   UNL     1      -9.140  -9.357  17.873  0.00  0.00    +0.018 A 
ATOM     11  C   UNL     1      -9.394 -10.078  18.181  0.00  0.00    +0.106 A 
ATOM     12  C   UNL     1      -8.983 -10.771  17.998  0.00  0.00    +0.018 A 
ATOM     13  C   UNL     1      -8.321 -10.740  17.508  0.00  0.00    -0.002 A 
BRANCH  11  14
ATOM     14  S   UNL     1     -10.056 -10.109  18.671  0.00  0.00    +0.010 S 
ATOM     15  C   UNL     1     -10.719 -10.140  19.160  0.00  0.00    +0.182 C 
ATOM     16  O   UNL     1     -10.464  -9.616  18.150  0.00  0.00    -0.169 OA
ATOM     17  O   UNL     1      -9.649 -10.603  19.192  0.00  0.00    -0.169 OA
ENDBRANCH  11  14
ENDBRANCH   7   8
ENDBRANCH   6   7
BRANCH  23  24
ATOM     24  C   UNL     1      -5.827 -10.219  12.896  0.00  0.00    +0.027 C 
BRANCH  24  25
ATOM     25  C   UNL     1      -5.075  -9.987  12.646  0.00  0.00    +0.089 C 
BRANCH  25  26
ATOM     26  C   UNL     1      -4.910  -9.925  11.841  0.00  0.00    +0.246 C 
ATOM     27  O   UNL     1      -4.965 -10.590  11.355  0.00  0.00    -0.273 OA
ATOM     28  N   UNL     1      -4.688  -9.198  11.520  0.00  0.00    -0.179 NA
BRANCH  28  29
ATOM     29  C   UNL     1      -4.522  -9.136  10.715  0.00  0.00    +0.073 A 
ATOM     30  C   UNL     1      -3.765  -9.309  10.435  0.00  0.00    +0.017 A 
ATOM     31  C   UNL     1      -3.600  -9.247   9.629  0.00  0.00    +0.001 A 
ATOM     32  C   UNL     1      -4.190  -9.011   9.103  0.00  0.00    +0.000 A 
ATOM     33  C   UNL     1      -4.946  -8.838   9.383  0.00  0.00    +0.001 A 
ATOM     34  C   UNL     1      -5.112  -8.900  10.189  0.00  0.00    +0.017 A 
ENDBRANCH  28  29
ENDBRANCH  25  26
ENDBRANCH  24  25
ENDBRANCH  23  24
TORSDOF 7
ENDMDL
MODEL 4
REMARK VINA RESULT:      -5.4     15.288     17.868
REMARK  Name = 
REMARK  7 active torsions:
REMARK  status: ('A' for Active; 'I' for Inactive)
REMARK    1  A    between atoms: N_6  and  C_7
REMARK    2  A    between atoms: C_7  and  C_8
REMARK    3  A    between atoms: C_11  and  S_14
REMARK    4  A    between atoms: C_23  and  C_24
REMARK    5  A    between atoms: C_24  and  C_25
REMARK    6  A    between atoms: C_25  and  C_26
REMARK    7  A    between atoms: N_28  and  C_29
REMARK                            x       y       z     vdW  Elec       q    Type
REMARK                         _______ _______ _______ _____ _____    ______ ____
ROOT
ATOM      1  C   UNL     1      10.669  -5.794  32.682  0.00  0.00    +0.090 C 
ATOM      2  N   UNL     1      11.315  -6.275  32.499  0.00  0.00    -0.271 NA
ATOM      3  C   UNL     1      12.035  -5.885  32.402  0.00  0.00    +0.083 C 
ATOM      4  C   UNL     1      12.124  -5.068  32.479  0.00  0.00    +0.035 C 
ATOM      5  C   UNL     1      12.917  -4.884  32.344  0.00  0.00    +0.074 C 
ATOM      6  N   UNL     1      13.318  -5.587  32.183  0.00  0.00    -0.262 NA
ATOM     18  C   UNL     1      12.773  -6.206  32.219  0.00  0.00    +0.151 C 
ATOM     19  C   UNL     1      12.972  -6.996  32.088  0.00  0.00    +0.257 C 
ATOM     20  O   UNL     1      13.766  -7.140  31.915  0.00  0.00    -0.272 OA
ATOM     21  N   UNL     1      12.483  -7.660  32.108  0.00  0.00    -0.203 NA
ATOM     22  C   UNL     1      11.673  -7.698  32.263  0.00  0.00    +0.131 C 
ATOM     23  C   UNL     1      11.154  -7.082  32.437  0.00  0.00    +0.080 C 
ENDROOT
BRANCH   6   7
ATOM      7  C   UNL     1      14.123  -5.659  32.016  0.00  0.00    +0.100 C 
BRANCH   7   8
ATOM      8  C   UNL     1      14.580  -4.984  31.890  0.00  0.00    -0.006 A 
ATOM      9  C   UNL     1      14.699  -4.704  31.123  0.00  0.00    -0.002 A 
ATOM     10  C   UNL     1      15.155  -4.029  30.998  0.00  0.00    +0.018 A 
ATOM     11  C   UNL     1      15.493  -3.633  31.638  0.00  0.00    +0.106 A 
ATOM     12  C   UNL     1      15.373  -3.914  32.405  0.00  0.00    +0.018 A 
ATOM     13  C   UNL     1      14.917  -4.588  32.531  0.00  0.00    -0.002 A 
BRANCH  11  14
ATOM     14  S   UNL     1      15.949  -2.958  31.513  0.00  0.00    +0.010 S 
ATOM     15  C   UNL     1      16.405  -2.282  31.388  0.00  0.00    +0.182 C 
ATOM     16  O   UNL     1      15.527  -2.564  32.102  0.00  0.00    -0.169 OA
ATOM     17  O   UNL     1      16.371  -3.352  30.923  0.00  0.00    -0.169 OA
ENDBRANCH  11  14
ENDBRANCH   7   8
ENDBRANCH   6   7
BRANCH  23  24
ATOM     24  C   UNL     1      10.369  -7.302  32.566  0.00  0.00    +0.027 C 
BRANCH  24  25
ATOM     25  C   UNL     1      10.106  -8.049  32.335  0.00  0.00    +0.089 C 
BRANCH  25  26
ATOM     26  C   UNL     1       9.298  -8.214  32.317  0.00  0.00    +0.246 C 
ATOM     27  O   UNL     1       8.792  -7.865  32.867  0.00  0.00    -0.273 OA
ATOM     28  N   UNL     1       8.995  -8.729  31.748  0.00  0.00    -0.179 NA
BRANCH  28  29
ATOM     29  C   UNL     1       8.187  -8.895  31.729  0.00  0.00    +0.073 A 
ATOM     30  C   UNL     1       7.682  -8.430  31.271  0.00  0.00    +0.017 A 
ATOM     31  C   UNL     1       6.874  -8.596  31.253  0.00  0.00    +0.001 A 
ATOM     32  C   UNL     1       6.571  -9.225  31.692  0.00  0.00    +0.000 A 
ATOM     33  C   UNL     1       7.077  -9.689  32.150  0.00  0.00    +0.001 A 
ATOM     34  C   UNL     1       7.885  -9.524  32.168  0.00  0.00    +0.017 A 
ENDBRANCH  28  29
ENDBRANCH  25  26
ENDBRANCH  24  25
ENDBRANCH  23  24
TORSDOF 7
ENDMDL
MODEL 5
REMARK VINA RESULT:      -5.2     14.844     15.563
REMARK  Name = 
REMARK  7 active torsions:
REMARK  status: ('A' for Active; 'I' for Inactive)
REMARK    1  A    between atoms: N_6  and  C_7
REMARK    2  A    between atoms: C_7  and  C_8
REMARK    3  A    between atoms: C_11  and  S_14
REMARK    4  A    between atoms: C_23  and  C_24
REMARK    5  A    between atoms: C_24  and  C_25
REMARK    6  A    between atoms: C_25  and  C_26
REMARK    7  A    between atoms: N_28  and  C_29
REMARK                            x       y       z     vdW  Elec       q    Type
REMARK                         _______ _______ _______ _____ _____    ______ ____
ROOT
ATOM      1  C   UNL     1      -5.968 -10.242  13.486  0.00  0.00    +0.090 C 
ATOM      2  N   UNL     1      -5.675 -10.338  14.252  0.00  0.00    -0.271 NA
ATOM      3  C   UNL     1      -6.220 -10.220  14.860  0.00  0.00    +0.083 C 
ATOM      4  C   UNL     1      -7.010 -10.018  14.730  0.00  0.00    +0.035 C 
ATOM      5  C   UNL     1      -7.379  -9.947  15.464  0.00  0.00    +0.074 C 
ATOM      6  N   UNL     1      -6.817 -10.105  16.048  0.00  0.00    -0.262 NA
ATOM     18  C   UNL     1      -6.101 -10.274  15.674  0.00  0.00    +0.151 C 
ATOM     19  C   UNL     1      -5.408 -10.459  16.082  0.00  0.00    +0.257 C 
ATOM     20  O   UNL     1      -5.469 -10.469  16.905  0.00  0.00    -0.272 OA
ATOM     21  N   UNL     1      -4.663 -10.637  15.776  0.00  0.00    -0.203 NA
ATOM     22  C   UNL     1      -4.427 -10.673  14.985  0.00  0.00    +0.131 C 
ATOM     23  C   UNL     1      -4.877 -10.540  14.308  0.00  0.00    +0.080 C 
ENDROOT
BRANCH   6   7
ATOM      7  C   UNL     1      -6.949 -10.096  16.863  0.00  0.00    +0.100 C 
BRANCH   7   8
ATOM      8  C   UNL     1      -7.702  -9.934  17.157  0.00  0.00    -0.006 A 
ATOM      9  C   UNL     1      -8.243 -10.546  17.268  0.00  0.00    -0.002 A 
ATOM     10  C   UNL     1      -8.996 -10.382  17.562  0.00  0.00    +0.018 A 
ATOM     11  C   UNL     1      -9.209  -9.607  17.745  0.00  0.00    +0.106 A 
ATOM     12  C   UNL     1      -8.667  -8.994  17.633  0.00  0.00    +0.018 A 
ATOM     13  C   UNL     1      -7.914  -9.157  17.340  0.00  0.00    -0.002 A 
BRANCH  11  14
ATOM     14  S   UNL     1      -9.961  -9.443  18.039  0.00  0.00    +0.010 S 
ATOM     15  C   UNL     1     -10.714  -9.278  18.332  0.00  0.00    +0.182 C 
ATOM     16  O   UNL     1      -9.962  -8.723  17.636  0.00  0.00    -0.169 OA
ATOM     17  O   UNL     1      -9.962 -10.163  18.442  0.00  0.00    -0.169 OA
ENDBRANCH  11  14
ENDBRANCH   7   8
ENDBRANCH   6   7
BRANCH  23  24
ATOM     24  C   UNL     1      -4.476 -10.619  13.591  0.00  0.00    +0.027 C 
BRANCH  24  25
ATOM     25  C   UNL     1      -3.655 -10.699  13.583  0.00  0.00    +0.089 C 
BRANCH  25  26
ATOM     26  C   UNL     1      -3.228 -10.502  12.906  0.00  0.00    +0.246 C 
ATOM     27  O   UNL     1      -3.537 -10.669  12.160  0.00  0.00    -0.273 OA
ATOM     28  N   UNL     1      -2.490 -10.138  12.975  0.00  0.00    -0.179 NA
BRANCH  28  29
ATOM     29  C   UNL     1      -2.063  -9.941  12.298  0.00  0.00    +0.073 A 
ATOM     30  C   UNL     1      -1.241  -9.876  12.333  0.00  0.00    +0.017 A 
ATOM     31  C   UNL     1      -0.814  -9.679  11.656  0.00  0.00    +0.001 A 
ATOM     32  C   UNL     1      -1.207  -9.547  10.943  0.00  0.00    +0.000 A 
ATOM     33  C   UNL     1      -2.029  -9.612  10.908  0.00  0.00    +0.001 A 
ATOM     34  C   UNL     1      -2.457  -9.809  11.585  0.00  0.00    +0.017 A 
ENDBRANCH  28  29
ENDBRANCH  25  26
ENDBRANCH  24  25
ENDBRANCH  23  24
TORSDOF 7
ENDMDL
MODEL 6
REMARK VINA RESULT:      -5.2     15.080     18.173
REMARK  Name = 
REMARK  7 active torsions:
REMARK  status: ('A' for Active; 'I' for Inactive)
REMARK    1  A    between atoms: N_6  and  C_7
REMARK    2  A    between atoms: C_7  and  C_8
REMARK    3  A    between atoms: C_11  and  S_14
REMARK    4  A    between atoms: C_23  and  C_24
REMARK    5  A    between atoms: C_24  and  C_25
REMARK    6  A    between atoms: C_25  and  C_26
REMARK    7  A    between atoms: N_28  and  C_29
REMARK                            x       y       z     vdW  Elec       q    Type
REMARK                         _______ _______ _______ _____ _____    ______ ____
ROOT
ATOM      1  C   UNL     1      11.065  -6.494  31.813  0.00  0.00    +0.090 C 
ATOM      2  N   UNL     1      11.474  -7.181  31.609  0.00  0.00    -0.271 NA
ATOM      3  C   UNL     1      12.211  -7.068  31.256  0.00  0.00    +0.083 C 
ATOM      4  C   UNL     1      12.534  -6.323  31.108  0.00  0.00    +0.035 C 
ATOM      5  C   UNL     1      13.271  -6.431  30.753  0.00  0.00    +0.074 C 
ATOM      6  N   UNL     1      13.403  -7.242  30.681  0.00  0.00    -0.262 NA
ATOM     18  C   UNL     1      12.748  -7.636  30.992  0.00  0.00    +0.151 C 
ATOM     19  C   UNL     1      12.680  -8.457  31.016  0.00  0.00    +0.257 C 
ATOM     20  O   UNL     1      13.319  -8.878  30.705  0.00  0.00    -0.272 OA
ATOM     21  N   UNL     1      12.060  -8.914  31.310  0.00  0.00    -0.203 NA
ATOM     22  C   UNL     1      11.352  -8.662  31.653  0.00  0.00    +0.131 C 
ATOM     23  C   UNL     1      11.092  -7.890  31.786  0.00  0.00    +0.080 C 
ENDROOT
BRANCH   6   7
ATOM      7  C   UNL     1      14.073  -7.598  30.355  0.00  0.00    +0.100 C 
BRANCH   7   8
ATOM      8  C   UNL     1      14.709  -7.133  30.110  0.00  0.00    -0.006 A 
ATOM      9  C   UNL     1      14.725  -6.826  29.345  0.00  0.00    -0.002 A 
ATOM     10  C   UNL     1      15.361  -6.361  29.102  0.00  0.00    +0.018 A 
ATOM     11  C   UNL     1      15.981  -6.202  29.622  0.00  0.00    +0.106 A 
ATOM     12  C   UNL     1      15.963  -6.509  30.388  0.00  0.00    +0.018 A 
ATOM     13  C   UNL     1      15.328  -6.974  30.632  0.00  0.00    -0.002 A 
BRANCH  11  14
ATOM     14  S   UNL     1      16.616  -5.737  29.379  0.00  0.00    +0.010 S 
ATOM     15  C   UNL     1      17.253  -5.273  29.135  0.00  0.00    +0.182 C 
ATOM     16  O   UNL     1      16.989  -6.407  29.073  0.00  0.00    -0.169 OA
ATOM     17  O   UNL     1      16.245  -5.067  29.685  0.00  0.00    -0.169 OA
ENDBRANCH  11  14
ENDBRANCH   7   8
ENDBRANCH   6   7
BRANCH  23  24
ATOM     24  C   UNL     1      10.351  -7.820  32.143  0.00  0.00    +0.027 C 
BRANCH  24  25
ATOM     25  C   UNL     1       9.818  -8.449  32.116  0.00  0.00    +0.089 C 
BRANCH  25  26
ATOM     26  C   UNL     1       9.024  -8.324  32.300  0.00  0.00    +0.246 C 
ATOM     27  O   UNL     1       8.815  -7.767  32.872  0.00  0.00    -0.273 OA
ATOM     28  N   UNL     1       8.438  -8.757  31.912  0.00  0.00    -0.179 NA
BRANCH  28  29
ATOM     29  C   UNL     1       7.644  -8.632  32.096  0.00  0.00    +0.073 A 
ATOM     30  C   UNL     1       7.210  -8.062  31.686  0.00  0.00    +0.017 A 
ATOM     31  C   UNL     1       6.416  -7.937  31.870  0.00  0.00    +0.001 A 
ATOM     32  C   UNL     1       6.055  -8.382  32.464  0.00  0.00    +0.000 A 
ATOM     33  C   UNL     1       6.488  -8.952  32.873  0.00  0.00    +0.001 A 
ATOM     34  C   UNL     1       7.282  -9.077  32.689  0.00  0.00    +0.017 A 
ENDBRANCH  28  29
ENDBRANCH  25  26
ENDBRANCH  24  25
ENDBRANCH  23  24
TORSDOF 7
ENDMDL
MODEL 7
REMARK VINA RESULT:      -5.0     16.262     17.156
REMARK  Name = 
REMARK  7 active torsions:
REMARK  status: ('A' for Active; 'I' for Inactive)
REMARK    1  A    between atoms: N_6  and  C_7
REMARK    2  A    between atoms: C_7  and  C_8
REMARK    3  A    between atoms: C_11  and  S_14
REMARK    4  A    between atoms: C_23  and  C_24
REMARK    5  A    between atoms: C_24  and  C_25
REMARK    6  A    between atoms: C_25  and  C_26
REMARK    7  A    between atoms: N_28  and  C_29
REMARK                            x       y       z     vdW  Elec       q    Type
REMARK                         _______ _______ _______ _____ _____    ______ ____
ROOT
ATOM      1  C   UNL     1      -6.738 -10.043  13.598  0.00  0.00    +0.090 C 
ATOM      2  N   UNL     1      -7.539  -9.945  13.424  0.00  0.00    -0.271 NA
ATOM      3  C   UNL     1      -8.048  -9.939  14.074  0.00  0.00    +0.083 C 
ATOM      4  C   UNL     1      -7.791 -10.023  14.853  0.00  0.00    +0.035 C 
ATOM      5  C   UNL     1      -8.452  -9.989  15.345  0.00  0.00    +0.074 C 
ATOM      6  N   UNL     1      -9.118  -9.884  14.870  0.00  0.00    -0.262 NA
ATOM     18  C   UNL     1      -8.868  -9.853  14.084  0.00  0.00    +0.151 C 
ATOM     19  C   UNL     1      -9.382  -9.751  13.447  0.00  0.00    +0.257 C 
ATOM     20  O   UNL     1     -10.182  -9.681  13.640  0.00  0.00    -0.272 OA
ATOM     21  N   UNL     1      -9.204  -9.711  12.643  0.00  0.00    -0.203 NA
ATOM     22  C   UNL     1      -8.465  -9.763  12.277  0.00  0.00    +0.131 C 
ATOM     23  C   UNL     1      -7.725  -9.867  12.625  0.00  0.00    +0.080 C 
ENDROOT
BRANCH   6   7
ATOM      7  C   UNL     1      -9.898  -9.820  15.134  0.00  0.00    +0.100 C 
BRANCH   7   8
ATOM      8  C   UNL     1     -10.062  -9.840  15.942  0.00  0.00    -0.006 A 
ATOM      9  C   UNL     1     -10.158 -10.564  16.326  0.00  0.00    -0.002 A 
ATOM     10  C   UNL     1     -10.322 -10.582  17.134  0.00  0.00    +0.018 A 
ATOM     11  C   UNL     1     -10.390  -9.879  17.558  0.00  0.00    +0.106 A 
ATOM     12  C   UNL     1     -10.294  -9.155  17.173  0.00  0.00    +0.018 A 
ATOM     13  C   UNL     1     -10.130  -9.135  16.366  0.00  0.00    -0.002 A 
BRANCH  11  14
ATOM     14  S   UNL     1     -10.554  -9.897  18.366  0.00  0.00    +0.010 S 
ATOM     15  C   UNL     1     -10.718  -9.914  19.174  0.00  0.00    +0.182 C 
ATOM     16  O   UNL     1     -10.397  -9.089  18.416  0.00  0.00    -0.169 OA
ATOM     17  O   UNL     1     -10.712 -10.705  18.317  0.00  0.00    -0.169 OA
ENDBRANCH  11  14
ENDBRANCH   7   8
ENDBRANCH   6   7
BRANCH  23  24
ATOM     24  C   UNL     1      -7.086  -9.897  12.103  0.00  0.00    +0.027 C 
BRANCH  24  25
ATOM     25  C   UNL     1      -7.027  -9.347  11.490  0.00  0.00    +0.089 C 
BRANCH  25  26
ATOM     26  C   UNL     1      -6.411  -9.403  10.944  0.00  0.00    +0.246 C 
ATOM     27  O   UNL     1      -6.173 -10.142  10.665  0.00  0.00    -0.273 OA
ATOM     28  N   UNL     1      -6.034  -8.720  10.677  0.00  0.00    -0.179 NA
BRANCH  28  29
ATOM     29  C   UNL     1      -5.418  -8.776  10.131  0.00  0.00    +0.073 A 
ATOM     30  C   UNL     1      -5.582  -8.767   9.323  0.00  0.00    +0.017 A 
ATOM     31  C   UNL     1      -4.966  -8.823   8.777  0.00  0.00    +0.001 A 
ATOM     32  C   UNL     1      -4.187  -8.887   9.038  0.00  0.00    +0.000 A 
ATOM     33  C   UNL     1      -4.023  -8.896   9.847  0.00  0.00    +0.001 A 
ATOM     34  C   UNL     1      -4.639  -8.840  10.393  0.00  0.00    +0.017 A 
ENDBRANCH  28  29
ENDBRANCH  25  26
ENDBRANCH  24  25
ENDBRANCH  23  24
TORSDOF 7
ENDMDL
MODEL 8
REMARK VINA RESULT:      -4.6     15.134     16.030
REMARK  Name = 
REMARK  7 active torsions:
REMARK  status: ('A' for Active; 'I' for Inactive)
REMARK    1  A    between atoms: N_6  and  C_7
REMARK    2  A    between atoms: C_7  and  C_8
REMARK    3  A    between atoms: C_11  and  S_14
REMARK    4  A    between atoms: C_23  and  C_24
REMARK    5  A    between atoms: C_24  and  C_25
REMARK    6  A    between atoms: C_25  and  C_26
REMARK    7  A    between atoms: N_28  and  C_29
REMARK                            x       y       z     vdW  Elec       q    Type
REMARK                         _______ _______ _______ _____ _____    ______ ____
ROOT
ATOM      1  C   UNL     1      -4.902 -10.171  14.993  0.00  0.00    +0.090 C 
ATOM      2  N   UNL     1      -5.571 -10.260  14.516  0.00  0.00    -0.271 NA
ATOM      3  C   UNL     1      -6.295 -10.124  14.887  0.00  0.00    +0.083 C 
ATOM      4  C   UNL     1      -6.366  -9.911  15.681  0.00  0.00    +0.035 C 
ATOM      5  C   UNL     1      -7.169  -9.823  15.850  0.00  0.00    +0.074 C 
ATOM      6  N   UNL     1      -7.594  -9.982  15.160  0.00  0.00    -0.262 NA
ATOM     18  C   UNL     1      -7.053 -10.167  14.565  0.00  0.00    +0.151 C 
ATOM     19  C   UNL     1      -7.274 -10.358  13.794  0.00  0.00    +0.257 C 
ATOM     20  O   UNL     1      -8.086 -10.354  13.643  0.00  0.00    -0.272 OA
ATOM     21  N   UNL     1      -6.792 -10.552  13.153  0.00  0.00    -0.203 NA
ATOM     22  C   UNL     1      -5.969 -10.604  13.126  0.00  0.00    +0.131 C 
ATOM     23  C   UNL     1      -5.425 -10.474  13.733  0.00  0.00    +0.080 C 
ENDROOT
BRANCH   6   7
ATOM      7  C   UNL     1      -8.415  -9.958  15.080  0.00  0.00    +0.100 C 
BRANCH   7   8
ATOM      8  C   UNL     1      -8.875  -9.586  15.655  0.00  0.00    -0.006 A 
ATOM      9  C   UNL     1      -9.066  -8.787  15.576  0.00  0.00    -0.002 A 
ATOM     10  C   UNL     1      -9.525  -8.416  16.151  0.00  0.00    +0.018 A 
ATOM     11  C   UNL     1      -9.794  -8.841  16.805  0.00  0.00    +0.106 A 
ATOM     12  C   UNL     1      -9.602  -9.640  16.882  0.00  0.00    +0.018 A 
ATOM     13  C   UNL     1      -9.143 -10.012  16.308  0.00  0.00    -0.002 A 
BRANCH  11  14
ATOM     14  S   UNL     1     -10.253  -8.469  17.379  0.00  0.00    +0.010 S 
ATOM     15  C   UNL     1     -10.714  -8.099  17.955  0.00  0.00    +0.182 C 
ATOM     16  O   UNL     1     -10.586  -9.197  17.583  0.00  0.00    -0.169 OA
ATOM     17  O   UNL     1      -9.922  -7.742  17.176  0.00  0.00    -0.169 OA
ENDBRANCH  11  14
ENDBRANCH   7   8
ENDBRANCH   6   7
BRANCH  23  24
ATOM     24  C   UNL     1      -4.632 -10.571  13.529  0.00  0.00    +0.027 C 
BRANCH  24  25
ATOM     25  C   UNL     1      -4.416 -10.646  12.736  0.00  0.00    +0.089 C 
BRANCH  25  26
ATOM     26  C   UNL     1      -3.695 -10.342  12.474  0.00  0.00    +0.246 C 
ATOM     27  O   UNL     1      -3.168 -10.006  13.013  0.00  0.00    -0.273 OA
ATOM     28  N   UNL     1      -3.502 -10.372  11.672  0.00  0.00    -0.179 NA
BRANCH  28  29
ATOM     29  C   UNL     1      -2.781 -10.067  11.410  0.00  0.00    +0.073 A 
ATOM     30  C   UNL     1      -2.081 -10.279  11.792  0.00  0.00    +0.017 A 
ATOM     31  C   UNL     1      -1.361  -9.974  11.530  0.00  0.00    +0.001 A 
ATOM     32  C   UNL     1      -1.340  -9.458  10.887  0.00  0.00    +0.000 A 
ATOM     33  C   UNL     1      -2.040  -9.246  10.506  0.00  0.00    +0.001 A 
ATOM     34  C   UNL     1      -2.761  -9.551  10.767  0.00  0.00    +0.017 A 
ENDBRANCH  28  29
ENDBRANCH  25  26
ENDBRANCH  24  25
ENDBRANCH  23  24
TORSDOF 7
ENDMDL
MODEL 9
REMARK VINA RESULT:      -4.3     15.769     17.162
REMARK  Name = 
REMARK  7 active torsions:
REMARK  status: ('A' for Active; 'I' for Inactive)
REMARK    1  A    between atoms: N_6  and  C_7
REMARK    2  A    between atoms: C_7  and  C_8
REMARK    3  A    between atoms: C_11  and  S_14
REMARK    4  A    between atoms: C_23  and  C_24
REMARK    5  A    between atoms: C_24  and  C_25
REMARK    6  A    between atoms: C_25  and  C_26
REMARK    7  A    between atoms: N_28  and  C_29
REMARK                            x       y       z     vdW  Elec       q    Type
REMARK                         _______ _______ _______ _____ _____    ______ ____
ROOT
ATOM      1  C   UNL     1      -7.775 -10.355  13.160  0.00  0.00    +0.090 C 
ATOM      2  N   UNL     1      -6.966 -10.260  13.297  0.00  0.00    -0.271 NA
ATOM      3  C   UNL     1      -6.736 -10.261  14.089  0.00  0.00    +0.083 C 
ATOM      4  C   UNL     1      -7.265 -10.349  14.717  0.00  0.00    +0.035 C 
ATOM      5  C   UNL     1      -6.834 -10.322  15.419  0.00  0.00    +0.074 C 
ATOM      6  N   UNL     1      -6.038 -10.217  15.226  0.00  0.00    -0.262 NA
ATOM     18  C   UNL     1      -5.978 -10.180  14.404  0.00  0.00    +0.151 C 
ATOM     19  C   UNL     1      -5.264 -10.077  14.005  0.00  0.00    +0.257 C 
ATOM     20  O   UNL     1      -4.593 -10.012  14.482  0.00  0.00    -0.272 OA
ATOM     21  N   UNL     1      -5.130 -10.031  13.192  0.00  0.00    -0.203 NA
ATOM     22  C   UNL     1      -5.680 -10.076  12.578  0.00  0.00    +0.131 C 
ATOM     23  C   UNL     1      -6.497 -10.178  12.625  0.00  0.00    +0.080 C 
ENDROOT
BRANCH   6   7
ATOM      7  C   UNL     1      -5.412 -10.160  15.762  0.00  0.00    +0.100 C 
BRANCH   7   8
ATOM      8  C   UNL     1      -5.546 -10.284  16.566  0.00  0.00    -0.006 A 
ATOM      9  C   UNL     1      -6.290 -10.134  16.889  0.00  0.00    -0.002 A 
ATOM     10  C   UNL     1      -6.422 -10.258  17.693  0.00  0.00    +0.018 A 
ATOM     11  C   UNL     1      -5.812 -10.532  18.176  0.00  0.00    +0.106 A 
ATOM     12  C   UNL     1      -5.067 -10.682  17.852  0.00  0.00    +0.018 A 
ATOM     13  C   UNL     1      -4.934 -10.558  17.048  0.00  0.00    -0.002 A 
BRANCH  11  14
ATOM     14  S   UNL     1      -5.944 -10.657  18.980  0.00  0.00    +0.010 S 
ATOM     15  C   UNL     1      -6.075 -10.781  19.784  0.00  0.00    +0.182 C 
ATOM     16  O   UNL     1      -5.136 -10.781  19.093  0.00  0.00    -0.169 OA
ATOM     17  O   UNL     1      -6.751 -10.532  18.867  0.00  0.00    -0.169 OA
ENDBRANCH  11  14
ENDBRANCH   7   8
ENDBRANCH   6   7
BRANCH  23  24
ATOM     24  C   UNL     1      -6.896 -10.200  11.903  0.00  0.00    +0.027 C 
BRANCH  24  25
ATOM     25  C   UNL     1      -6.517  -9.952  11.213  0.00  0.00    +0.089 C 
BRANCH  25  26
ATOM     26  C   UNL     1      -6.961  -9.759  10.545  0.00  0.00    +0.246 C 
ATOM     27  O   UNL     1      -7.451 -10.324  10.197  0.00  0.00    -0.273 OA
ATOM     28  N   UNL     1      -6.916  -8.999  10.226  0.00  0.00    -0.179 NA
BRANCH  28  29
ATOM     29  C   UNL     1      -7.361  -8.806   9.559  0.00  0.00    +0.073 A 
ATOM     30  C   UNL     1      -8.086  -8.421   9.643  0.00  0.00    +0.017 A 
ATOM     31  C   UNL     1      -8.530  -8.227   8.975  0.00  0.00    +0.001 A 
ATOM     32  C   UNL     1      -8.250  -8.419   8.223  0.00  0.00    +0.000 A 
ATOM     33  C   UNL     1      -7.525  -8.804   8.139  0.00  0.00    +0.001 A 
ATOM     34  C   UNL     1      -7.081  -8.997   8.807  0.00  0.00    +0.017 A 
ENDBRANCH  28  29
ENDBRANCH  25  26
ENDBRANCH  24  25
ENDBRANCH  23  24
TORSDOF 7
ENDMDL
