MODEL 1
REMARK VINA RESULT:      -7.9      0.000      0.000
REMARK  Name = 
REMARK  6 active torsions:
REMARK  status: ('A' for Active; 'I' for Inactive)
REMARK    1  A    between atoms: C_2  and  C_4
REMARK    2  A    between atoms: C_6  and  C_7
REMARK    3  A    between atoms: C_7  and  C_8
REMARK    4  A    between atoms: C_25  and  C_26
REMARK    5  A    between atoms: C_26  and  N_27
REMARK    6  A    between atoms: C_28  and  C_30
REMARK                            x       y       z     vdW  Elec       q    Type
REMARK                         _______ _______ _______ _____ _____    ______ ____
ROOT
ATOM      4  C   UNL     1      -1.511   0.059  24.668  0.00  0.00    +0.006 C 
ATOM      5  C   UNL     1      -0.778   0.209  24.321  0.00  0.00    +0.005 C 
ATOM      6  C   UNL     1      -0.684   0.851  23.814  0.00  0.00    +0.027 C 
ATOM     22  C   UNL     1      -1.324   1.346  23.652  0.00  0.00    -0.048 C 
ATOM     23  C   UNL     1      -1.230   1.990  23.144  0.00  0.00    +0.026 C 
ATOM     24  C   UNL     1      -2.058   1.197  23.999  0.00  0.00    -0.033 C 
ATOM     25  C   UNL     1      -2.152   0.555  24.506  0.00  0.00    +0.043 C 
ENDROOT
BRANCH   4   2
ATOM      1  C   UNL     1      -1.909  -1.295  24.888  0.00  0.00    +0.000 C 
ATOM      2  C   UNL     1      -1.605  -0.584  25.176  0.00  0.00    +0.000 C 
ATOM      3  C   UNL     1      -1.394  -0.516  25.970  0.00  0.00    +0.000 C 
ENDBRANCH   4   2
BRANCH   6   7
ATOM      7  C   UNL     1       0.050   1.001  23.468  0.00  0.00    +0.089 C 
BRANCH   7   8
ATOM      8  C   UNL     1       0.456   0.394  23.082  0.00  0.00    +0.226 C 
ATOM      9  O   UNL     1       0.035  -0.200  22.693  0.00  0.00    -0.275 OA
ATOM     10  N   UNL     1       1.280   0.381  23.087  0.00  0.00    -0.276 N 
ATOM     11  C   UNL     1       1.700   0.975  23.477  0.00  0.00    +0.115 C 
ATOM     12  C   UNL     1       2.524   0.963  23.481  0.00  0.00    +0.114 C 
ATOM     13  N   UNL     1       2.930   0.355  23.096  0.00  0.00    -0.290 N 
ATOM     14  C   UNL     1       2.511  -0.238  22.706  0.00  0.00    +0.114 C 
ATOM     15  C   UNL     1       1.686  -0.226  22.701  0.00  0.00    +0.115 C 
ATOM     16  C   UNL     1       3.755   0.343  23.101  0.00  0.00    +0.132 A 
ATOM     17  N   UNL     1       4.175   0.937  23.490  0.00  0.00    -0.229 NA
ATOM     18  C   UNL     1       5.000   0.925  23.495  0.00  0.00    +0.100 A 
ATOM     19  C   UNL     1       5.405   0.318  23.110  0.00  0.00    +0.021 A 
ATOM     20  C   UNL     1       4.985  -0.277  22.720  0.00  0.00    +0.004 A 
ATOM     21  C   UNL     1       4.161  -0.263  22.715  0.00  0.00    +0.034 A 
ENDBRANCH   7   8
ENDBRANCH   6   7
BRANCH  25  26
ATOM     26  C   UNL     1      -2.885   0.405  24.853  0.00  0.00    +0.120 C 
BRANCH  26  27
ATOM     27  N   UNL     1      -3.446   1.008  24.909  0.00  0.00    -0.200 NA
ATOM     28  C   UNL     1      -4.221   0.830  25.126  0.00  0.00    +0.283 C 
ATOM     29  O   UNL     1      -4.437   0.050  25.287  0.00  0.00    -0.267 OA
BRANCH  28  30
ATOM     30  C   UNL     1      -4.782   1.434  25.183  0.00  0.00    +0.136 A 
ATOM     31  N   UNL     1      -4.593   2.137  25.570  0.00  0.00    -0.239 NA
ATOM     32  C   UNL     1      -5.154   2.740  25.627  0.00  0.00    +0.099 A 
ATOM     33  C   UNL     1      -5.903   2.639  25.296  0.00  0.00    +0.021 A 
ATOM     34  C   UNL     1      -6.091   1.936  24.909  0.00  0.00    +0.003 A 
ATOM     35  C   UNL     1      -5.531   1.333  24.852  0.00  0.00    +0.024 A 
ENDBRANCH  28  30
ENDBRANCH  26  27
ENDBRANCH  25  26
TORSDOF 6
ENDMDL
MODEL 2
REMARK VINA RESULT:      -6.8      1.273      7.043
REMARK  Name = 
REMARK  6 active torsions:
REMARK  status: ('A' for Active; 'I' for Inactive)
REMARK    1  A    between atoms: C_2  and  C_4
REMARK    2  A    between atoms: C_6  and  C_7
REMARK    3  A    between atoms: C_7  and  C_8
REMARK    4  A    between atoms: C_25  and  C_26
REMARK    5  A    between atoms: C_26  and  N_27
REMARK    6  A    between atoms: C_28  and  C_30
REMARK                            x       y       z     vdW  Elec       q    Type
REMARK                         _______ _______ _______ _____ _____    ______ ____
ROOT
ATOM      4  C   UNL     1      -0.213   0.182  23.787  0.00  0.00    +0.006 C 
ATOM      5  C   UNL     1      -0.826   0.675  24.036  0.00  0.00    +0.005 C 
ATOM      6  C   UNL     1      -0.706   1.489  24.085  0.00  0.00    +0.027 C 
ATOM     22  C   UNL     1       0.027   1.812  23.887  0.00  0.00    -0.048 C 
ATOM     23  C   UNL     1       0.147   2.626  23.936  0.00  0.00    +0.026 C 
ATOM     24  C   UNL     1       0.641   1.318  23.638  0.00  0.00    -0.033 C 
ATOM     25  C   UNL     1       0.521   0.504  23.589  0.00  0.00    +0.043 C 
ENDROOT
BRANCH   4   2
ATOM      1  C   UNL     1      -0.239  -1.105  24.408  0.00  0.00    +0.000 C 
ATOM      2  C   UNL     1      -0.333  -0.633  23.738  0.00  0.00    +0.000 C 
ATOM      3  C   UNL     1      -0.546  -0.975  23.019  0.00  0.00    +0.000 C 
ENDBRANCH   4   2
BRANCH   6   7
ATOM      7  C   UNL     1      -1.320   1.982  24.334  0.00  0.00    +0.089 C 
BRANCH   7   8
ATOM      8  C   UNL     1      -1.979   2.096  23.851  0.00  0.00    +0.226 C 
ATOM      9  O   UNL     1      -1.881   2.209  23.040  0.00  0.00    -0.275 OA
ATOM     10  N   UNL     1      -2.735   2.096  24.180  0.00  0.00    -0.276 N 
ATOM     11  C   UNL     1      -2.833   1.983  24.991  0.00  0.00    +0.115 C 
ATOM     12  C   UNL     1      -3.589   1.984  25.320  0.00  0.00    +0.114 C 
ATOM     13  N   UNL     1      -4.249   2.097  24.837  0.00  0.00    -0.290 N 
ATOM     14  C   UNL     1      -4.152   2.210  24.026  0.00  0.00    +0.114 C 
ATOM     15  C   UNL     1      -3.395   2.210  23.697  0.00  0.00    +0.115 C 
ATOM     16  C   UNL     1      -5.006   2.097  25.166  0.00  0.00    +0.132 A 
ATOM     17  N   UNL     1      -5.103   1.984  25.977  0.00  0.00    -0.229 NA
ATOM     18  C   UNL     1      -5.860   1.985  26.307  0.00  0.00    +0.100 A 
ATOM     19  C   UNL     1      -6.519   2.098  25.824  0.00  0.00    +0.021 A 
ATOM     20  C   UNL     1      -6.422   2.212  25.012  0.00  0.00    +0.004 A 
ATOM     21  C   UNL     1      -5.665   2.211  24.684  0.00  0.00    +0.034 A 
ENDBRANCH   7   8
ENDBRANCH   6   7
BRANCH  25  26
ATOM     26  C   UNL     1       1.134   0.011  23.340  0.00  0.00    +0.120 C 
BRANCH  26  27
ATOM     27  N   UNL     1       1.917   0.261  23.406  0.00  0.00    -0.200 NA
ATOM     28  C   UNL     1       2.489  -0.039  22.894  0.00  0.00    +0.283 C 
ATOM     29  O   UNL     1       2.279  -0.587  22.314  0.00  0.00    -0.267 OA
BRANCH  28  30
ATOM     30  C   UNL     1       3.274   0.211  22.959  0.00  0.00    +0.136 A 
ATOM     31  N   UNL     1       3.825  -0.262  23.351  0.00  0.00    -0.239 NA
ATOM     32  C   UNL     1       4.609  -0.012  23.416  0.00  0.00    +0.099 A 
ATOM     33  C   UNL     1       4.841   0.710  23.091  0.00  0.00    +0.021 A 
ATOM     34  C   UNL     1       4.289   1.182  22.700  0.00  0.00    +0.003 A 
ATOM     35  C   UNL     1       3.505   0.933  22.635  0.00  0.00    +0.024 A 
ENDBRANCH  28  30
ENDBRANCH  26  27
ENDBRANCH  25  26
TORSDOF 6
ENDMDL
