MODEL 1
REMARK VINA RESULT:     -10.0      0.000      0.000
REMARK  Name = 
REMARK  6 active torsions:
REMARK  status: ('A' for Active; 'I' for Inactive)
REMARK    1  A    between atoms: C_2  and  N_4
REMARK    2  A    between atoms: N_7  and  C_8
REMARK    3  A    between atoms: C_10  and  C_11
REMARK    4  A    between atoms: C_11  and  C_12
REMARK    5  A    between atoms: C_15  and  C_16
REMARK    6  A    between atoms: C_16  and  C_17
REMARK                            x       y       z     vdW  Elec       q    Type
REMARK                         _______ _______ _______ _____ _____    ______ ____
ROOT
ATOM      8  C   UNL     1      -4.638   1.398  25.018  0.00  0.00    +0.097 C 
ATOM      9  C   UNL     1      -3.961   1.869  25.016  0.00  0.00    +0.022 C 
ATOM     10  C   UNL     1      -4.431   2.545  25.062  0.00  0.00    +0.009 C 
ATOM     20  C   UNL     1      -5.108   2.075  25.063  0.00  0.00    +0.019 C 
ATOM     21  C   UNL     1      -5.724   2.622  25.108  0.00  0.00    +0.002 C 
ATOM     22  C   UNL     1      -5.877   1.775  25.075  0.00  0.00    +0.002 C 
ENDROOT
BRANCH   8   7
ATOM      4  N   UNL     1      -4.299  -0.756  24.939  0.00  0.00    -0.189 NA
ATOM      5  C   UNL     1      -4.153   0.055  24.970  0.00  0.00    +0.339 C 
ATOM      6  O   UNL     1      -3.377   0.335  24.985  0.00  0.00    -0.249 OA
ATOM      7  N   UNL     1      -4.784   0.587  24.986  0.00  0.00    -0.189 NA
BRANCH   4   2
ATOM      1  C   UNL     1      -3.310  -1.524  25.627  0.00  0.00    +0.023 C 
ATOM      2  C   UNL     1      -3.667  -1.288  24.923  0.00  0.00    +0.097 C 
ATOM      3  C   UNL     1      -3.395  -1.583  24.202  0.00  0.00    +0.023 C 
ENDBRANCH   4   2
ENDBRANCH   8   7
BRANCH  10  11
ATOM     11  C   UNL     1      -4.285   3.357  25.093  0.00  0.00    +0.049 C 
BRANCH  11  12
ATOM     12  C   UNL     1      -3.560   3.635  25.376  0.00  0.00    +0.100 A 
ATOM     13  N   UNL     1      -3.370   3.773  26.166  0.00  0.00    -0.082 NA
ATOM     14  O   UNL     1      -2.592   4.047  26.196  0.00  0.00    -0.358 OA
ATOM     15  C   UNL     1      -2.303   4.077  25.424  0.00  0.00    +0.157 A 
ATOM     19  C   UNL     1      -2.902   3.823  24.917  0.00  0.00    +0.054 A 
BRANCH  15  16
ATOM     16  C   UNL     1      -1.547   4.320  25.199  0.00  0.00    +0.103 C 
BRANCH  16  17
ATOM     17  C   UNL     1      -1.387   5.122  25.090  0.00  0.00    +0.190 C 
ATOM     18  O   UNL     1      -0.637   5.364  24.846  0.00  0.00    -0.220 OA
ENDBRANCH  16  17
ENDBRANCH  15  16
ENDBRANCH  11  12
ENDBRANCH  10  11
TORSDOF 6
ENDMDL
MODEL 2
REMARK VINA RESULT:      -9.9      1.035      4.627
REMARK  Name = 
REMARK  6 active torsions:
REMARK  status: ('A' for Active; 'I' for Inactive)
REMARK    1  A    between atoms: C_2  and  N_4
REMARK    2  A    between atoms: N_7  and  C_8
REMARK    3  A    between atoms: C_10  and  C_11
REMARK    4  A    between atoms: C_11  and  C_12
REMARK    5  A    between atoms: C_15  and  C_16
REMARK    6  A    between atoms: C_16  and  C_17
REMARK                            x       y       z     vdW  Elec       q    Type
REMARK                         _______ _______ _______ _____ _____    ______ ____
ROOT
ATOM      8  C   UNL     1      -3.908   2.807  25.240  0.00  0.00    +0.097 C 
ATOM      9  C   UNL     1      -3.650   2.076  24.956  0.00  0.00    +0.022 C 
ATOM     10  C   UNL     1      -4.431   1.809  24.939  0.00  0.00    +0.009 C 
ATOM     20  C   UNL     1      -4.688   2.539  25.223  0.00  0.00    +0.019 C 
ATOM     21  C   UNL     1      -5.507   2.450  25.273  0.00  0.00    +0.002 C 
ATOM     22  C   UNL     1      -5.120   3.187  25.495  0.00  0.00    +0.002 C 
ENDROOT
BRANCH   8   7
ATOM      4  N   UNL     1      -2.368   4.333  25.490  0.00  0.00    -0.189 NA
ATOM      5  C   UNL     1      -2.739   3.628  25.277  0.00  0.00    +0.339 C 
ATOM      6  O   UNL     1      -2.312   3.038  24.889  0.00  0.00    -0.249 OA
ATOM      7  N   UNL     1      -3.537   3.512  25.453  0.00  0.00    -0.189 NA
BRANCH   4   2
ATOM      1  C   UNL     1      -1.339   5.093  24.855  0.00  0.00    +0.023 C 
ATOM      2  C   UNL     1      -1.570   4.449  25.314  0.00  0.00    +0.097 C 
ATOM      3  C   UNL     1      -1.004   3.920  25.598  0.00  0.00    +0.023 C 
ENDBRANCH   4   2
ENDBRANCH   8   7
BRANCH  10  11
ATOM     11  C   UNL     1      -4.801   1.102  24.726  0.00  0.00    +0.049 C 
BRANCH  11  12
ATOM     12  C   UNL     1      -4.352   0.419  24.612  0.00  0.00    +0.100 A 
ATOM     13  N   UNL     1      -3.908   0.238  23.941  0.00  0.00    -0.082 NA
ATOM     14  O   UNL     1      -3.550  -0.496  24.063  0.00  0.00    -0.358 OA
ATOM     15  C   UNL     1      -3.774  -0.767  24.810  0.00  0.00    +0.157 A 
ATOM     19  C   UNL     1      -4.270  -0.201  25.149  0.00  0.00    +0.054 A 
BRANCH  15  16
ATOM     16  C   UNL     1      -3.542  -1.479  25.156  0.00  0.00    +0.103 C 
BRANCH  16  17
ATOM     17  C   UNL     1      -3.576  -2.179  24.721  0.00  0.00    +0.190 C 
ATOM     18  O   UNL     1      -3.453  -2.904  25.096  0.00  0.00    -0.220 OA
ENDBRANCH  16  17
ENDBRANCH  15  16
ENDBRANCH  11  12
ENDBRANCH  10  11
TORSDOF 6
ENDMDL
MODEL 3
REMARK VINA RESULT:      -9.4      2.246      4.321
REMARK  Name = 
REMARK  6 active torsions:
REMARK  status: ('A' for Active; 'I' for Inactive)
REMARK    1  A    between atoms: C_2  and  N_4
REMARK    2  A    between atoms: N_7  and  C_8
REMARK    3  A    between atoms: C_10  and  C_11
REMARK    4  A    between atoms: C_11  and  C_12
REMARK    5  A    between atoms: C_15  and  C_16
REMARK    6  A    between atoms: C_16  and  C_17
REMARK                            x       y       z     vdW  Elec       q    Type
REMARK                         _______ _______ _______ _____ _____    ______ ____
ROOT
ATOM      8  C   UNL     1      -3.998  -0.457  24.679  0.00  0.00    +0.097 C 
ATOM      9  C   UNL     1      -3.245  -0.377  25.006  0.00  0.00    +0.022 C 
ATOM     10  C   UNL     1      -3.073  -1.156  24.796  0.00  0.00    +0.009 C 
ATOM     20  C   UNL     1      -3.825  -1.236  24.469  0.00  0.00    +0.019 C 
ATOM     21  C   UNL     1      -3.834  -2.012  24.188  0.00  0.00    +0.002 C 
ATOM     22  C   UNL     1      -4.518  -1.495  24.102  0.00  0.00    +0.002 C 
ENDROOT
BRANCH   8   7
ATOM      4  N   UNL     1      -5.264   1.319  24.767  0.00  0.00    -0.189 NA
ATOM      5  C   UNL     1      -4.610   0.824  24.849  0.00  0.00    +0.339 C 
ATOM      6  O   UNL     1      -3.912   1.112  25.182  0.00  0.00    -0.249 OA
ATOM      7  N   UNL     1      -4.653   0.038  24.597  0.00  0.00    -0.189 NA
BRANCH   4   2
ATOM      1  C   UNL     1      -4.859   2.670  24.541  0.00  0.00    +0.023 C 
ATOM      2  C   UNL     1      -5.221   2.104  25.019  0.00  0.00    +0.097 C 
ATOM      3  C   UNL     1      -5.540   2.322  25.748  0.00  0.00    +0.023 C 
ENDBRANCH   4   2
ENDBRANCH   8   7
BRANCH  10  11
ATOM     11  C   UNL     1      -2.417  -1.652  24.878  0.00  0.00    +0.049 C 
BRANCH  11  12
ATOM     12  C   UNL     1      -1.656  -1.331  24.886  0.00  0.00    +0.100 A 
ATOM     13  N   UNL     1      -1.280  -0.992  25.537  0.00  0.00    -0.082 NA
ATOM     14  O   UNL     1      -0.530  -0.745  25.298  0.00  0.00    -0.358 OA
ATOM     15  C   UNL     1      -0.443  -0.933  24.499  0.00  0.00    +0.157 A 
ATOM     19  C   UNL     1      -1.140  -1.295  24.244  0.00  0.00    +0.054 A 
BRANCH  15  16
ATOM     16  C   UNL     1       0.223  -0.784  24.036  0.00  0.00    +0.103 C 
BRANCH  16  17
ATOM     17  C   UNL     1       0.269  -0.091  23.590  0.00  0.00    +0.190 C 
ATOM     18  O   UNL     1       0.912   0.035  23.089  0.00  0.00    -0.220 OA
ENDBRANCH  16  17
ENDBRANCH  15  16
ENDBRANCH  11  12
ENDBRANCH  10  11
TORSDOF 6
ENDMDL
MODEL 4
REMARK VINA RESULT:      -9.2      2.310      3.965
REMARK  Name = 
REMARK  6 active torsions:
REMARK  status: ('A' for Active; 'I' for Inactive)
REMARK    1  A    between atoms: C_2  and  N_4
REMARK    2  A    between atoms: N_7  and  C_8
REMARK    3  A    between atoms: C_10  and  C_11
REMARK    4  A    between atoms: C_11  and  C_12
REMARK    5  A    between atoms: C_15  and  C_16
REMARK    6  A    between atoms: C_16  and  C_17
REMARK                            x       y       z     vdW  Elec       q    Type
REMARK                         _______ _______ _______ _____ _____    ______ ____
ROOT
ATOM      8  C   UNL     1      -2.621   3.785  25.325  0.00  0.00    +0.097 C 
ATOM      9  C   UNL     1      -2.142   3.113  25.322  0.00  0.00    +0.022 C 
ATOM     10  C   UNL     1      -1.471   3.592  25.288  0.00  0.00    +0.009 C 
ATOM     20  C   UNL     1      -1.949   4.264  25.291  0.00  0.00    +0.019 C 
ATOM     21  C   UNL     1      -1.408   4.886  25.259  0.00  0.00    +0.002 C 
ATOM     22  C   UNL     1      -2.258   5.029  25.287  0.00  0.00    +0.002 C 
ENDROOT
BRANCH   8   7
ATOM      4  N   UNL     1      -4.771   3.419  25.383  0.00  0.00    -0.189 NA
ATOM      5  C   UNL     1      -3.958   3.283  25.356  0.00  0.00    +0.339 C 
ATOM      6  O   UNL     1      -3.669   2.511  25.334  0.00  0.00    -0.249 OA
ATOM      7  N   UNL     1      -3.434   3.921  25.352  0.00  0.00    -0.189 NA
BRANCH   4   2
ATOM      1  C   UNL     1      -5.662   2.555  26.090  0.00  0.00    +0.023 C 
ATOM      2  C   UNL     1      -5.296   2.782  25.387  0.00  0.00    +0.097 C 
ATOM      3  C   UNL     1      -5.453   2.372  24.688  0.00  0.00    +0.023 C 
ENDBRANCH   4   2
ENDBRANCH   8   7
BRANCH  10  11
ATOM     11  C   UNL     1      -0.657   3.455  25.261  0.00  0.00    +0.049 C 
BRANCH  11  12
ATOM     12  C   UNL     1      -0.371   2.694  25.120  0.00  0.00    +0.100 A 
ATOM     13  N   UNL     1      -0.290   2.095  25.681  0.00  0.00    -0.082 NA
ATOM     14  O   UNL     1       0.015   1.429  25.301  0.00  0.00    -0.358 OA
ATOM     15  C   UNL     1       0.123   1.618  24.505  0.00  0.00    +0.157 A 
ATOM     19  C   UNL     1      -0.116   2.400  24.393  0.00  0.00    +0.054 A 
BRANCH  15  16
ATOM     16  C   UNL     1       0.418   1.112  23.923  0.00  0.00    +0.103 C 
BRANCH  16  17
ATOM     17  C   UNL     1       0.080   0.367  23.815  0.00  0.00    +0.190 C 
ATOM     18  O   UNL     1       0.417  -0.165  23.281  0.00  0.00    -0.220 OA
ENDBRANCH  16  17
ENDBRANCH  15  16
ENDBRANCH  11  12
ENDBRANCH  10  11
TORSDOF 6
ENDMDL
MODEL 5
REMARK VINA RESULT:      -8.9      2.287      3.674
REMARK  Name = 
REMARK  6 active torsions:
REMARK  status: ('A' for Active; 'I' for Inactive)
REMARK    1  A    between atoms: C_2  and  N_4
REMARK    2  A    between atoms: N_7  and  C_8
REMARK    3  A    between atoms: C_10  and  C_11
REMARK    4  A    between atoms: C_11  and  C_12
REMARK    5  A    between atoms: C_15  and  C_16
REMARK    6  A    between atoms: C_16  and  C_17
REMARK                            x       y       z     vdW  Elec       q    Type
REMARK                         _______ _______ _______ _____ _____    ______ ____
ROOT
ATOM      8  C   UNL     1      -2.481  -0.234  24.926  0.00  0.00    +0.097 C 
ATOM      9  C   UNL     1      -2.946   0.415  24.716  0.00  0.00    +0.022 C 
ATOM     10  C   UNL     1      -3.621   0.008  24.958  0.00  0.00    +0.009 C 
ATOM     20  C   UNL     1      -3.157  -0.640  25.168  0.00  0.00    +0.019 C 
ATOM     21  C   UNL     1      -3.706  -1.187  25.453  0.00  0.00    +0.002 C 
ATOM     22  C   UNL     1      -2.863  -1.365  25.429  0.00  0.00    +0.002 C 
ENDROOT
BRANCH   8   7
ATOM      4  N   UNL     1      -0.370  -0.147  24.380  0.00  0.00    -0.189 NA
ATOM      5  C   UNL     1      -1.176   0.023  24.402  0.00  0.00    +0.339 C 
ATOM      6  O   UNL     1      -1.486   0.619  23.923  0.00  0.00    -0.249 OA
ATOM      7  N   UNL     1      -1.674  -0.404  24.904  0.00  0.00    -0.189 NA
BRANCH   4   2
ATOM      1  C   UNL     1       0.358   1.046  24.080  0.00  0.00    +0.023 C 
ATOM      2  C   UNL     1       0.128   0.280  23.878  0.00  0.00    +0.097 C 
ATOM      3  C   UNL     1       0.394  -0.059  23.174  0.00  0.00    +0.023 C 
ENDBRANCH   4   2
ENDBRANCH   8   7
BRANCH  10  11
ATOM     11  C   UNL     1      -4.429   0.179  24.980  0.00  0.00    +0.049 C 
BRANCH  11  12
ATOM     12  C   UNL     1      -4.689   0.957  24.884  0.00  0.00    +0.100 A 
ATOM     13  N   UNL     1      -4.577   1.426  24.216  0.00  0.00    -0.082 NA
ATOM     14  O   UNL     1      -4.925   2.161  24.359  0.00  0.00    -0.358 OA
ATOM     15  C   UNL     1      -5.251   2.144  25.117  0.00  0.00    +0.157 A 
ATOM     19  C   UNL     1      -5.105   1.400  25.441  0.00  0.00    +0.054 A 
BRANCH  15  16
ATOM     16  C   UNL     1      -5.653   2.764  25.485  0.00  0.00    +0.103 C 
BRANCH  16  17
ATOM     17  C   UNL     1      -5.304   3.510  25.534  0.00  0.00    +0.190 C 
ATOM     18  O   UNL     1      -5.745   4.155  25.800  0.00  0.00    -0.220 OA
ENDBRANCH  16  17
ENDBRANCH  15  16
ENDBRANCH  11  12
ENDBRANCH  10  11
TORSDOF 6
ENDMDL
MODEL 6
REMARK VINA RESULT:      -8.9      2.147      3.528
REMARK  Name = 
REMARK  6 active torsions:
REMARK  status: ('A' for Active; 'I' for Inactive)
REMARK    1  A    between atoms: C_2  and  N_4
REMARK    2  A    between atoms: N_7  and  C_8
REMARK    3  A    between atoms: C_10  and  C_11
REMARK    4  A    between atoms: C_11  and  C_12
REMARK    5  A    between atoms: C_15  and  C_16
REMARK    6  A    between atoms: C_16  and  C_17
REMARK                            x       y       z     vdW  Elec       q    Type
REMARK                         _______ _______ _______ _____ _____    ______ ____
ROOT
ATOM      8  C   UNL     1      -1.293   2.275  25.213  0.00  0.00    +0.097 C 
ATOM      9  C   UNL     1      -2.111   2.322  25.112  0.00  0.00    +0.022 C 
ATOM     10  C   UNL     1      -2.074   3.140  25.208  0.00  0.00    +0.009 C 
ATOM     20  C   UNL     1      -1.258   3.094  25.308  0.00  0.00    +0.019 C 
ATOM     21  C   UNL     1      -1.031   3.879  25.425  0.00  0.00    +0.002 C 
ATOM     22  C   UNL     1      -0.454   3.239  25.428  0.00  0.00    +0.002 C 
ENDROOT
BRANCH   8   7
ATOM      4  N   UNL     1      -0.436   0.271  25.093  0.00  0.00    -0.189 NA
ATOM      5  C   UNL     1      -0.988   0.884  25.090  0.00  0.00    +0.339 C 
ATOM      6  O   UNL     1      -1.786   0.720  24.961  0.00  0.00    -0.249 OA
ATOM      7  N   UNL     1      -0.741   1.662  25.216  0.00  0.00    -0.189 NA
BRANCH   4   2
ATOM      1  C   UNL     1      -1.003  -0.943  25.590  0.00  0.00    +0.023 C 
ATOM      2  C   UNL     1      -0.683  -0.507  24.967  0.00  0.00    +0.097 C 
ATOM      3  C   UNL     1      -0.609  -0.847  24.220  0.00  0.00    +0.023 C 
ENDBRANCH   4   2
ENDBRANCH   8   7
BRANCH  10  11
ATOM     11  C   UNL     1      -2.627   3.754  25.205  0.00  0.00    +0.049 C 
BRANCH  11  12
ATOM     12  C   UNL     1      -3.426   3.588  25.074  0.00  0.00    +0.100 A 
ATOM     13  N   UNL     1      -3.801   3.558  24.340  0.00  0.00    -0.082 NA
ATOM     14  O   UNL     1      -4.595   3.375  24.467  0.00  0.00    -0.358 OA
ATOM     15  C   UNL     1      -4.710   3.293  25.280  0.00  0.00    +0.157 A 
ATOM     19  C   UNL     1      -3.988   3.425  25.655  0.00  0.00    +0.054 A 
BRANCH  15  16
ATOM     16  C   UNL     1      -5.424   3.111  25.652  0.00  0.00    +0.103 C 
BRANCH  16  17
ATOM     17  C   UNL     1      -5.751   2.358  25.571  0.00  0.00    +0.190 C 
ATOM     18  O   UNL     1      -6.307   2.089  26.118  0.00  0.00    -0.220 OA
ENDBRANCH  16  17
ENDBRANCH  15  16
ENDBRANCH  11  12
ENDBRANCH  10  11
TORSDOF 6
ENDMDL
MODEL 7
REMARK VINA RESULT:      -8.8      1.946      2.939
REMARK  Name = 
REMARK  6 active torsions:
REMARK  status: ('A' for Active; 'I' for Inactive)
REMARK    1  A    between atoms: C_2  and  N_4
REMARK    2  A    between atoms: N_7  and  C_8
REMARK    3  A    between atoms: C_10  and  C_11
REMARK    4  A    between atoms: C_11  and  C_12
REMARK    5  A    between atoms: C_15  and  C_16
REMARK    6  A    between atoms: C_16  and  C_17
REMARK                            x       y       z     vdW  Elec       q    Type
REMARK                         _______ _______ _______ _____ _____    ______ ____
ROOT
ATOM      8  C   UNL     1      -1.974   0.341  24.638  0.00  0.00    +0.097 C 
ATOM      9  C   UNL     1      -2.573   0.908  24.634  0.00  0.00    +0.022 C 
ATOM     10  C   UNL     1      -2.014   1.499  24.767  0.00  0.00    +0.009 C 
ATOM     20  C   UNL     1      -1.415   0.933  24.771  0.00  0.00    +0.019 C 
ATOM     21  C   UNL     1      -0.730   1.375  24.902  0.00  0.00    +0.002 C 
ATOM     22  C   UNL     1      -0.701   0.520  24.806  0.00  0.00    +0.002 C 
ENDROOT
BRANCH   8   7
ATOM      4  N   UNL     1      -2.606  -1.746  24.552  0.00  0.00    -0.189 NA
ATOM      5  C   UNL     1      -2.633  -0.927  24.643  0.00  0.00    +0.339 C 
ATOM      6  O   UNL     1      -3.346  -0.555  24.830  0.00  0.00    -0.249 OA
ATOM      7  N   UNL     1      -1.947  -0.478  24.547  0.00  0.00    -0.189 NA
BRANCH   4   2
ATOM      1  C   UNL     1      -3.447  -2.563  25.370  0.00  0.00    +0.023 C 
ATOM      2  C   UNL     1      -3.293  -2.194  24.648  0.00  0.00    +0.097 C 
ATOM      3  C   UNL     1      -3.825  -2.274  24.022  0.00  0.00    +0.023 C 
ENDBRANCH   4   2
ENDBRANCH   8   7
BRANCH  10  11
ATOM     11  C   UNL     1      -2.041   2.320  24.859  0.00  0.00    +0.049 C 
BRANCH  11  12
ATOM     12  C   UNL     1      -2.754   2.722  24.754  0.00  0.00    +0.100 A 
ATOM     13  N   UNL     1      -3.120   2.881  24.032  0.00  0.00    -0.082 NA
ATOM     14  O   UNL     1      -3.818   3.294  24.185  0.00  0.00    -0.358 OA
ATOM     15  C   UNL     1      -3.883   3.389  25.002  0.00  0.00    +0.157 A 
ATOM     19  C   UNL     1      -3.225   3.036  25.353  0.00  0.00    +0.054 A 
BRANCH  15  16
ATOM     16  C   UNL     1      -4.498   3.772  25.397  0.00  0.00    +0.103 C 
BRANCH  16  17
ATOM     17  C   UNL     1      -5.246   3.424  25.430  0.00  0.00    +0.190 C 
ATOM     18  O   UNL     1      -5.867   3.817  25.805  0.00  0.00    -0.220 OA
ENDBRANCH  16  17
ENDBRANCH  15  16
ENDBRANCH  11  12
ENDBRANCH  10  11
TORSDOF 6
ENDMDL
