MODEL 1
REMARK VINA RESULT:     -13.1      0.000      0.000
REMARK  Name = 
REMARK  8 active torsions:
REMARK  status: ('A' for Active; 'I' for Inactive)
REMARK    1  A    between atoms: O_2  and  C_3
REMARK    2  A    between atoms: C_8  and  C_9
REMARK    3  A    between atoms: C_9  and  N_10
REMARK    4  A    between atoms: N_10  and  C_11
REMARK    5  A    between atoms: C_11  and  C_12
REMARK    6  A    between atoms: C_14  and  C_15
REMARK    7  A    between atoms: C_15  and  C_16
REMARK    8  A    between atoms: C_19  and  C_21
REMARK                            x       y       z     vdW  Elec       q    Type
REMARK                         _______ _______ _______ _____ _____    ______ ____
ROOT
ATOM     12  C   UNL     1      -4.484   2.939  25.535  0.00  0.00    +0.163 C 
ATOM     13  O   UNL     1      -4.190   2.477  24.918  0.00  0.00    -0.354 OA
ATOM     14  C   UNL     1      -4.670   1.907  24.564  0.00  0.00    +0.121 C 
ATOM     27  C   UNL     1      -5.444   1.799  24.828  0.00  0.00    +0.033 C 
ATOM     28  C   UNL     1      -5.739   2.261  25.444  0.00  0.00    +0.038 C 
ATOM     29  C   UNL     1      -5.258   2.831  25.798  0.00  0.00    +0.180 C 
ATOM     30  O   UNL     1      -5.553   3.293  26.415  0.00  0.00    -0.220 OA
ENDROOT
BRANCH  12  11
ATOM     11  C   UNL     1      -4.004   3.509  25.888  0.00  0.00    +0.121 C 
BRANCH  11  10
ATOM     10  N   UNL     1      -3.315   3.760  25.511  0.00  0.00    -0.211 NA
BRANCH  10   9
ATOM      9  C   UNL     1      -2.623   3.871  25.947  0.00  0.00    +0.118 C 
BRANCH   9   8
ATOM      3  C   UNL     1      -1.244   3.793  25.583  0.00  0.00    +0.136 A 
ATOM      4  C   UNL     1      -0.579   4.126  25.225  0.00  0.00    +0.037 A 
ATOM      5  C   UNL     1      -0.629   4.872  24.874  0.00  0.00    +0.003 A 
ATOM      6  C   UNL     1      -1.344   5.283  24.881  0.00  0.00    -0.000 A 
ATOM      7  C   UNL     1      -2.009   4.949  25.238  0.00  0.00    +0.000 A 
ATOM      8  C   UNL     1      -1.959   4.205  25.589  0.00  0.00    +0.029 A 
BRANCH   3   2
ATOM      1  C   UNL     1      -0.469   2.656  25.967  0.00  0.00    +0.252 C 
ATOM      2  O   UNL     1      -1.193   3.048  25.934  0.00  0.00    -0.472 OA
ENDBRANCH   3   2
ENDBRANCH   9   8
ENDBRANCH  10   9
ENDBRANCH  11  10
ENDBRANCH  12  11
BRANCH  14  15
ATOM     15  C   UNL     1      -4.376   1.446  23.948  0.00  0.00    +0.079 C 
BRANCH  15  16
ATOM     16  C   UNL     1      -3.924   0.775  24.114  0.00  0.00    +0.103 A 
ATOM     17  N   UNL     1      -3.107   0.757  24.225  0.00  0.00    -0.081 NA
ATOM     18  O   UNL     1      -2.888  -0.024  24.377  0.00  0.00    -0.354 OA
ATOM     19  C   UNL     1      -3.570  -0.488  24.360  0.00  0.00    +0.177 A 
ATOM     20  C   UNL     1      -4.210   0.006  24.197  0.00  0.00    +0.058 A 
BRANCH  19  21
ATOM     21  C   UNL     1      -3.604  -1.303  24.484  0.00  0.00    +0.037 A 
ATOM     22  C   UNL     1      -3.294  -1.629  25.175  0.00  0.00    +0.003 A 
ATOM     23  C   UNL     1      -3.328  -2.444  25.299  0.00  0.00    +0.000 A 
ATOM     24  C   UNL     1      -3.674  -2.933  24.730  0.00  0.00    +0.000 A 
ATOM     25  C   UNL     1      -3.985  -2.607  24.040  0.00  0.00    +0.000 A 
ATOM     26  C   UNL     1      -3.950  -1.791  23.916  0.00  0.00    +0.003 A 
ENDBRANCH  19  21
ENDBRANCH  15  16
ENDBRANCH  14  15
TORSDOF 8
ENDMDL
MODEL 2
REMARK VINA RESULT:     -12.8      1.112      4.582
REMARK  Name = 
REMARK  8 active torsions:
REMARK  status: ('A' for Active; 'I' for Inactive)
REMARK    1  A    between atoms: O_2  and  C_3
REMARK    2  A    between atoms: C_8  and  C_9
REMARK    3  A    between atoms: C_9  and  N_10
REMARK    4  A    between atoms: N_10  and  C_11
REMARK    5  A    between atoms: C_11  and  C_12
REMARK    6  A    between atoms: C_14  and  C_15
REMARK    7  A    between atoms: C_15  and  C_16
REMARK    8  A    between atoms: C_19  and  C_21
REMARK                            x       y       z     vdW  Elec       q    Type
REMARK                         _______ _______ _______ _____ _____    ______ ____
ROOT
ATOM     12  C   UNL     1      -5.062   1.946  25.072  0.00  0.00    +0.163 C 
ATOM     13  O   UNL     1      -4.452   2.400  24.752  0.00  0.00    -0.354 OA
ATOM     14  C   UNL     1      -4.416   3.209  24.903  0.00  0.00    +0.121 C 
ATOM     27  C   UNL     1      -4.991   3.566  25.375  0.00  0.00    +0.033 C 
ATOM     28  C   UNL     1      -5.602   3.113  25.696  0.00  0.00    +0.038 C 
ATOM     29  C   UNL     1      -5.637   2.303  25.544  0.00  0.00    +0.180 C 
ATOM     30  O   UNL     1      -6.247   1.850  25.865  0.00  0.00    -0.220 OA
ENDROOT
BRANCH  12  11
ATOM     11  C   UNL     1      -5.098   1.136  24.921  0.00  0.00    +0.121 C 
BRANCH  11  10
ATOM     10  N   UNL     1      -4.429   0.665  25.030  0.00  0.00    -0.211 NA
BRANCH  10   9
ATOM      9  C   UNL     1      -4.424  -0.114  24.760  0.00  0.00    +0.118 C 
BRANCH   9   8
ATOM      3  C   UNL     1      -3.726  -1.343  24.556  0.00  0.00    +0.136 A 
ATOM      4  C   UNL     1      -3.071  -1.826  24.695  0.00  0.00    +0.037 A 
ATOM      5  C   UNL     1      -2.459  -1.559  25.181  0.00  0.00    +0.003 A 
ATOM      6  C   UNL     1      -2.502  -0.811  25.527  0.00  0.00    -0.000 A 
ATOM      7  C   UNL     1      -3.157  -0.330  25.386  0.00  0.00    +0.000 A 
ATOM      8  C   UNL     1      -3.769  -0.595  24.901  0.00  0.00    +0.029 A 
BRANCH   3   2
ATOM      1  C   UNL     1      -4.301  -2.362  23.735  0.00  0.00    +0.252 C 
ATOM      2  O   UNL     1      -4.338  -1.610  24.070  0.00  0.00    -0.472 OA
ENDBRANCH   3   2
ENDBRANCH   9   8
ENDBRANCH  10   9
ENDBRANCH  11  10
ENDBRANCH  12  11
BRANCH  14  15
ATOM     15  C   UNL     1      -3.807   3.663  24.583  0.00  0.00    +0.079 C 
BRANCH  15  16
ATOM     16  C   UNL     1      -3.067   3.677  24.950  0.00  0.00    +0.103 A 
ATOM     17  N   UNL     1      -2.810   4.235  25.499  0.00  0.00    -0.081 NA
ATOM     18  O   UNL     1      -2.039   4.039  25.720  0.00  0.00    -0.354 OA
ATOM     19  C   UNL     1      -1.821   3.359  25.307  0.00  0.00    +0.177 A 
ATOM     20  C   UNL     1      -2.457   3.135  24.831  0.00  0.00    +0.058 A 
BRANCH  19  21
ATOM     21  C   UNL     1      -1.094   2.971  25.361  0.00  0.00    +0.037 A 
ATOM     22  C   UNL     1      -0.776   2.793  26.100  0.00  0.00    +0.003 A 
ATOM     23  C   UNL     1      -0.049   2.405  26.154  0.00  0.00    +0.000 A 
ATOM     24  C   UNL     1       0.357   2.195  25.467  0.00  0.00    +0.000 A 
ATOM     25  C   UNL     1       0.039   2.373  24.729  0.00  0.00    +0.000 A 
ATOM     26  C   UNL     1      -0.688   2.761  24.675  0.00  0.00    +0.003 A 
ENDBRANCH  19  21
ENDBRANCH  15  16
ENDBRANCH  14  15
TORSDOF 8
ENDMDL
MODEL 3
REMARK VINA RESULT:     -12.7      1.558      4.412
REMARK  Name = 
REMARK  8 active torsions:
REMARK  status: ('A' for Active; 'I' for Inactive)
REMARK    1  A    between atoms: O_2  and  C_3
REMARK    2  A    between atoms: C_8  and  C_9
REMARK    3  A    between atoms: C_9  and  N_10
REMARK    4  A    between atoms: N_10  and  C_11
REMARK    5  A    between atoms: C_11  and  C_12
REMARK    6  A    between atoms: C_14  and  C_15
REMARK    7  A    between atoms: C_15  and  C_16
REMARK    8  A    between atoms: C_19  and  C_21
REMARK                            x       y       z     vdW  Elec       q    Type
REMARK                         _______ _______ _______ _____ _____    ______ ____
ROOT
ATOM     12  C   UNL     1      -3.724  -0.993  24.629  0.00  0.00    +0.163 C 
ATOM     13  O   UNL     1      -3.022  -0.824  25.028  0.00  0.00    -0.354 OA
ATOM     14  C   UNL     1      -2.428  -1.393  25.079  0.00  0.00    +0.121 C 
ATOM     27  C   UNL     1      -2.535  -2.132  24.729  0.00  0.00    +0.033 C 
ATOM     28  C   UNL     1      -3.236  -2.303  24.329  0.00  0.00    +0.038 C 
ATOM     29  C   UNL     1      -3.831  -1.732  24.279  0.00  0.00    +0.180 C 
ATOM     30  O   UNL     1      -4.532  -1.903  23.879  0.00  0.00    -0.220 OA
ENDROOT
BRANCH  12  11
ATOM     11  C   UNL     1      -4.318  -0.424  24.578  0.00  0.00    +0.121 C 
BRANCH  11  10
ATOM     10  N   UNL     1      -4.130   0.353  24.372  0.00  0.00    -0.211 NA
BRANCH  10   9
ATOM      9  C   UNL     1      -4.624   0.972  24.601  0.00  0.00    +0.118 C 
BRANCH   9   8
ATOM      3  C   UNL     1      -4.695   2.358  24.940  0.00  0.00    +0.136 A 
ATOM      4  C   UNL     1      -4.470   3.140  24.804  0.00  0.00    +0.037 A 
ATOM      5  C   UNL     1      -3.945   3.317  24.191  0.00  0.00    +0.003 A 
ATOM      6  C   UNL     1      -3.647   2.712  23.716  0.00  0.00    -0.000 A 
ATOM      7  C   UNL     1      -3.873   1.931  23.853  0.00  0.00    +0.000 A 
ATOM      8  C   UNL     1      -4.397   1.754  24.464  0.00  0.00    +0.029 A 
BRANCH   3   2
ATOM      1  C   UNL     1      -5.589   2.790  25.968  0.00  0.00    +0.252 C 
ATOM      2  O   UNL     1      -5.220   2.181  25.552  0.00  0.00    -0.472 OA
ENDBRANCH   3   2
ENDBRANCH   9   8
ENDBRANCH  10   9
ENDBRANCH  11  10
ENDBRANCH  12  11
BRANCH  14  15
ATOM     15  C   UNL     1      -1.727  -1.223  25.478  0.00  0.00    +0.079 C 
BRANCH  15  16
ATOM     16  C   UNL     1      -1.243  -0.607  25.219  0.00  0.00    +0.103 A 
ATOM     17  N   UNL     1      -0.681  -0.653  24.618  0.00  0.00    -0.081 NA
ATOM     18  O   UNL     1      -0.327   0.089  24.543  0.00  0.00    -0.354 OA
ATOM     19  C   UNL     1      -0.671   0.593  25.098  0.00  0.00    +0.177 A 
ATOM     20  C   UNL     1      -1.237   0.163  25.517  0.00  0.00    +0.058 A 
BRANCH  19  21
ATOM     21  C   UNL     1      -0.481   1.388  25.215  0.00  0.00    +0.037 A 
ATOM     22  C   UNL     1      -0.603   1.736  25.952  0.00  0.00    +0.003 A 
ATOM     23  C   UNL     1      -0.413   2.531  26.069  0.00  0.00    +0.000 A 
ATOM     24  C   UNL     1      -0.102   2.976  25.447  0.00  0.00    +0.000 A 
ATOM     25  C   UNL     1       0.020   2.627  24.711  0.00  0.00    +0.000 A 
ATOM     26  C   UNL     1      -0.170   1.832  24.594  0.00  0.00    +0.003 A 
ENDBRANCH  19  21
ENDBRANCH  15  16
ENDBRANCH  14  15
TORSDOF 8
ENDMDL
MODEL 4
REMARK VINA RESULT:     -12.7      1.388      3.554
REMARK  Name = 
REMARK  8 active torsions:
REMARK  status: ('A' for Active; 'I' for Inactive)
REMARK    1  A    between atoms: O_2  and  C_3
REMARK    2  A    between atoms: C_8  and  C_9
REMARK    3  A    between atoms: C_9  and  N_10
REMARK    4  A    between atoms: N_10  and  C_11
REMARK    5  A    between atoms: C_11  and  C_12
REMARK    6  A    between atoms: C_14  and  C_15
REMARK    7  A    between atoms: C_15  and  C_16
REMARK    8  A    between atoms: C_19  and  C_21
REMARK                            x       y       z     vdW  Elec       q    Type
REMARK                         _______ _______ _______ _____ _____    ______ ____
ROOT
ATOM     12  C   UNL     1      -1.590   2.307  24.952  0.00  0.00    +0.163 C 
ATOM     13  O   UNL     1      -1.638   1.556  25.291  0.00  0.00    -0.354 OA
ATOM     14  C   UNL     1      -0.967   1.079  25.334  0.00  0.00    +0.121 C 
ATOM     27  C   UNL     1      -0.247   1.353  25.038  0.00  0.00    +0.033 C 
ATOM     28  C   UNL     1      -0.198   2.103  24.699  0.00  0.00    +0.038 C 
ATOM     29  C   UNL     1      -0.870   2.581  24.656  0.00  0.00    +0.180 C 
ATOM     30  O   UNL     1      -0.821   3.331  24.318  0.00  0.00    -0.220 OA
ENDROOT
BRANCH  12  11
ATOM     11  C   UNL     1      -2.261   2.784  24.910  0.00  0.00    +0.121 C 
BRANCH  11  10
ATOM     10  N   UNL     1      -3.013   2.444  24.930  0.00  0.00    -0.211 NA
BRANCH  10   9
ATOM      9  C   UNL     1      -3.683   2.923  24.936  0.00  0.00    +0.118 C 
BRANCH   9   8
ATOM      3  C   UNL     1      -5.062   3.034  25.293  0.00  0.00    +0.136 A 
ATOM      4  C   UNL     1      -5.812   2.697  25.365  0.00  0.00    +0.037 A 
ATOM      5  C   UNL     1      -5.931   1.909  25.151  0.00  0.00    +0.003 A 
ATOM      6  C   UNL     1      -5.301   1.459  24.866  0.00  0.00    -0.000 A 
ATOM      7  C   UNL     1      -4.552   1.797  24.794  0.00  0.00    +0.000 A 
ATOM      8  C   UNL     1      -4.432   2.584  25.008  0.00  0.00    +0.029 A 
BRANCH   3   2
ATOM      1  C   UNL     1      -5.589   4.318  25.633  0.00  0.00    +0.252 C 
ATOM      2  O   UNL     1      -4.943   3.823  25.507  0.00  0.00    -0.472 OA
ENDBRANCH   3   2
ENDBRANCH   9   8
ENDBRANCH  10   9
ENDBRANCH  11  10
ENDBRANCH  12  11
BRANCH  14  15
ATOM     15  C   UNL     1      -1.015   0.329  25.673  0.00  0.00    +0.079 C 
BRANCH  15  16
ATOM     16  C   UNL     1      -1.286  -0.309  25.225  0.00  0.00    +0.103 A 
ATOM     17  N   UNL     1      -0.842  -0.744  24.683  0.00  0.00    -0.081 NA
ATOM     18  O   UNL     1      -1.330  -1.328  24.364  0.00  0.00    -0.354 OA
ATOM     19  C   UNL     1      -2.076  -1.253  24.709  0.00  0.00    +0.177 A 
ATOM     20  C   UNL     1      -2.049  -0.623  25.241  0.00  0.00    +0.058 A 
BRANCH  19  21
ATOM     21  C   UNL     1      -2.734  -1.726  24.549  0.00  0.00    +0.037 A 
ATOM     22  C   UNL     1      -2.748  -2.510  24.802  0.00  0.00    +0.003 A 
ATOM     23  C   UNL     1      -3.406  -2.983  24.642  0.00  0.00    +0.000 A 
ATOM     24  C   UNL     1      -4.048  -2.669  24.230  0.00  0.00    +0.000 A 
ATOM     25  C   UNL     1      -4.033  -1.885  23.977  0.00  0.00    +0.000 A 
ATOM     26  C   UNL     1      -3.375  -1.412  24.137  0.00  0.00    +0.003 A 
ENDBRANCH  19  21
ENDBRANCH  15  16
ENDBRANCH  14  15
TORSDOF 8
ENDMDL
MODEL 5
REMARK VINA RESULT:     -12.6      1.328      4.914
REMARK  Name = 
REMARK  8 active torsions:
REMARK  status: ('A' for Active; 'I' for Inactive)
REMARK    1  A    between atoms: O_2  and  C_3
REMARK    2  A    between atoms: C_8  and  C_9
REMARK    3  A    between atoms: C_9  and  N_10
REMARK    4  A    between atoms: N_10  and  C_11
REMARK    5  A    between atoms: C_11  and  C_12
REMARK    6  A    between atoms: C_14  and  C_15
REMARK    7  A    between atoms: C_15  and  C_16
REMARK    8  A    between atoms: C_19  and  C_21
REMARK                            x       y       z     vdW  Elec       q    Type
REMARK                         _______ _______ _______ _____ _____    ______ ____
ROOT
ATOM     12  C   UNL     1      -0.704   1.676  25.135  0.00  0.00    +0.163 C 
ATOM     13  O   UNL     1      -1.281   2.158  25.477  0.00  0.00    -0.354 OA
ATOM     14  C   UNL     1      -1.286   2.968  25.324  0.00  0.00    +0.121 C 
ATOM     27  C   UNL     1      -0.714   3.298  24.830  0.00  0.00    +0.033 C 
ATOM     28  C   UNL     1      -0.137   2.818  24.488  0.00  0.00    +0.038 C 
ATOM     29  C   UNL     1      -0.132   2.006  24.641  0.00  0.00    +0.180 C 
ATOM     30  O   UNL     1       0.444   1.526  24.298  0.00  0.00    -0.220 OA
ENDROOT
BRANCH  12  11
ATOM     11  C   UNL     1      -0.700   0.866  25.287  0.00  0.00    +0.121 C 
BRANCH  11  10
ATOM     10  N   UNL     1      -1.410   0.447  25.317  0.00  0.00    -0.211 NA
BRANCH  10   9
ATOM      9  C   UNL     1      -1.402  -0.377  25.347  0.00  0.00    +0.118 C 
BRANCH   9   8
ATOM      3  C   UNL     1      -2.164  -1.525  24.968  0.00  0.00    +0.136 A 
ATOM      4  C   UNL     1      -2.873  -1.946  24.973  0.00  0.00    +0.037 A 
ATOM      5  C   UNL     1      -3.532  -1.638  25.363  0.00  0.00    +0.003 A 
ATOM      6  C   UNL     1      -3.481  -0.910  25.748  0.00  0.00    -0.000 A 
ATOM      7  C   UNL     1      -2.771  -0.490  25.742  0.00  0.00    +0.000 A 
ATOM      8  C   UNL     1      -2.112  -0.797  25.352  0.00  0.00    +0.029 A 
BRANCH   3   2
ATOM      1  C   UNL     1      -1.538  -2.585  24.243  0.00  0.00    +0.252 C 
ATOM      2  O   UNL     1      -1.504  -1.833  24.577  0.00  0.00    -0.472 OA
ENDBRANCH   3   2
ENDBRANCH   9   8
ENDBRANCH  10   9
ENDBRANCH  11  10
ENDBRANCH  12  11
BRANCH  14  15
ATOM     15  C   UNL     1      -1.862   3.449  25.666  0.00  0.00    +0.079 C 
BRANCH  15  16
ATOM     16  C   UNL     1      -2.628   3.457  25.358  0.00  0.00    +0.103 A 
ATOM     17  N   UNL     1      -2.906   3.955  24.763  0.00  0.00    -0.081 NA
ATOM     18  O   UNL     1      -3.700   3.773  24.629  0.00  0.00    -0.354 OA
ATOM     19  C   UNL     1      -3.912   3.163  25.142  0.00  0.00    +0.177 A 
ATOM     20  C   UNL     1      -3.249   2.967  25.593  0.00  0.00    +0.058 A 
BRANCH  19  21
ATOM     21  C   UNL     1      -4.657   2.811  25.195  0.00  0.00    +0.037 A 
ATOM     22  C   UNL     1      -5.168   3.018  25.808  0.00  0.00    +0.003 A 
ATOM     23  C   UNL     1      -5.913   2.665  25.861  0.00  0.00    +0.000 A 
ATOM     24  C   UNL     1      -6.144   2.106  25.299  0.00  0.00    +0.000 A 
ATOM     25  C   UNL     1      -5.633   1.900  24.687  0.00  0.00    +0.000 A 
ATOM     26  C   UNL     1      -4.888   2.252  24.634  0.00  0.00    +0.003 A 
ENDBRANCH  19  21
ENDBRANCH  15  16
ENDBRANCH  14  15
TORSDOF 8
ENDMDL
MODEL 6
REMARK VINA RESULT:     -12.3      1.988      3.132
REMARK  Name = 
REMARK  8 active torsions:
REMARK  status: ('A' for Active; 'I' for Inactive)
REMARK    1  A    between atoms: O_2  and  C_3
REMARK    2  A    between atoms: C_8  and  C_9
REMARK    3  A    between atoms: C_9  and  N_10
REMARK    4  A    between atoms: N_10  and  C_11
REMARK    5  A    between atoms: C_11  and  C_12
REMARK    6  A    between atoms: C_14  and  C_15
REMARK    7  A    between atoms: C_15  and  C_16
REMARK    8  A    between atoms: C_19  and  C_21
REMARK                            x       y       z     vdW  Elec       q    Type
REMARK                         _______ _______ _______ _____ _____    ______ ____
ROOT
ATOM     12  C   UNL     1      -2.035   2.842  24.689  0.00  0.00    +0.163 C 
ATOM     13  O   UNL     1      -2.680   2.416  24.399  0.00  0.00    -0.354 OA
ATOM     14  C   UNL     1      -3.446   2.702  24.505  0.00  0.00    +0.121 C 
ATOM     27  C   UNL     1      -3.568   3.416  24.901  0.00  0.00    +0.033 C 
ATOM     28  C   UNL     1      -2.925   3.843  25.191  0.00  0.00    +0.038 C 
ATOM     29  C   UNL     1      -2.158   3.556  25.085  0.00  0.00    +0.180 C 
ATOM     30  O   UNL     1      -1.515   3.983  25.375  0.00  0.00    -0.220 OA
ENDROOT
BRANCH  12  11
ATOM     11  C   UNL     1      -1.270   2.556  24.584  0.00  0.00    +0.121 C 
BRANCH  11  10
ATOM     10  N   UNL     1      -1.074   1.795  24.837  0.00  0.00    -0.211 NA
BRANCH  10   9
ATOM      9  C   UNL     1      -0.473   1.376  24.459  0.00  0.00    +0.118 C 
BRANCH   9   8
ATOM      3  C   UNL     1      -0.060   0.093  23.985  0.00  0.00    +0.136 A 
ATOM      4  C   UNL     1       0.009  -0.721  24.095  0.00  0.00    +0.037 A 
ATOM      5  C   UNL     1      -0.265  -1.068  24.792  0.00  0.00    +0.003 A 
ATOM      6  C   UNL     1      -0.609  -0.600  25.378  0.00  0.00    -0.000 A 
ATOM      7  C   UNL     1      -0.678   0.215  25.267  0.00  0.00    +0.000 A 
ATOM      8  C   UNL     1      -0.404   0.562  24.571  0.00  0.00    +0.029 A 
BRANCH   3   2
ATOM      1  C   UNL     1       0.738   0.029  22.801  0.00  0.00    +0.252 C 
ATOM      2  O   UNL     1       0.214   0.440  23.287  0.00  0.00    -0.472 OA
ENDBRANCH   3   2
ENDBRANCH   9   8
ENDBRANCH  10   9
ENDBRANCH  11  10
ENDBRANCH  12  11
BRANCH  14  15
ATOM     15  C   UNL     1      -4.089   2.276  24.215  0.00  0.00    +0.079 C 
BRANCH  15  16
ATOM     16  C   UNL     1      -4.261   1.529  24.522  0.00  0.00    +0.103 A 
ATOM     17  N   UNL     1      -4.727   1.373  25.183  0.00  0.00    -0.081 NA
ATOM     18  O   UNL     1      -4.751   0.555  25.290  0.00  0.00    -0.354 OA
ATOM     19  C   UNL     1      -4.299   0.206  24.695  0.00  0.00    +0.177 A 
ATOM     20  C   UNL     1      -3.996   0.809  24.219  0.00  0.00    +0.058 A 
BRANCH  19  21
ATOM     21  C   UNL     1      -4.173  -0.603  24.592  0.00  0.00    +0.037 A 
ATOM     22  C   UNL     1      -3.949  -1.069  25.234  0.00  0.00    +0.003 A 
ATOM     23  C   UNL     1      -3.823  -1.879  25.132  0.00  0.00    +0.000 A 
ATOM     24  C   UNL     1      -3.921  -2.220  24.387  0.00  0.00    +0.000 A 
ATOM     25  C   UNL     1      -4.145  -1.753  23.746  0.00  0.00    +0.000 A 
ATOM     26  C   UNL     1      -4.272  -0.944  23.848  0.00  0.00    +0.003 A 
ENDBRANCH  19  21
ENDBRANCH  15  16
ENDBRANCH  14  15
TORSDOF 8
ENDMDL
MODEL 7
REMARK VINA RESULT:     -12.3      1.445      5.085
REMARK  Name = 
REMARK  8 active torsions:
REMARK  status: ('A' for Active; 'I' for Inactive)
REMARK    1  A    between atoms: O_2  and  C_3
REMARK    2  A    between atoms: C_8  and  C_9
REMARK    3  A    between atoms: C_9  and  N_10
REMARK    4  A    between atoms: N_10  and  C_11
REMARK    5  A    between atoms: C_11  and  C_12
REMARK    6  A    between atoms: C_14  and  C_15
REMARK    7  A    between atoms: C_15  and  C_16
REMARK    8  A    between atoms: C_19  and  C_21
REMARK                            x       y       z     vdW  Elec       q    Type
REMARK                         _______ _______ _______ _____ _____    ______ ____
ROOT
ATOM     12  C   UNL     1      -2.195  -0.312  24.671  0.00  0.00    +0.163 C 
ATOM     13  O   UNL     1      -1.670   0.313  24.553  0.00  0.00    -0.354 OA
ATOM     14  C   UNL     1      -0.877   0.233  24.766  0.00  0.00    +0.121 C 
ATOM     27  C   UNL     1      -0.609  -0.473  25.097  0.00  0.00    +0.033 C 
ATOM     28  C   UNL     1      -1.133  -1.099  25.216  0.00  0.00    +0.038 C 
ATOM     29  C   UNL     1      -1.926  -1.018  25.002  0.00  0.00    +0.180 C 
ATOM     30  O   UNL     1      -2.450  -1.644  25.121  0.00  0.00    -0.220 OA
ENDROOT
BRANCH  12  11
ATOM     11  C   UNL     1      -2.987  -0.232  24.458  0.00  0.00    +0.121 C 
BRANCH  11  10
ATOM     10  N   UNL     1      -3.437   0.389  24.764  0.00  0.00    -0.211 NA
BRANCH  10   9
ATOM      9  C   UNL     1      -3.986   0.776  24.287  0.00  0.00    +0.118 C 
BRANCH   9   8
ATOM      3  C   UNL     1      -4.535   2.095  24.284  0.00  0.00    +0.136 A 
ATOM      4  C   UNL     1      -5.041   2.659  24.609  0.00  0.00    +0.037 A 
ATOM      5  C   UNL     1      -5.506   2.467  25.264  0.00  0.00    +0.003 A 
ATOM      6  C   UNL     1      -5.464   1.712  25.593  0.00  0.00    -0.000 A 
ATOM      7  C   UNL     1      -4.957   1.148  25.267  0.00  0.00    +0.000 A 
ATOM      8  C   UNL     1      -4.493   1.339  24.613  0.00  0.00    +0.029 A 
BRANCH   3   2
ATOM      1  C   UNL     1      -4.109   3.042  23.303  0.00  0.00    +0.252 C 
ATOM      2  O   UNL     1      -4.070   2.287  23.629  0.00  0.00    -0.472 OA
ENDBRANCH   3   2
ENDBRANCH   9   8
ENDBRANCH  10   9
ENDBRANCH  11  10
ENDBRANCH  12  11
BRANCH  14  15
ATOM     15  C   UNL     1      -0.353   0.858  24.648  0.00  0.00    +0.079 C 
BRANCH  15  16
ATOM     16  C   UNL     1      -0.445   1.560  25.074  0.00  0.00    +0.103 A 
ATOM     17  N   UNL     1      -0.212   1.687  25.854  0.00  0.00    -0.081 NA
ATOM     18  O   UNL     1      -0.409   2.462  26.056  0.00  0.00    -0.354 OA
ATOM     19  C   UNL     1      -0.763   2.815  25.399  0.00  0.00    +0.177 A 
ATOM     20  C   UNL     1      -0.785   2.256  24.791  0.00  0.00    +0.058 A 
BRANCH  19  21
ATOM     21  C   UNL     1      -1.046   3.589  25.357  0.00  0.00    +0.037 A 
ATOM     22  C   UNL     1      -1.732   3.800  25.763  0.00  0.00    +0.003 A 
ATOM     23  C   UNL     1      -2.014   4.574  25.721  0.00  0.00    +0.000 A 
ATOM     24  C   UNL     1      -1.609   5.137  25.273  0.00  0.00    +0.000 A 
ATOM     25  C   UNL     1      -0.923   4.926  24.868  0.00  0.00    +0.000 A 
ATOM     26  C   UNL     1      -0.641   4.151  24.910  0.00  0.00    +0.003 A 
ENDBRANCH  19  21
ENDBRANCH  15  16
ENDBRANCH  14  15
TORSDOF 8
ENDMDL
MODEL 8
REMARK VINA RESULT:     -12.2      1.698      3.949
REMARK  Name = 
REMARK  8 active torsions:
REMARK  status: ('A' for Active; 'I' for Inactive)
REMARK    1  A    between atoms: O_2  and  C_3
REMARK    2  A    between atoms: C_8  and  C_9
REMARK    3  A    between atoms: C_9  and  N_10
REMARK    4  A    between atoms: N_10  and  C_11
REMARK    5  A    between atoms: C_11  and  C_12
REMARK    6  A    between atoms: C_14  and  C_15
REMARK    7  A    between atoms: C_15  and  C_16
REMARK    8  A    between atoms: C_19  and  C_21
REMARK                            x       y       z     vdW  Elec       q    Type
REMARK                         _______ _______ _______ _____ _____    ______ ____
ROOT
ATOM     12  C   UNL     1      -1.486  -1.035  24.939  0.00  0.00    +0.163 C 
ATOM     13  O   UNL     1      -2.231  -0.832  25.230  0.00  0.00    -0.354 OA
ATOM     14  C   UNL     1      -2.859  -1.362  25.165  0.00  0.00    +0.121 C 
ATOM     27  C   UNL     1      -2.742  -2.098  24.809  0.00  0.00    +0.033 C 
ATOM     28  C   UNL     1      -1.998  -2.302  24.519  0.00  0.00    +0.038 C 
ATOM     29  C   UNL     1      -1.370  -1.770  24.584  0.00  0.00    +0.180 C 
ATOM     30  O   UNL     1      -0.625  -1.975  24.293  0.00  0.00    -0.220 OA
ENDROOT
BRANCH  12  11
ATOM     11  C   UNL     1      -0.859  -0.505  25.004  0.00  0.00    +0.121 C 
BRANCH  11  10
ATOM     10  N   UNL     1      -0.957   0.282  24.774  0.00  0.00    -0.211 NA
BRANCH  10   9
ATOM      9  C   UNL     1      -0.462   0.866  25.080  0.00  0.00    +0.118 C 
BRANCH   9   8
ATOM      3  C   UNL     1      -0.423   2.248  25.442  0.00  0.00    +0.136 A 
ATOM      4  C   UNL     1      -0.552   3.040  25.253  0.00  0.00    +0.037 A 
ATOM      5  C   UNL     1      -0.850   3.243  24.510  0.00  0.00    +0.003 A 
ATOM      6  C   UNL     1      -1.019   2.654  23.958  0.00  0.00    -0.000 A 
ATOM      7  C   UNL     1      -0.889   1.862  24.148  0.00  0.00    +0.000 A 
ATOM      8  C   UNL     1      -0.592   1.658  24.889  0.00  0.00    +0.029 A 
BRANCH   3   2
ATOM      1  C   UNL     1       0.174   2.629  26.683  0.00  0.00    +0.252 C 
ATOM      2  O   UNL     1      -0.125   2.044  26.185  0.00  0.00    -0.472 OA
ENDBRANCH   3   2
ENDBRANCH   9   8
ENDBRANCH  10   9
ENDBRANCH  11  10
ENDBRANCH  12  11
BRANCH  14  15
ATOM     15  C   UNL     1      -3.603  -1.159  25.456  0.00  0.00    +0.079 C 
BRANCH  15  16
ATOM     16  C   UNL     1      -4.027  -0.540  25.108  0.00  0.00    +0.103 A 
ATOM     17  N   UNL     1      -4.414  -0.567  24.382  0.00  0.00    -0.081 NA
ATOM     18  O   UNL     1      -4.763   0.170  24.252  0.00  0.00    -0.354 OA
ATOM     19  C   UNL     1      -4.591   0.651  24.899  0.00  0.00    +0.177 A 
ATOM     20  C   UNL     1      -4.135   0.212  25.429  0.00  0.00    +0.058 A 
BRANCH  19  21
ATOM     21  C   UNL     1      -4.832   1.434  24.999  0.00  0.00    +0.037 A 
ATOM     22  C   UNL     1      -4.419   2.043  24.627  0.00  0.00    +0.003 A 
ATOM     23  C   UNL     1      -4.661   2.826  24.727  0.00  0.00    +0.000 A 
ATOM     24  C   UNL     1      -5.315   2.998  25.200  0.00  0.00    +0.000 A 
ATOM     25  C   UNL     1      -5.728   2.389  25.571  0.00  0.00    +0.000 A 
ATOM     26  C   UNL     1      -5.486   1.606  25.471  0.00  0.00    +0.003 A 
ENDBRANCH  19  21
ENDBRANCH  15  16
ENDBRANCH  14  15
TORSDOF 8
ENDMDL
