MODEL 1
REMARK VINA RESULT:      -9.6      0.000      0.000
REMARK  Name = 
REMARK  5 active torsions:
REMARK  status: ('A' for Active; 'I' for Inactive)
REMARK    1  A    between atoms: C_5  and  S_8
REMARK    2  A    between atoms: S_8  and  N_11
REMARK    3  A    between atoms: N_11  and  C_12
REMARK    4  A    between atoms: C_16  and  N_20
REMARK    5  A    between atoms: C_23  and  C_27
REMARK                            x       y       z     vdW  Elec       q    Type
REMARK                         _______ _______ _______ _____ _____    ______ ____
ROOT
ATOM     12  C   UNL     1      -2.135   1.302  23.891  0.00  0.00    +0.157 C 
ATOM     13  C   UNL     1      -1.811   2.059  23.848  0.00  0.00    +0.164 C 
ATOM     14  O   UNL     1      -0.990   1.985  23.865  0.00  0.00    -0.350 OA
ATOM     15  C   UNL     1      -0.806   1.184  23.918  0.00  0.00    +0.166 C 
ATOM     16  C   UNL     1      -0.186   0.641  23.960  0.00  0.00    +0.154 C 
ATOM     17  C   UNL     1      -0.510  -0.116  24.003  0.00  0.00    +0.166 C 
ATOM     18  O   UNL     1      -1.332  -0.042  23.986  0.00  0.00    -0.350 OA
ATOM     19  C   UNL     1      -1.515   0.761  23.934  0.00  0.00    +0.164 C 
ENDROOT
BRANCH  16  20
ATOM     20  N   UNL     1       0.619   0.825  23.961  0.00  0.00    -0.200 NA
ATOM     21  C   UNL     1       1.120   0.484  23.401  0.00  0.00    +0.237 A 
ATOM     22  N   UNL     1       1.924   0.667  23.401  0.00  0.00    -0.209 NA
ATOM     23  C   UNL     1       2.425   0.326  22.841  0.00  0.00    +0.120 A 
ATOM     24  C   UNL     1       2.122  -0.198  22.281  0.00  0.00    +0.043 A 
ATOM     25  C   UNL     1       1.317  -0.382  22.281  0.00  0.00    +0.104 A 
ATOM     26  N   UNL     1       0.817  -0.040  22.841  0.00  0.00    -0.211 NA
BRANCH  23  27
ATOM     27  C   UNL     1       3.229   0.509  22.841  0.00  0.00    +0.163 A 
ATOM     28  C   UNL     1       3.839   0.017  23.100  0.00  0.00    +0.042 A 
ATOM     29  C   UNL     1       4.552   0.420  23.001  0.00  0.00    +0.044 A 
ATOM     30  C   UNL     1       4.383   1.161  22.682  0.00  0.00    +0.180 A 
ATOM     31  O   UNL     1       3.566   1.216  22.583  0.00  0.00    -0.449 OA
ENDBRANCH  23  27
ENDBRANCH  16  20
BRANCH  12  11
ATOM     11  N   UNL     1      -2.940   1.119  23.890  0.00  0.00    -0.074 NA
BRANCH  11   8
ATOM      8  S   UNL     1      -3.480   1.628  24.250  0.00  0.00    +0.077 S 
ATOM      9  O   UNL     1      -3.364   1.244  24.971  0.00  0.00    -0.152 OA
ATOM     10  O   UNL     1      -3.596   2.014  23.530  0.00  0.00    -0.152 OA
BRANCH   8   5
ATOM      1  C   UNL     1      -5.640   3.668  25.687  0.00  0.00    +0.031 C 
ATOM      2  C   UNL     1      -5.100   3.158  25.328  0.00  0.00    -0.022 A 
ATOM      3  C   UNL     1      -4.467   3.465  24.897  0.00  0.00    -0.003 A 
ATOM      4  C   UNL     1      -3.927   2.955  24.538  0.00  0.00    +0.020 A 
ATOM      5  C   UNL     1      -4.020   2.139  24.609  0.00  0.00    +0.124 A 
ATOM      6  C   UNL     1      -4.653   1.832  25.041  0.00  0.00    +0.020 A 
ATOM      7  C   UNL     1      -5.193   2.342  25.399  0.00  0.00    -0.003 A 
ENDBRANCH   8   5
ENDBRANCH  11   8
ENDBRANCH  12  11
TORSDOF 5
ENDMDL
MODEL 2
REMARK VINA RESULT:      -9.3      3.102      5.013
REMARK  Name = 
REMARK  5 active torsions:
REMARK  status: ('A' for Active; 'I' for Inactive)
REMARK    1  A    between atoms: C_5  and  S_8
REMARK    2  A    between atoms: S_8  and  N_11
REMARK    3  A    between atoms: N_11  and  C_12
REMARK    4  A    between atoms: C_16  and  N_20
REMARK    5  A    between atoms: C_23  and  C_27
REMARK                            x       y       z     vdW  Elec       q    Type
REMARK                         _______ _______ _______ _____ _____    ______ ____
ROOT
ATOM     12  C   UNL     1      -0.344   1.827  24.827  0.00  0.00    +0.157 C 
ATOM     13  C   UNL     1      -0.509   1.735  24.024  0.00  0.00    +0.164 C 
ATOM     14  O   UNL     1      -0.847   0.991  23.918  0.00  0.00    -0.350 OA
ATOM     15  C   UNL     1      -0.892   0.622  24.654  0.00  0.00    +0.166 C 
ATOM     16  C   UNL     1      -1.128  -0.065  25.044  0.00  0.00    +0.154 C 
ATOM     17  C   UNL     1      -0.963   0.027  25.847  0.00  0.00    +0.166 C 
ATOM     18  O   UNL     1      -0.625   0.771  25.953  0.00  0.00    -0.350 OA
ATOM     19  C   UNL     1      -0.581   1.140  25.216  0.00  0.00    +0.164 C 
ENDROOT
BRANCH  16  20
ATOM     20  N   UNL     1      -1.469  -0.729  24.692  0.00  0.00    -0.200 NA
ATOM     21  C   UNL     1      -2.246  -0.939  24.874  0.00  0.00    +0.237 A 
ATOM     22  N   UNL     1      -2.587  -1.602  24.522  0.00  0.00    -0.209 NA
ATOM     23  C   UNL     1      -3.364  -1.813  24.705  0.00  0.00    +0.120 A 
ATOM     24  C   UNL     1      -3.799  -1.360  25.239  0.00  0.00    +0.043 A 
ATOM     25  C   UNL     1      -3.458  -0.696  25.592  0.00  0.00    +0.104 A 
ATOM     26  N   UNL     1      -2.681  -0.486  25.409  0.00  0.00    -0.211 NA
BRANCH  23  27
ATOM     27  C   UNL     1      -3.706  -2.476  24.353  0.00  0.00    +0.163 A 
ATOM     28  C   UNL     1      -4.280  -2.469  23.760  0.00  0.00    +0.042 A 
ATOM     29  C   UNL     1      -4.462  -3.251  23.573  0.00  0.00    +0.044 A 
ATOM     30  C   UNL     1      -4.001  -3.741  24.050  0.00  0.00    +0.180 A 
ATOM     31  O   UNL     1      -3.534  -3.262  24.532  0.00  0.00    -0.449 OA
ENDBRANCH  23  27
ENDBRANCH  16  20
BRANCH  12  11
ATOM     11  N   UNL     1      -0.003   2.491  25.179  0.00  0.00    -0.074 NA
BRANCH  11   8
ATOM      8  S   UNL     1      -0.392   3.218  25.155  0.00  0.00    +0.077 S 
ATOM      9  O   UNL     1      -0.229   3.279  24.348  0.00  0.00    -0.152 OA
ATOM     10  O   UNL     1      -0.556   3.158  25.961  0.00  0.00    -0.152 OA
BRANCH   8   5
ATOM      1  C   UNL     1      -1.952   6.124  25.060  0.00  0.00    +0.031 C 
ATOM      2  C   UNL     1      -1.562   5.398  25.084  0.00  0.00    -0.022 A 
ATOM      3  C   UNL     1      -0.814   5.320  24.745  0.00  0.00    -0.003 A 
ATOM      4  C   UNL     1      -0.424   4.593  24.768  0.00  0.00    +0.020 A 
ATOM      5  C   UNL     1      -0.782   3.945  25.131  0.00  0.00    +0.124 A 
ATOM      6  C   UNL     1      -1.530   4.022  25.470  0.00  0.00    +0.020 A 
ATOM      7  C   UNL     1      -1.920   4.749  25.446  0.00  0.00    -0.003 A 
ENDBRANCH   8   5
ENDBRANCH  11   8
ENDBRANCH  12  11
TORSDOF 5
ENDMDL
MODEL 3
REMARK VINA RESULT:      -8.7      2.040      2.663
REMARK  Name = 
REMARK  5 active torsions:
REMARK  status: ('A' for Active; 'I' for Inactive)
REMARK    1  A    between atoms: C_5  and  S_8
REMARK    2  A    between atoms: S_8  and  N_11
REMARK    3  A    between atoms: N_11  and  C_12
REMARK    4  A    between atoms: C_16  and  N_20
REMARK    5  A    between atoms: C_23  and  C_27
REMARK                            x       y       z     vdW  Elec       q    Type
REMARK                         _______ _______ _______ _____ _____    ______ ____
ROOT
ATOM     12  C   UNL     1      -1.728   0.491  24.945  0.00  0.00    +0.157 C 
ATOM     13  C   UNL     1      -1.225   0.179  25.519  0.00  0.00    +0.164 C 
ATOM     14  O   UNL     1      -0.450   0.361  25.304  0.00  0.00    -0.350 OA
ATOM     15  C   UNL     1      -0.474   0.784  24.597  0.00  0.00    +0.166 C 
ATOM     16  C   UNL     1      -0.010   1.158  24.026  0.00  0.00    +0.154 C 
ATOM     17  C   UNL     1      -0.513   1.469  23.451  0.00  0.00    +0.166 C 
ATOM     18  O   UNL     1      -1.288   1.288  23.667  0.00  0.00    -0.350 OA
ATOM     19  C   UNL     1      -1.264   0.864  24.375  0.00  0.00    +0.164 C 
ENDROOT
BRANCH  16  20
ATOM     20  N   UNL     1       0.814   1.210  24.030  0.00  0.00    -0.200 NA
ATOM     21  C   UNL     1       1.257   0.785  23.479  0.00  0.00    +0.237 A 
ATOM     22  N   UNL     1       2.080   0.838  23.482  0.00  0.00    -0.209 NA
ATOM     23  C   UNL     1       2.523   0.413  22.931  0.00  0.00    +0.120 A 
ATOM     24  C   UNL     1       2.143  -0.065  22.377  0.00  0.00    +0.043 A 
ATOM     25  C   UNL     1       1.320  -0.118  22.373  0.00  0.00    +0.104 A 
ATOM     26  N   UNL     1       0.877   0.307  22.924  0.00  0.00    -0.211 NA
BRANCH  23  27
ATOM     27  C   UNL     1       3.346   0.465  22.935  0.00  0.00    +0.163 A 
ATOM     28  C   UNL     1       3.792   1.107  22.670  0.00  0.00    +0.042 A 
ATOM     29  C   UNL     1       4.590   0.924  22.775  0.00  0.00    +0.044 A 
ATOM     30  C   UNL     1       4.636   0.170  23.105  0.00  0.00    +0.180 A 
ATOM     31  O   UNL     1       3.868  -0.113  23.203  0.00  0.00    -0.449 OA
ENDBRANCH  23  27
ENDBRANCH  16  20
BRANCH  12  11
ATOM     11  N   UNL     1      -2.552   0.438  24.941  0.00  0.00    -0.074 NA
BRANCH  11   8
ATOM      8  S   UNL     1      -2.919  -0.279  24.760  0.00  0.00    +0.077 S 
ATOM      9  O   UNL     1      -2.764  -0.552  25.522  0.00  0.00    -0.152 OA
ATOM     10  O   UNL     1      -3.075  -0.006  23.997  0.00  0.00    -0.152 OA
BRANCH   8   5
ATOM      1  C   UNL     1      -4.386  -3.144  24.033  0.00  0.00    +0.031 C 
ATOM      2  C   UNL     1      -4.020  -2.427  24.214  0.00  0.00    -0.022 A 
ATOM      3  C   UNL     1      -4.267  -1.732  23.846  0.00  0.00    -0.003 A 
ATOM      4  C   UNL     1      -3.900  -1.016  24.027  0.00  0.00    +0.020 A 
ATOM      5  C   UNL     1      -3.286  -0.995  24.578  0.00  0.00    +0.124 A 
ATOM      6  C   UNL     1      -3.039  -1.690  24.947  0.00  0.00    +0.020 A 
ATOM      7  C   UNL     1      -3.406  -2.406  24.765  0.00  0.00    -0.003 A 
ENDBRANCH   8   5
ENDBRANCH  11   8
ENDBRANCH  12  11
TORSDOF 5
ENDMDL
MODEL 4
REMARK VINA RESULT:      -8.7      1.561      6.644
REMARK  Name = 
REMARK  5 active torsions:
REMARK  status: ('A' for Active; 'I' for Inactive)
REMARK    1  A    between atoms: C_5  and  S_8
REMARK    2  A    between atoms: S_8  and  N_11
REMARK    3  A    between atoms: N_11  and  C_12
REMARK    4  A    between atoms: C_16  and  N_20
REMARK    5  A    between atoms: C_23  and  C_27
REMARK                            x       y       z     vdW  Elec       q    Type
REMARK                         _______ _______ _______ _____ _____    ______ ____
ROOT
ATOM     12  C   UNL     1       1.220   0.510  23.212  0.00  0.00    +0.157 C 
ATOM     13  C   UNL     1       1.398   1.239  23.552  0.00  0.00    +0.164 C 
ATOM     14  O   UNL     1       0.734   1.493  23.971  0.00  0.00    -0.350 OA
ATOM     15  C   UNL     1       0.147   0.920  23.890  0.00  0.00    +0.166 C 
ATOM     16  C   UNL     1      -0.626   0.722  24.099  0.00  0.00    +0.154 C 
ATOM     17  C   UNL     1      -0.804  -0.008  23.758  0.00  0.00    +0.166 C 
ATOM     18  O   UNL     1      -0.140  -0.261  23.339  0.00  0.00    -0.350 OA
ATOM     19  C   UNL     1       0.448   0.312  23.420  0.00  0.00    +0.164 C 
ENDROOT
BRANCH  16  20
ATOM     20  N   UNL     1      -1.133   1.175  24.566  0.00  0.00    -0.200 NA
ATOM     21  C   UNL     1      -1.832   1.476  24.246  0.00  0.00    +0.237 A 
ATOM     22  N   UNL     1      -2.338   1.928  24.713  0.00  0.00    -0.209 NA
ATOM     23  C   UNL     1      -3.037   2.229  24.393  0.00  0.00    +0.120 A 
ATOM     24  C   UNL     1      -3.228   2.077  23.605  0.00  0.00    +0.043 A 
ATOM     25  C   UNL     1      -2.721   1.624  23.137  0.00  0.00    +0.104 A 
ATOM     26  N   UNL     1      -2.023   1.323  23.458  0.00  0.00    -0.211 NA
BRANCH  23  27
ATOM     27  C   UNL     1      -3.543   2.682  24.860  0.00  0.00    +0.163 A 
ATOM     28  C   UNL     1      -4.322   2.491  25.057  0.00  0.00    +0.042 A 
ATOM     29  C   UNL     1      -4.621   3.096  25.531  0.00  0.00    +0.044 A 
ATOM     30  C   UNL     1      -4.028   3.661  25.627  0.00  0.00    +0.180 A 
ATOM     31  O   UNL     1      -3.362   3.405  25.213  0.00  0.00    -0.449 OA
ENDBRANCH  23  27
ENDBRANCH  16  20
BRANCH  12  11
ATOM     11  N   UNL     1       1.727   0.056  22.744  0.00  0.00    -0.074 NA
BRANCH  11   8
ATOM      8  S   UNL     1       2.541   0.074  22.881  0.00  0.00    +0.077 S 
ATOM      9  O   UNL     1       2.610   0.737  22.395  0.00  0.00    -0.152 OA
ATOM     10  O   UNL     1       2.473  -0.590  23.366  0.00  0.00    -0.152 OA
BRANCH   8   5
ATOM      1  C   UNL     1       5.794   0.138  23.430  0.00  0.00    +0.031 C 
ATOM      2  C   UNL     1       4.981   0.122  23.293  0.00  0.00    -0.022 A 
ATOM      3  C   UNL     1       4.612   0.762  22.927  0.00  0.00    -0.003 A 
ATOM      4  C   UNL     1       3.798   0.746  22.789  0.00  0.00    +0.020 A 
ATOM      5  C   UNL     1       3.354   0.090  23.018  0.00  0.00    +0.124 A 
ATOM      6  C   UNL     1       3.724  -0.551  23.384  0.00  0.00    +0.020 A 
ATOM      7  C   UNL     1       4.537  -0.534  23.521  0.00  0.00    -0.003 A 
ENDBRANCH   8   5
ENDBRANCH  11   8
ENDBRANCH  12  11
TORSDOF 5
ENDMDL
MODEL 5
REMARK VINA RESULT:      -8.5      1.395      1.971
REMARK  Name = 
REMARK  5 active torsions:
REMARK  status: ('A' for Active; 'I' for Inactive)
REMARK    1  A    between atoms: C_5  and  S_8
REMARK    2  A    between atoms: S_8  and  N_11
REMARK    3  A    between atoms: N_11  and  C_12
REMARK    4  A    between atoms: C_16  and  N_20
REMARK    5  A    between atoms: C_23  and  C_27
REMARK                            x       y       z     vdW  Elec       q    Type
REMARK                         _______ _______ _______ _____ _____    ______ ____
ROOT
ATOM     12  C   UNL     1      -2.208   3.292  25.111  0.00  0.00    +0.157 C 
ATOM     13  C   UNL     1      -2.152   3.485  24.311  0.00  0.00    +0.164 C 
ATOM     14  O   UNL     1      -1.439   3.184  24.026  0.00  0.00    -0.350 OA
ATOM     15  C   UNL     1      -1.055   2.804  24.648  0.00  0.00    +0.166 C 
ATOM     16  C   UNL     1      -0.377   2.383  24.858  0.00  0.00    +0.154 C 
ATOM     17  C   UNL     1      -0.433   2.189  25.657  0.00  0.00    +0.166 C 
ATOM     18  O   UNL     1      -1.146   2.491  25.943  0.00  0.00    -0.350 OA
ATOM     19  C   UNL     1      -1.530   2.871  25.319  0.00  0.00    +0.164 C 
ENDROOT
BRANCH  16  20
ATOM     20  N   UNL     1       0.248   2.189  24.354  0.00  0.00    -0.200 NA
ATOM     21  C   UNL     1       0.345   1.411  24.098  0.00  0.00    +0.237 A 
ATOM     22  N   UNL     1       0.969   1.217  23.595  0.00  0.00    -0.209 NA
ATOM     23  C   UNL     1       1.067   0.439  23.339  0.00  0.00    +0.120 A 
ATOM     24  C   UNL     1       0.540  -0.146  23.585  0.00  0.00    +0.043 A 
ATOM     25  C   UNL     1      -0.085   0.048  24.089  0.00  0.00    +0.104 A 
ATOM     26  N   UNL     1      -0.182   0.826  24.345  0.00  0.00    -0.211 NA
BRANCH  23  27
ATOM     27  C   UNL     1       1.691   0.245  22.836  0.00  0.00    +0.163 A 
ATOM     28  C   UNL     1       1.634  -0.189  22.136  0.00  0.00    +0.042 A 
ATOM     29  C   UNL     1       2.389  -0.252  21.812  0.00  0.00    +0.044 A 
ATOM     30  C   UNL     1       2.914   0.144  22.311  0.00  0.00    +0.180 A 
ATOM     31  O   UNL     1       2.482   0.451  22.943  0.00  0.00    -0.449 OA
ENDBRANCH  23  27
ENDBRANCH  16  20
BRANCH  12  11
ATOM     11  N   UNL     1      -2.833   3.485  25.614  0.00  0.00    -0.074 NA
BRANCH  11   8
ATOM      8  S   UNL     1      -3.584   3.173  25.478  0.00  0.00    +0.077 S 
ATOM      9  O   UNL     1      -3.722   3.751  24.906  0.00  0.00    -0.152 OA
ATOM     10  O   UNL     1      -3.447   2.594  26.050  0.00  0.00    -0.152 OA
BRANCH   8   5
ATOM      1  C   UNL     1      -6.588   1.919  24.937  0.00  0.00    +0.031 C 
ATOM      2  C   UNL     1      -5.837   2.233  25.073  0.00  0.00    -0.022 A 
ATOM      3  C   UNL     1      -5.757   2.976  25.422  0.00  0.00    -0.003 A 
ATOM      4  C   UNL     1      -5.006   3.289  25.557  0.00  0.00    +0.020 A 
ATOM      5  C   UNL     1      -4.335   2.860  25.343  0.00  0.00    +0.124 A 
ATOM      6  C   UNL     1      -4.415   2.117  24.994  0.00  0.00    +0.020 A 
ATOM      7  C   UNL     1      -5.167   1.804  24.859  0.00  0.00    -0.003 A 
ENDBRANCH   8   5
ENDBRANCH  11   8
ENDBRANCH  12  11
TORSDOF 5
ENDMDL
MODEL 6
REMARK VINA RESULT:      -8.2      4.168      5.373
REMARK  Name = 
REMARK  5 active torsions:
REMARK  status: ('A' for Active; 'I' for Inactive)
REMARK    1  A    between atoms: C_5  and  S_8
REMARK    2  A    between atoms: S_8  and  N_11
REMARK    3  A    between atoms: N_11  and  C_12
REMARK    4  A    between atoms: C_16  and  N_20
REMARK    5  A    between atoms: C_23  and  C_27
REMARK                            x       y       z     vdW  Elec       q    Type
REMARK                         _______ _______ _______ _____ _____    ______ ____
ROOT
ATOM     12  C   UNL     1      -3.932   2.936  24.638  0.00  0.00    +0.157 C 
ATOM     13  C   UNL     1      -3.649   2.720  23.894  0.00  0.00    +0.164 C 
ATOM     14  O   UNL     1      -3.834   1.925  23.772  0.00  0.00    -0.350 OA
ATOM     15  C   UNL     1      -4.230   1.650  24.440  0.00  0.00    +0.166 C 
ATOM     16  C   UNL     1      -4.590   0.989  24.779  0.00  0.00    +0.154 C 
ATOM     17  C   UNL     1      -4.872   1.205  25.523  0.00  0.00    +0.166 C 
ATOM     18  O   UNL     1      -4.688   2.000  25.645  0.00  0.00    -0.350 OA
ATOM     19  C   UNL     1      -4.291   2.275  24.976  0.00  0.00    +0.164 C 
ENDROOT
BRANCH  16  20
ATOM     20  N   UNL     1      -4.655   0.243  24.434  0.00  0.00    -0.200 NA
ATOM     21  C   UNL     1      -4.200  -0.385  24.718  0.00  0.00    +0.237 A 
ATOM     22  N   UNL     1      -4.265  -1.131  24.373  0.00  0.00    -0.209 NA
ATOM     23  C   UNL     1      -3.811  -1.758  24.656  0.00  0.00    +0.120 A 
ATOM     24  C   UNL     1      -3.291  -1.639  25.286  0.00  0.00    +0.043 A 
ATOM     25  C   UNL     1      -3.226  -0.892  25.631  0.00  0.00    +0.104 A 
ATOM     26  N   UNL     1      -3.681  -0.265  25.347  0.00  0.00    -0.211 NA
BRANCH  23  27
ATOM     27  C   UNL     1      -3.875  -2.504  24.311  0.00  0.00    +0.163 A 
ATOM     28  C   UNL     1      -3.443  -3.175  24.521  0.00  0.00    +0.042 A 
ATOM     29  C   UNL     1      -3.684  -3.796  24.035  0.00  0.00    +0.044 A 
ATOM     30  C   UNL     1      -4.266  -3.510  23.526  0.00  0.00    +0.180 A 
ATOM     31  O   UNL     1      -4.384  -2.711  23.696  0.00  0.00    -0.449 OA
ENDBRANCH  23  27
ENDBRANCH  16  20
BRANCH  12  11
ATOM     11  N   UNL     1      -3.866   3.683  24.984  0.00  0.00    -0.074 NA
BRANCH  11   8
ATOM      8  S   UNL     1      -3.140   4.074  24.987  0.00  0.00    +0.077 S 
ATOM      9  O   UNL     1      -3.251   4.290  24.199  0.00  0.00    -0.152 OA
ATOM     10  O   UNL     1      -3.028   3.858  25.776  0.00  0.00    -0.152 OA
BRANCH   8   5
ATOM      1  C   UNL     1      -0.233   5.636  25.005  0.00  0.00    +0.031 C 
ATOM      2  C   UNL     1      -0.960   5.246  25.001  0.00  0.00    -0.022 A 
ATOM      3  C   UNL     1      -1.661   5.678  24.950  0.00  0.00    -0.003 A 
ATOM      4  C   UNL     1      -2.388   5.288  24.946  0.00  0.00    +0.020 A 
ATOM      5  C   UNL     1      -2.414   4.465  24.992  0.00  0.00    +0.124 A 
ATOM      6  C   UNL     1      -1.713   4.032  25.042  0.00  0.00    +0.020 A 
ATOM      7  C   UNL     1      -0.986   4.423  25.047  0.00  0.00    -0.003 A 
ENDBRANCH   8   5
ENDBRANCH  11   8
ENDBRANCH  12  11
TORSDOF 5
ENDMDL
MODEL 7
REMARK VINA RESULT:      -8.0     17.291     18.195
REMARK  Name = 
REMARK  5 active torsions:
REMARK  status: ('A' for Active; 'I' for Inactive)
REMARK    1  A    between atoms: C_5  and  S_8
REMARK    2  A    between atoms: S_8  and  N_11
REMARK    3  A    between atoms: N_11  and  C_12
REMARK    4  A    between atoms: C_16  and  N_20
REMARK    5  A    between atoms: C_23  and  C_27
REMARK                            x       y       z     vdW  Elec       q    Type
REMARK                         _______ _______ _______ _____ _____    ______ ____
ROOT
ATOM     12  C   UNL     1      -7.539  -8.209   8.774  0.00  0.00    +0.157 C 
ATOM     13  C   UNL     1      -7.753  -8.179   9.570  0.00  0.00    +0.164 C 
ATOM     14  O   UNL     1      -7.193  -8.605  10.000  0.00  0.00    -0.350 OA
ATOM     15  C   UNL     1      -6.633  -8.897   9.471  0.00  0.00    +0.166 C 
ATOM     16  C   UNL     1      -5.941  -9.341   9.408  0.00  0.00    +0.154 C 
ATOM     17  C   UNL     1      -5.727  -9.371   8.612  0.00  0.00    +0.166 C 
ATOM     18  O   UNL     1      -6.287  -8.946   8.182  0.00  0.00    -0.350 OA
ATOM     19  C   UNL     1      -6.847  -8.653   8.713  0.00  0.00    +0.164 C 
ENDROOT
BRANCH  16  20
ATOM     20  N   UNL     1      -5.533  -9.694  10.034  0.00  0.00    -0.200 NA
ATOM     21  C   UNL     1      -4.722  -9.572  10.119  0.00  0.00    +0.237 A 
ATOM     22  N   UNL     1      -4.315  -9.924  10.743  0.00  0.00    -0.209 NA
ATOM     23  C   UNL     1      -3.503  -9.802  10.829  0.00  0.00    +0.120 A 
ATOM     24  C   UNL     1      -3.099  -9.327  10.289  0.00  0.00    +0.043 A 
ATOM     25  C   UNL     1      -3.506  -8.974   9.664  0.00  0.00    +0.104 A 
ATOM     26  N   UNL     1      -4.318  -9.097   9.579  0.00  0.00    -0.211 NA
BRANCH  23  27
ATOM     27  C   UNL     1      -3.096 -10.154  11.453  0.00  0.00    +0.163 A 
ATOM     28  C   UNL     1      -2.347 -10.499  11.411  0.00  0.00    +0.042 A 
ATOM     29  C   UNL     1      -2.154 -10.781  12.161  0.00  0.00    +0.044 A 
ATOM     30  C   UNL     1      -2.782 -10.611  12.667  0.00  0.00    +0.180 A 
ATOM     31  O   UNL     1      -3.364 -10.223  12.229  0.00  0.00    -0.449 OA
ENDBRANCH  23  27
ENDBRANCH  16  20
BRANCH  12  11
ATOM     11  N   UNL     1      -7.947  -7.856   8.149  0.00  0.00    -0.074 NA
BRANCH  11   8
ATOM      8  S   UNL     1      -8.449  -7.217   8.291  0.00  0.00    +0.077 S 
ATOM      9  O   UNL     1      -7.809  -6.700   8.228  0.00  0.00    -0.152 OA
ATOM     10  O   UNL     1      -9.089  -7.733   8.355  0.00  0.00    -0.152 OA
BRANCH   8   5
ATOM      1  C   UNL     1     -10.457  -4.661   8.861  0.00  0.00    +0.031 C 
ATOM      2  C   UNL     1      -9.955  -5.300   8.719  0.00  0.00    -0.022 A 
ATOM      3  C   UNL     1     -10.221  -6.070   8.845  0.00  0.00    -0.003 A 
ATOM      4  C   UNL     1      -9.720  -6.709   8.703  0.00  0.00    +0.020 A 
ATOM      5  C   UNL     1      -8.951  -6.578   8.434  0.00  0.00    +0.124 A 
ATOM      6  C   UNL     1      -8.684  -5.807   8.307  0.00  0.00    +0.020 A 
ATOM      7  C   UNL     1      -9.186  -5.169   8.450  0.00  0.00    -0.003 A 
ENDBRANCH   8   5
ENDBRANCH  11   8
ENDBRANCH  12  11
TORSDOF 5
ENDMDL
MODEL 8
REMARK VINA RESULT:      -7.4     17.040     18.835
REMARK  Name = 
REMARK  5 active torsions:
REMARK  status: ('A' for Active; 'I' for Inactive)
REMARK    1  A    between atoms: C_5  and  S_8
REMARK    2  A    between atoms: S_8  and  N_11
REMARK    3  A    between atoms: N_11  and  C_12
REMARK    4  A    between atoms: C_16  and  N_20
REMARK    5  A    between atoms: C_23  and  C_27
REMARK                            x       y       z     vdW  Elec       q    Type
REMARK                         _______ _______ _______ _____ _____    ______ ____
ROOT
ATOM     12  C   UNL     1      -4.371  -9.363   9.929  0.00  0.00    +0.157 C 
ATOM     13  C   UNL     1      -4.347  -8.672  10.379  0.00  0.00    +0.164 C 
ATOM     14  O   UNL     1      -4.952  -8.177  10.117  0.00  0.00    -0.350 OA
ATOM     15  C   UNL     1      -5.349  -8.560   9.505  0.00  0.00    +0.166 C 
ATOM     16  C   UNL     1      -5.968  -8.492   8.964  0.00  0.00    +0.154 C 
ATOM     17  C   UNL     1      -5.992  -9.183   8.514  0.00  0.00    +0.166 C 
ATOM     18  O   UNL     1      -5.387  -9.678   8.776  0.00  0.00    -0.350 OA
ATOM     19  C   UNL     1      -4.990  -9.294   9.389  0.00  0.00    +0.164 C 
ENDROOT
BRANCH  16  20
ATOM     20  N   UNL     1      -6.475  -7.846   8.887  0.00  0.00    -0.200 NA
ATOM     21  C   UNL     1      -7.290  -7.964   8.826  0.00  0.00    +0.237 A 
ATOM     22  N   UNL     1      -7.797  -7.319   8.749  0.00  0.00    -0.209 NA
ATOM     23  C   UNL     1      -8.611  -7.437   8.688  0.00  0.00    +0.120 A 
ATOM     24  C   UNL     1      -8.918  -8.203   8.704  0.00  0.00    +0.043 A 
ATOM     25  C   UNL     1      -8.411  -8.850   8.781  0.00  0.00    +0.104 A 
ATOM     26  N   UNL     1      -7.597  -8.730   8.842  0.00  0.00    -0.211 NA
BRANCH  23  27
ATOM     27  C   UNL     1      -9.118  -6.792   8.611  0.00  0.00    +0.163 A 
ATOM     28  C   UNL     1      -9.871  -6.724   8.943  0.00  0.00    +0.042 A 
ATOM     29  C   UNL     1     -10.179  -5.990   8.726  0.00  0.00    +0.044 A 
ATOM     30  C   UNL     1      -9.618  -5.605   8.261  0.00  0.00    +0.180 A 
ATOM     31  O   UNL     1      -8.962  -6.100   8.191  0.00  0.00    -0.449 OA
ENDBRANCH  23  27
ENDBRANCH  16  20
BRANCH  12  11
ATOM     11  N   UNL     1      -3.864 -10.009  10.006  0.00  0.00    -0.074 NA
BRANCH  11   8
ATOM      8  S   UNL     1      -3.462 -10.137  10.715  0.00  0.00    +0.077 S 
ATOM      9  O   UNL     1      -2.855  -9.638  10.462  0.00  0.00    -0.152 OA
ATOM     10  O   UNL     1      -4.068 -10.636  10.969  0.00  0.00    -0.152 OA
BRANCH   8   5
ATOM      1  C   UNL     1      -1.856 -10.649  13.552  0.00  0.00    +0.031 C 
ATOM      2  C   UNL     1      -2.258 -10.521  12.843  0.00  0.00    -0.022 A 
ATOM      3  C   UNL     1      -3.071 -10.651  12.800  0.00  0.00    -0.003 A 
ATOM      4  C   UNL     1      -3.473 -10.523  12.091  0.00  0.00    +0.020 A 
ATOM      5  C   UNL     1      -3.061 -10.265  11.424  0.00  0.00    +0.124 A 
ATOM      6  C   UNL     1      -2.247 -10.135  11.467  0.00  0.00    +0.020 A 
ATOM      7  C   UNL     1      -1.846 -10.263  12.177  0.00  0.00    -0.003 A 
ENDBRANCH   8   5
ENDBRANCH  11   8
ENDBRANCH  12  11
TORSDOF 5
ENDMDL
MODEL 9
REMARK VINA RESULT:      -7.3     14.944     16.571
REMARK  Name = 
REMARK  5 active torsions:
REMARK  status: ('A' for Active; 'I' for Inactive)
REMARK    1  A    between atoms: C_5  and  S_8
REMARK    2  A    between atoms: S_8  and  N_11
REMARK    3  A    between atoms: N_11  and  C_12
REMARK    4  A    between atoms: C_16  and  N_20
REMARK    5  A    between atoms: C_23  and  C_27
REMARK                            x       y       z     vdW  Elec       q    Type
REMARK                         _______ _______ _______ _____ _____    ______ ____
ROOT
ATOM     12  C   UNL     1      -6.423  -9.712  12.968  0.00  0.00    +0.157 C 
ATOM     13  C   UNL     1      -5.651  -9.758  13.253  0.00  0.00    +0.164 C 
ATOM     14  O   UNL     1      -5.683 -10.031  14.031  0.00  0.00    -0.350 OA
ATOM     15  C   UNL     1      -6.474 -10.154  14.226  0.00  0.00    +0.166 C 
ATOM     16  C   UNL     1      -6.984 -10.398  14.827  0.00  0.00    +0.154 C 
ATOM     17  C   UNL     1      -7.756 -10.352  14.542  0.00  0.00    +0.166 C 
ATOM     18  O   UNL     1      -7.724 -10.079  13.764  0.00  0.00    -0.350 OA
ATOM     19  C   UNL     1      -6.932  -9.956  13.569  0.00  0.00    +0.164 C 
ENDROOT
BRANCH  16  20
ATOM     20  N   UNL     1      -6.760 -10.646  15.582  0.00  0.00    -0.200 NA
ATOM     21  C   UNL     1      -7.029 -10.238  16.247  0.00  0.00    +0.237 A 
ATOM     22  N   UNL     1      -6.805 -10.485  17.001  0.00  0.00    -0.209 NA
ATOM     23  C   UNL     1      -7.074 -10.077  17.666  0.00  0.00    +0.120 A 
ATOM     24  C   UNL     1      -7.567  -9.421  17.576  0.00  0.00    +0.043 A 
ATOM     25  C   UNL     1      -7.791  -9.174  16.821  0.00  0.00    +0.104 A 
ATOM     26  N   UNL     1      -7.522  -9.582  16.157  0.00  0.00    -0.211 NA
BRANCH  23  27
ATOM     27  C   UNL     1      -6.850 -10.323  18.420  0.00  0.00    +0.163 A 
ATOM     28  C   UNL     1      -6.079 -10.343  18.716  0.00  0.00    +0.042 A 
ATOM     29  C   UNL     1      -6.110 -10.626  19.490  0.00  0.00    +0.044 A 
ATOM     30  C   UNL     1      -6.899 -10.781  19.673  0.00  0.00    +0.180 A 
ATOM     31  O   UNL     1      -7.356 -10.594  19.012  0.00  0.00    -0.449 OA
ENDBRANCH  23  27
ENDBRANCH  16  20
BRANCH  12  11
ATOM     11  N   UNL     1      -6.647  -9.464  12.213  0.00  0.00    -0.074 NA
BRANCH  11   8
ATOM      8  S   UNL     1      -6.076  -9.353  11.628  0.00  0.00    +0.077 S 
ATOM      9  O   UNL     1      -6.178 -10.133  11.379  0.00  0.00    -0.152 OA
ATOM     10  O   UNL     1      -5.973  -8.573  11.877  0.00  0.00    -0.152 OA
BRANCH   8   5
ATOM      1  C   UNL     1      -3.790  -8.907   9.291  0.00  0.00    +0.031 C 
ATOM      2  C   UNL     1      -4.361  -9.018   9.875  0.00  0.00    -0.022 A 
ATOM      3  C   UNL     1      -4.789  -8.374  10.163  0.00  0.00    -0.003 A 
ATOM      4  C   UNL     1      -5.360  -8.485  10.747  0.00  0.00    +0.020 A 
ATOM      5  C   UNL     1      -5.505  -9.241  11.044  0.00  0.00    +0.124 A 
ATOM      6  C   UNL     1      -5.077  -9.886  10.757  0.00  0.00    +0.020 A 
ATOM      7  C   UNL     1      -4.506  -9.774  10.172  0.00  0.00    -0.003 A 
ENDBRANCH   8   5
ENDBRANCH  11   8
ENDBRANCH  12  11
TORSDOF 5
ENDMDL
MODEL 10
REMARK VINA RESULT:      -7.1     16.023     17.194
REMARK  Name = 
REMARK  5 active torsions:
REMARK  status: ('A' for Active; 'I' for Inactive)
REMARK    1  A    between atoms: C_5  and  S_8
REMARK    2  A    between atoms: S_8  and  N_11
REMARK    3  A    between atoms: N_11  and  C_12
REMARK    4  A    between atoms: C_16  and  N_20
REMARK    5  A    between atoms: C_23  and  C_27
REMARK                            x       y       z     vdW  Elec       q    Type
REMARK                         _______ _______ _______ _____ _____    ______ ____
ROOT
ATOM     12  C   UNL     1      -5.668  -9.602  10.438  0.00  0.00    +0.157 C 
ATOM     13  C   UNL     1      -5.998  -9.170  11.059  0.00  0.00    +0.164 C 
ATOM     14  O   UNL     1      -5.581  -9.353  11.746  0.00  0.00    -0.350 OA
ATOM     15  C   UNL     1      -4.993  -9.898  11.551  0.00  0.00    +0.166 C 
ATOM     16  C   UNL     1      -4.372 -10.348  11.855  0.00  0.00    +0.154 C 
ATOM     17  C   UNL     1      -4.043 -10.780  11.234  0.00  0.00    +0.166 C 
ATOM     18  O   UNL     1      -4.460 -10.597  10.547  0.00  0.00    -0.350 OA
ATOM     19  C   UNL     1      -5.048 -10.052  10.743  0.00  0.00    +0.164 C 
ENDROOT
BRANCH  16  20
ATOM     20  N   UNL     1      -4.124 -10.364  12.642  0.00  0.00    -0.200 NA
ATOM     21  C   UNL     1      -3.319 -10.382  12.821  0.00  0.00    +0.237 A 
ATOM     22  N   UNL     1      -3.071 -10.397  13.607  0.00  0.00    -0.209 NA
ATOM     23  C   UNL     1      -2.266 -10.416  13.786  0.00  0.00    +0.120 A 
ATOM     24  C   UNL     1      -1.709 -10.419  13.178  0.00  0.00    +0.043 A 
ATOM     25  C   UNL     1      -1.956 -10.404  12.391  0.00  0.00    +0.104 A 
ATOM     26  N   UNL     1      -2.762 -10.385  12.213  0.00  0.00    -0.211 NA
BRANCH  23  27
ATOM     27  C   UNL     1      -2.018 -10.431  14.572  0.00  0.00    +0.163 A 
ATOM     28  C   UNL     1      -2.422 -10.781  15.201  0.00  0.00    +0.042 A 
ATOM     29  C   UNL     1      -1.976 -10.665  15.886  0.00  0.00    +0.044 A 
ATOM     30  C   UNL     1      -1.298 -10.244  15.680  0.00  0.00    +0.180 A 
ATOM     31  O   UNL     1      -1.324 -10.099  14.868  0.00  0.00    -0.449 OA
ENDBRANCH  23  27
ENDBRANCH  16  20
BRANCH  12  11
ATOM     11  N   UNL     1      -5.916  -9.587   9.651  0.00  0.00    -0.074 NA
BRANCH  11   8
ATOM      8  S   UNL     1      -6.522  -9.078   9.419  0.00  0.00    +0.077 S 
ATOM      9  O   UNL     1      -5.966  -8.497   9.237  0.00  0.00    -0.152 OA
ATOM     10  O   UNL     1      -7.079  -9.659   9.601  0.00  0.00    -0.152 OA
BRANCH   8   5
ATOM      1  C   UNL     1      -8.952  -7.046   8.492  0.00  0.00    +0.031 C 
ATOM      2  C   UNL     1      -8.344  -7.554   8.724  0.00  0.00    -0.022 A 
ATOM      3  C   UNL     1      -7.558  -7.320   8.645  0.00  0.00    -0.003 A 
ATOM      4  C   UNL     1      -6.950  -7.827   8.876  0.00  0.00    +0.020 A 
ATOM      5  C   UNL     1      -7.129  -8.570   9.187  0.00  0.00    +0.124 A 
ATOM      6  C   UNL     1      -7.917  -8.805   9.266  0.00  0.00    +0.020 A 
ATOM      7  C   UNL     1      -8.524  -8.297   9.035  0.00  0.00    -0.003 A 
ENDBRANCH   8   5
ENDBRANCH  11   8
ENDBRANCH  12  11
TORSDOF 5
ENDMDL
