MODEL 1
REMARK VINA RESULT:     -11.3      0.000      0.000
REMARK  Name = 
REMARK  2 active torsions:
REMARK  status: ('A' for Active; 'I' for Inactive)
REMARK    1  A    between atoms: N_3  and  C_15
REMARK    2  A    between atoms: N_7  and  C_11
REMARK                            x       y       z     vdW  Elec       q    Type
REMARK                         _______ _______ _______ _____ _____    ______ ____
ROOT
ATOM      1  O   UNL     1      -2.476  -0.054  24.265  0.00  0.00    -0.252 OA
ATOM      2  C   UNL     1      -3.236   0.133  24.528  0.00  0.00    +0.307 C 
ATOM      3  N   UNL     1      -3.843  -0.405  24.678  0.00  0.00    -0.264 N 
ATOM      4  C   UNL     1      -4.504   0.021  24.929  0.00  0.00    +0.116 C 
ATOM      5  C   UNL     1      -4.305   0.821  24.932  0.00  0.00    +0.113 C 
ATOM      6  C   UNL     1      -4.736   1.497  25.130  0.00  0.00    +0.094 C 
ATOM      7  N   UNL     1      -4.384   2.241  25.079  0.00  0.00    -0.271 NA
ATOM      8  C   UNL     1      -3.600   2.310  24.831  0.00  0.00    +0.094 C 
ATOM      9  C   UNL     1      -3.168   1.635  24.634  0.00  0.00    +0.112 C 
ATOM     10  N   UNL     1      -3.521   0.890  24.684  0.00  0.00    -0.261 N 
ENDROOT
BRANCH   3  15
ATOM     15  C   UNL     1      -3.797  -1.224  24.594  0.00  0.00    +0.077 C 
ATOM     16  C   UNL     1      -3.426  -1.679  25.173  0.00  0.00    +0.020 C 
ATOM     17  C   UNL     1      -3.380  -2.498  25.089  0.00  0.00    +0.002 C 
ATOM     18  C   UNL     1      -3.706  -2.863  24.425  0.00  0.00    +0.000 C 
ATOM     19  C   UNL     1      -4.078  -2.409  23.845  0.00  0.00    +0.002 C 
ATOM     20  C   UNL     1      -4.124  -1.589  23.929  0.00  0.00    +0.020 C 
ENDBRANCH   3  15
BRANCH   7  11
ATOM     11  C   UNL     1      -4.815   2.916  25.276  0.00  0.00    +0.058 C 
ATOM     12  C   UNL     1      -4.655   3.725  25.290  0.00  0.00    +0.016 C 
ATOM     13  C   UNL     1      -5.423   3.872  25.554  0.00  0.00    +0.003 C 
ATOM     14  C   UNL     1      -5.583   3.063  25.540  0.00  0.00    +0.016 C 
ENDBRANCH   7  11
TORSDOF 2
ENDMDL
MODEL 2
REMARK VINA RESULT:     -11.2      1.569      2.228
REMARK  Name = 
REMARK  2 active torsions:
REMARK  status: ('A' for Active; 'I' for Inactive)
REMARK    1  A    between atoms: N_3  and  C_15
REMARK    2  A    between atoms: N_7  and  C_11
REMARK                            x       y       z     vdW  Elec       q    Type
REMARK                         _______ _______ _______ _____ _____    ______ ____
ROOT
ATOM      1  O   UNL     1      -4.850   1.044  24.856  0.00  0.00    -0.252 OA
ATOM      2  C   UNL     1      -4.032   1.155  24.852  0.00  0.00    +0.307 C 
ATOM      3  N   UNL     1      -3.462   0.563  24.779  0.00  0.00    -0.264 N 
ATOM      4  C   UNL     1      -2.719   0.920  24.802  0.00  0.00    +0.116 C 
ATOM      5  C   UNL     1      -2.829   1.733  24.889  0.00  0.00    +0.113 C 
ATOM      6  C   UNL     1      -2.296   2.360  24.945  0.00  0.00    +0.094 C 
ATOM      7  N   UNL     1      -2.574   3.131  25.031  0.00  0.00    -0.271 NA
ATOM      8  C   UNL     1      -3.385   3.277  25.061  0.00  0.00    +0.094 C 
ATOM      9  C   UNL     1      -3.919   2.650  25.006  0.00  0.00    +0.112 C 
ATOM     10  N   UNL     1      -3.641   1.878  24.920  0.00  0.00    -0.261 N 
ENDROOT
BRANCH   3  15
ATOM     15  C   UNL     1      -3.610  -0.245  24.697  0.00  0.00    +0.077 C 
ATOM     16  C   UNL     1      -3.874  -0.545  23.976  0.00  0.00    +0.020 C 
ATOM     17  C   UNL     1      -4.022  -1.353  23.894  0.00  0.00    +0.002 C 
ATOM     18  C   UNL     1      -3.905  -1.860  24.534  0.00  0.00    +0.000 C 
ATOM     19  C   UNL     1      -3.641  -1.560  25.256  0.00  0.00    +0.002 C 
ATOM     20  C   UNL     1      -3.493  -0.753  25.338  0.00  0.00    +0.020 C 
ENDBRANCH   3  15
BRANCH   7  11
ATOM     11  C   UNL     1      -2.041   3.759  25.086  0.00  0.00    +0.058 C 
ATOM     12  C   UNL     1      -2.093   4.549  25.318  0.00  0.00    +0.016 C 
ATOM     13  C   UNL     1      -1.288   4.646  25.165  0.00  0.00    +0.003 C 
ATOM     14  C   UNL     1      -1.236   3.857  24.933  0.00  0.00    +0.016 C 
ENDBRANCH   7  11
TORSDOF 2
ENDMDL
MODEL 3
REMARK VINA RESULT:     -10.5      1.805      4.576
REMARK  Name = 
REMARK  2 active torsions:
REMARK  status: ('A' for Active; 'I' for Inactive)
REMARK    1  A    between atoms: N_3  and  C_15
REMARK    2  A    between atoms: N_7  and  C_11
REMARK                            x       y       z     vdW  Elec       q    Type
REMARK                         _______ _______ _______ _____ _____    ______ ____
ROOT
ATOM      1  O   UNL     1      -3.546   3.005  24.116  0.00  0.00    -0.252 OA
ATOM      2  C   UNL     1      -3.102   2.404  24.467  0.00  0.00    +0.307 C 
ATOM      3  N   UNL     1      -2.377   2.498  24.849  0.00  0.00    -0.264 N 
ATOM      4  C   UNL     1      -2.132   1.756  25.116  0.00  0.00    +0.116 C 
ATOM      5  C   UNL     1      -2.705   1.205  24.898  0.00  0.00    +0.113 C 
ATOM      6  C   UNL     1      -2.759   0.390  25.013  0.00  0.00    +0.094 C 
ATOM      7  N   UNL     1      -3.412  -0.025  24.728  0.00  0.00    -0.271 NA
ATOM      8  C   UNL     1      -4.012   0.376  24.327  0.00  0.00    +0.094 C 
ATOM      9  C   UNL     1      -3.959   1.191  24.211  0.00  0.00    +0.112 C 
ATOM     10  N   UNL     1      -3.304   1.606  24.498  0.00  0.00    -0.261 N 
ENDROOT
BRANCH   3  15
ATOM     15  C   UNL     1      -1.968   3.208  24.948  0.00  0.00    +0.077 C 
ATOM     16  C   UNL     1      -1.266   3.340  24.537  0.00  0.00    +0.020 C 
ATOM     17  C   UNL     1      -0.857   4.050  24.635  0.00  0.00    +0.002 C 
ATOM     18  C   UNL     1      -1.152   4.628  25.145  0.00  0.00    +0.000 C 
ATOM     19  C   UNL     1      -1.855   4.496  25.556  0.00  0.00    +0.002 C 
ATOM     20  C   UNL     1      -2.263   3.786  25.458  0.00  0.00    +0.020 C 
ENDBRANCH   3  15
BRANCH   7  11
ATOM     11  C   UNL     1      -3.467  -0.840  24.843  0.00  0.00    +0.058 C 
ATOM     12  C   UNL     1      -3.463  -1.337  25.501  0.00  0.00    +0.016 C 
ATOM     13  C   UNL     1      -3.544  -1.992  25.006  0.00  0.00    +0.003 C 
ATOM     14  C   UNL     1      -3.547  -1.496  24.348  0.00  0.00    +0.016 C 
ENDBRANCH   7  11
TORSDOF 2
ENDMDL
MODEL 4
REMARK VINA RESULT:     -10.4      0.823      4.346
REMARK  Name = 
REMARK  2 active torsions:
REMARK  status: ('A' for Active; 'I' for Inactive)
REMARK    1  A    between atoms: N_3  and  C_15
REMARK    2  A    between atoms: N_7  and  C_11
REMARK                            x       y       z     vdW  Elec       q    Type
REMARK                         _______ _______ _______ _____ _____    ______ ____
ROOT
ATOM      1  O   UNL     1      -2.284   1.811  25.043  0.00  0.00    -0.252 OA
ATOM      2  C   UNL     1      -2.956   1.368  24.863  0.00  0.00    +0.307 C 
ATOM      3  N   UNL     1      -3.714   1.667  24.734  0.00  0.00    -0.264 N 
ATOM      4  C   UNL     1      -4.215   1.032  24.572  0.00  0.00    +0.116 C 
ATOM      5  C   UNL     1      -3.767   0.341  24.601  0.00  0.00    +0.113 C 
ATOM      6  C   UNL     1      -3.966  -0.452  24.486  0.00  0.00    +0.094 C 
ATOM      7  N   UNL     1      -3.388  -1.036  24.552  0.00  0.00    -0.271 NA
ATOM      8  C   UNL     1      -2.610  -0.829  24.731  0.00  0.00    +0.094 C 
ATOM      9  C   UNL     1      -2.410  -0.037  24.846  0.00  0.00    +0.112 C 
ATOM     10  N   UNL     1      -2.989   0.548  24.781  0.00  0.00    -0.261 N 
ENDROOT
BRANCH   3  15
ATOM     15  C   UNL     1      -3.933   2.462  24.763  0.00  0.00    +0.077 C 
ATOM     16  C   UNL     1      -3.794   2.952  24.114  0.00  0.00    +0.020 C 
ATOM     17  C   UNL     1      -4.013   3.747  24.142  0.00  0.00    +0.002 C 
ATOM     18  C   UNL     1      -4.370   4.052  24.820  0.00  0.00    +0.000 C 
ATOM     19  C   UNL     1      -4.509   3.563  25.470  0.00  0.00    +0.002 C 
ATOM     20  C   UNL     1      -4.290   2.768  25.441  0.00  0.00    +0.020 C 
ENDBRANCH   3  15
BRANCH   7  11
ATOM     11  C   UNL     1      -3.587  -1.829  24.437  0.00  0.00    +0.058 C 
ATOM     12  C   UNL     1      -3.390  -2.539  24.809  0.00  0.00    +0.016 C 
ATOM     13  C   UNL     1      -3.867  -2.949  24.276  0.00  0.00    +0.003 C 
ATOM     14  C   UNL     1      -4.064  -2.240  23.905  0.00  0.00    +0.016 C 
ENDBRANCH   7  11
TORSDOF 2
ENDMDL
