MODEL 1
REMARK VINA RESULT:     -10.3      0.000      0.000
REMARK  Name = 
REMARK  3 active torsions:
REMARK  status: ('A' for Active; 'I' for Inactive)
REMARK    1  A    between atoms: N_6  and  C_7
REMARK    2  A    between atoms: C_7  and  C_8
REMARK    3  A    between atoms: C_11  and  N_12
REMARK                            x       y       z     vdW  Elec       q    Type
REMARK                         _______ _______ _______ _____ _____    ______ ____
ROOT
ATOM      1  C   UNL     1      -1.561   4.752  25.313  0.00  0.00    +0.117 C 
ATOM      2  N   UNL     1      -2.179   4.210  25.242  0.00  0.00    -0.261 N 
ATOM      3  C   UNL     1      -2.264   3.646  24.646  0.00  0.00    +0.116 C 
ATOM      4  C   UNL     1      -2.958   3.225  24.791  0.00  0.00    +0.113 C 
ATOM      5  C   UNL     1      -3.322   2.604  24.387  0.00  0.00    +0.094 C 
ATOM      6  N   UNL     1      -4.029   2.287  24.668  0.00  0.00    -0.266 NA
ATOM     18  C   UNL     1      -4.373   2.591  25.353  0.00  0.00    +0.094 C 
ATOM     19  C   UNL     1      -4.011   3.211  25.758  0.00  0.00    +0.112 C 
ATOM     20  N   UNL     1      -3.302   3.529  25.476  0.00  0.00    -0.261 N 
ATOM     21  C   UNL     1      -2.821   4.137  25.755  0.00  0.00    +0.307 C 
ATOM     22  O   UNL     1      -2.958   4.594  26.429  0.00  0.00    -0.252 OA
ENDROOT
BRANCH   6   7
ATOM      7  C   UNL     1      -4.393   1.666  24.264  0.00  0.00    +0.099 C 
BRANCH   7   8
ATOM      8  C   UNL     1      -4.151   0.889  24.398  0.00  0.00    -0.006 A 
ATOM      9  C   UNL     1      -4.445   0.470  25.045  0.00  0.00    -0.002 A 
ATOM     10  C   UNL     1      -4.204  -0.307  25.179  0.00  0.00    +0.016 A 
ATOM     11  C   UNL     1      -3.667  -0.666  24.665  0.00  0.00    +0.073 A 
ATOM     16  C   UNL     1      -3.373  -0.248  24.017  0.00  0.00    +0.016 A 
ATOM     17  C   UNL     1      -3.615   0.530  23.884  0.00  0.00    -0.002 A 
BRANCH  11  12
ATOM     12  N   UNL     1      -3.425  -1.444  24.798  0.00  0.00    -0.179 NA
ATOM     13  C   UNL     1      -3.792  -2.065  24.397  0.00  0.00    +0.246 C 
ATOM     14  C   UNL     1      -3.550  -2.841  24.530  0.00  0.00    +0.097 C 
ATOM     15  O   UNL     1      -4.401  -1.907  23.863  0.00  0.00    -0.273 OA
ENDBRANCH  11  12
ENDBRANCH   7   8
ENDBRANCH   6   7
TORSDOF 3
ENDMDL
MODEL 2
REMARK VINA RESULT:      -9.6      0.948      4.707
REMARK  Name = 
REMARK  3 active torsions:
REMARK  status: ('A' for Active; 'I' for Inactive)
REMARK    1  A    between atoms: N_6  and  C_7
REMARK    2  A    between atoms: C_7  and  C_8
REMARK    3  A    between atoms: C_11  and  N_12
REMARK                            x       y       z     vdW  Elec       q    Type
REMARK                         _______ _______ _______ _____ _____    ______ ____
ROOT
ATOM      1  C   UNL     1      -3.430  -2.753  24.199  0.00  0.00    +0.117 C 
ATOM      2  N   UNL     1      -3.653  -1.986  24.404  0.00  0.00    -0.261 N 
ATOM      3  C   UNL     1      -3.934  -1.408  23.886  0.00  0.00    +0.116 C 
ATOM      4  C   UNL     1      -4.088  -0.727  24.324  0.00  0.00    +0.113 C 
ATOM      5  C   UNL     1      -4.374   0.017  24.108  0.00  0.00    +0.094 C 
ATOM      6  N   UNL     1      -4.474   0.603  24.679  0.00  0.00    -0.266 NA
ATOM     18  C   UNL     1      -4.289   0.446  25.468  0.00  0.00    +0.094 C 
ATOM     19  C   UNL     1      -4.003  -0.297  25.685  0.00  0.00    +0.112 C 
ATOM     20  N   UNL     1      -3.903  -0.883  25.113  0.00  0.00    -0.261 N 
ATOM     21  C   UNL     1      -3.634  -1.661  25.162  0.00  0.00    +0.307 C 
ATOM     22  O   UNL     1      -3.389  -2.048  25.849  0.00  0.00    -0.252 OA
ENDROOT
BRANCH   6   7
ATOM      7  C   UNL     1      -4.760   1.346  24.463  0.00  0.00    +0.099 C 
BRANCH   7   8
ATOM      8  C   UNL     1      -4.277   2.011  24.536  0.00  0.00    -0.006 A 
ATOM      9  C   UNL     1      -4.375   2.525  25.173  0.00  0.00    -0.002 A 
ATOM     10  C   UNL     1      -3.893   3.190  25.246  0.00  0.00    +0.016 A 
ATOM     11  C   UNL     1      -3.312   3.341  24.680  0.00  0.00    +0.073 A 
ATOM     16  C   UNL     1      -3.213   2.828  24.042  0.00  0.00    +0.016 A 
ATOM     17  C   UNL     1      -3.696   2.162  23.970  0.00  0.00    -0.002 A 
BRANCH  11  12
ATOM     12  N   UNL     1      -2.829   4.007  24.752  0.00  0.00    -0.179 NA
ATOM     13  C   UNL     1      -2.135   3.967  25.197  0.00  0.00    +0.246 C 
ATOM     14  C   UNL     1      -1.653   4.632  25.269  0.00  0.00    +0.097 C 
ATOM     15  O   UNL     1      -1.925   3.261  25.570  0.00  0.00    -0.273 OA
ENDBRANCH  11  12
ENDBRANCH   7   8
ENDBRANCH   6   7
TORSDOF 3
ENDMDL
MODEL 3
REMARK VINA RESULT:      -9.6      1.275      1.546
REMARK  Name = 
REMARK  3 active torsions:
REMARK  status: ('A' for Active; 'I' for Inactive)
REMARK    1  A    between atoms: N_6  and  C_7
REMARK    2  A    between atoms: C_7  and  C_8
REMARK    3  A    between atoms: C_11  and  N_12
REMARK                            x       y       z     vdW  Elec       q    Type
REMARK                         _______ _______ _______ _____ _____    ______ ____
ROOT
ATOM      1  C   UNL     1      -0.921   4.099  25.386  0.00  0.00    +0.117 C 
ATOM      2  N   UNL     1      -1.416   3.526  25.057  0.00  0.00    -0.261 N 
ATOM      3  C   UNL     1      -2.147   3.287  25.357  0.00  0.00    +0.116 C 
ATOM      4  C   UNL     1      -2.450   2.706  24.855  0.00  0.00    +0.113 C 
ATOM      5  C   UNL     1      -3.150   2.270  24.874  0.00  0.00    +0.094 C 
ATOM      6  N   UNL     1      -3.307   1.715  24.285  0.00  0.00    -0.266 NA
ATOM     18  C   UNL     1      -2.764   1.596  23.676  0.00  0.00    +0.094 C 
ATOM     19  C   UNL     1      -2.064   2.031  23.656  0.00  0.00    +0.112 C 
ATOM     20  N   UNL     1      -1.907   2.587  24.246  0.00  0.00    -0.261 N 
ATOM     21  C   UNL     1      -1.268   3.093  24.371  0.00  0.00    +0.307 C 
ATOM     22  O   UNL     1      -0.598   3.156  23.893  0.00  0.00    -0.252 OA
ENDROOT
BRANCH   6   7
ATOM      7  C   UNL     1      -4.008   1.279  24.304  0.00  0.00    +0.099 C 
BRANCH   7   8
ATOM      8  C   UNL     1      -3.983   0.464  24.426  0.00  0.00    -0.006 A 
ATOM      9  C   UNL     1      -3.936   0.162  25.192  0.00  0.00    -0.002 A 
ATOM     10  C   UNL     1      -3.912  -0.653  25.314  0.00  0.00    +0.016 A 
ATOM     11  C   UNL     1      -3.935  -1.167  24.669  0.00  0.00    +0.073 A 
ATOM     16  C   UNL     1      -3.982  -0.866  23.902  0.00  0.00    +0.016 A 
ATOM     17  C   UNL     1      -4.006  -0.049  23.781  0.00  0.00    -0.002 A 
BRANCH  11  12
ATOM     12  N   UNL     1      -3.911  -1.983  24.790  0.00  0.00    -0.179 NA
ATOM     13  C   UNL     1      -3.194  -2.388  24.732  0.00  0.00    +0.246 C 
ATOM     14  C   UNL     1      -3.170  -3.203  24.854  0.00  0.00    +0.097 C 
ATOM     15  O   UNL     1      -2.502  -1.976  24.553  0.00  0.00    -0.273 OA
ENDBRANCH  11  12
ENDBRANCH   7   8
ENDBRANCH   6   7
TORSDOF 3
ENDMDL
MODEL 4
REMARK VINA RESULT:      -9.6      1.057      1.511
REMARK  Name = 
REMARK  3 active torsions:
REMARK  status: ('A' for Active; 'I' for Inactive)
REMARK    1  A    between atoms: N_6  and  C_7
REMARK    2  A    between atoms: C_7  and  C_8
REMARK    3  A    between atoms: C_11  and  N_12
REMARK                            x       y       z     vdW  Elec       q    Type
REMARK                         _______ _______ _______ _____ _____    ______ ____
ROOT
ATOM      1  C   UNL     1      -3.014   4.524  26.003  0.00  0.00    +0.117 C 
ATOM      2  N   UNL     1      -3.257   3.838  25.614  0.00  0.00    -0.261 N 
ATOM      3  C   UNL     1      -3.769   3.265  25.915  0.00  0.00    +0.116 C 
ATOM      4  C   UNL     1      -3.859   2.679  25.343  0.00  0.00    +0.113 C 
ATOM      5  C   UNL     1      -4.297   1.979  25.333  0.00  0.00    +0.094 C 
ATOM      6  N   UNL     1      -4.280   1.491  24.669  0.00  0.00    -0.266 NA
ATOM     18  C   UNL     1      -3.825   1.701  24.014  0.00  0.00    +0.094 C 
ATOM     19  C   UNL     1      -3.386   2.400  24.023  0.00  0.00    +0.112 C 
ATOM     20  N   UNL     1      -3.403   2.889  24.688  0.00  0.00    -0.261 N 
ATOM     21  C   UNL     1      -3.031   3.605  24.855  0.00  0.00    +0.307 C 
ATOM     22  O   UNL     1      -2.523   4.017  24.353  0.00  0.00    -0.252 OA
ENDROOT
BRANCH   6   7
ATOM      7  C   UNL     1      -4.719   0.792  24.659  0.00  0.00    +0.099 C 
BRANCH   7   8
ATOM      8  C   UNL     1      -4.334   0.063  24.667  0.00  0.00    -0.006 A 
ATOM      9  C   UNL     1      -4.216  -0.350  23.962  0.00  0.00    -0.002 A 
ATOM     10  C   UNL     1      -3.831  -1.079  23.970  0.00  0.00    +0.016 A 
ATOM     11  C   UNL     1      -3.563  -1.396  24.683  0.00  0.00    +0.073 A 
ATOM     16  C   UNL     1      -3.679  -0.984  25.388  0.00  0.00    +0.016 A 
ATOM     17  C   UNL     1      -4.065  -0.254  25.379  0.00  0.00    -0.002 A 
BRANCH  11  12
ATOM     12  N   UNL     1      -3.177  -2.126  24.691  0.00  0.00    -0.179 NA
ATOM     13  C   UNL     1      -2.359  -2.162  24.589  0.00  0.00    +0.246 C 
ATOM     14  C   UNL     1      -1.975  -2.891  24.598  0.00  0.00    +0.097 C 
ATOM     15  O   UNL     1      -1.927  -1.468  24.479  0.00  0.00    -0.273 OA
ENDBRANCH  11  12
ENDBRANCH   7   8
ENDBRANCH   6   7
TORSDOF 3
ENDMDL
MODEL 5
REMARK VINA RESULT:      -9.2      2.244      2.761
REMARK  Name = 
REMARK  3 active torsions:
REMARK  status: ('A' for Active; 'I' for Inactive)
REMARK    1  A    between atoms: N_6  and  C_7
REMARK    2  A    between atoms: C_7  and  C_8
REMARK    3  A    between atoms: C_11  and  N_12
REMARK                            x       y       z     vdW  Elec       q    Type
REMARK                         _______ _______ _______ _____ _____    ______ ____
ROOT
ATOM      1  C   UNL     1      -1.117   3.999  25.193  0.00  0.00    +0.117 C 
ATOM      2  N   UNL     1      -0.998   3.185  25.129  0.00  0.00    -0.261 N 
ATOM      3  C   UNL     1      -1.202   2.619  25.694  0.00  0.00    +0.116 C 
ATOM      4  C   UNL     1      -0.985   1.879  25.402  0.00  0.00    +0.113 C 
ATOM      5  C   UNL     1      -1.050   1.119  25.718  0.00  0.00    +0.094 C 
ATOM      6  N   UNL     1      -0.779   0.469  25.290  0.00  0.00    -0.266 NA
ATOM     18  C   UNL     1      -0.442   0.577  24.545  0.00  0.00    +0.094 C 
ATOM     19  C   UNL     1      -0.376   1.336  24.228  0.00  0.00    +0.112 C 
ATOM     20  N   UNL     1      -0.647   1.987  24.657  0.00  0.00    -0.261 N 
ATOM     21  C   UNL     1      -0.656   2.794  24.488  0.00  0.00    +0.307 C 
ATOM     22  O   UNL     1      -0.371   3.148  23.799  0.00  0.00    -0.252 OA
ENDROOT
BRANCH   6   7
ATOM      7  C   UNL     1      -0.845  -0.290  25.607  0.00  0.00    +0.099 C 
BRANCH   7   8
ATOM      8  C   UNL     1      -1.459  -0.785  25.368  0.00  0.00    -0.006 A 
ATOM      9  C   UNL     1      -2.199  -0.730  25.730  0.00  0.00    -0.002 A 
ATOM     10  C   UNL     1      -2.813  -1.226  25.491  0.00  0.00    +0.016 A 
ATOM     11  C   UNL     1      -2.689  -1.776  24.890  0.00  0.00    +0.073 A 
ATOM     16  C   UNL     1      -1.950  -1.832  24.527  0.00  0.00    +0.016 A 
ATOM     17  C   UNL     1      -1.335  -1.336  24.767  0.00  0.00    -0.002 A 
BRANCH  11  12
ATOM     12  N   UNL     1      -3.304  -2.272  24.650  0.00  0.00    -0.179 NA
ATOM     13  C   UNL     1      -3.863  -2.004  24.106  0.00  0.00    +0.246 C 
ATOM     14  C   UNL     1      -4.477  -2.499  23.867  0.00  0.00    +0.097 C 
ATOM     15  O   UNL     1      -3.806  -1.239  23.801  0.00  0.00    -0.273 OA
ENDBRANCH  11  12
ENDBRANCH   7   8
ENDBRANCH   6   7
TORSDOF 3
ENDMDL
MODEL 6
REMARK VINA RESULT:      -7.5     16.225     18.502
REMARK  Name = 
REMARK  3 active torsions:
REMARK  status: ('A' for Active; 'I' for Inactive)
REMARK    1  A    between atoms: N_6  and  C_7
REMARK    2  A    between atoms: C_7  and  C_8
REMARK    3  A    between atoms: C_11  and  N_12
REMARK                            x       y       z     vdW  Elec       q    Type
REMARK                         _______ _______ _______ _____ _____    ______ ____
ROOT
ATOM      1  C   UNL     1      10.389   9.093  22.305  0.00  0.00    +0.117 C 
ATOM      2  N   UNL     1      10.807   8.561  21.833  0.00  0.00    -0.261 N 
ATOM      3  C   UNL     1      11.307   8.757  21.206  0.00  0.00    +0.116 C 
ATOM      4  C   UNL     1      11.606   8.057  20.891  0.00  0.00    +0.113 C 
ATOM      5  C   UNL     1      12.125   7.909  20.267  0.00  0.00    +0.094 C 
ATOM      6  N   UNL     1      12.330   7.134  20.074  0.00  0.00    -0.266 NA
ATOM     18  C   UNL     1      12.015   6.505  20.506  0.00  0.00    +0.094 C 
ATOM     19  C   UNL     1      11.497   6.651  21.130  0.00  0.00    +0.112 C 
ATOM     20  N   UNL     1      11.292   7.428  21.323  0.00  0.00    -0.261 N 
ATOM     21  C   UNL     1      10.798   7.739  21.905  0.00  0.00    +0.307 C 
ATOM     22  O   UNL     1      10.370   7.305  22.461  0.00  0.00    -0.252 OA
ENDROOT
BRANCH   6   7
ATOM      7  C   UNL     1      12.849   6.987  19.449  0.00  0.00    +0.099 C 
BRANCH   7   8
ATOM      8  C   UNL     1      13.663   6.988  19.580  0.00  0.00    -0.006 A 
ATOM      9  C   UNL     1      13.992   6.479  20.140  0.00  0.00    -0.002 A 
ATOM     10  C   UNL     1      14.806   6.480  20.270  0.00  0.00    +0.016 A 
ATOM     11  C   UNL     1      15.292   6.991  19.841  0.00  0.00    +0.073 A 
ATOM     16  C   UNL     1      14.964   7.500  19.281  0.00  0.00    +0.016 A 
ATOM     17  C   UNL     1      14.148   7.498  19.151  0.00  0.00    -0.002 A 
BRANCH  11  12
ATOM     12  N   UNL     1      16.107   6.992  19.971  0.00  0.00    -0.179 NA
ATOM     13  C   UNL     1      16.590   6.454  19.573  0.00  0.00    +0.246 C 
ATOM     14  C   UNL     1      17.404   6.456  19.703  0.00  0.00    +0.097 C 
ATOM     15  O   UNL     1      16.257   5.915  19.044  0.00  0.00    -0.273 OA
ENDBRANCH  11  12
ENDBRANCH   7   8
ENDBRANCH   6   7
TORSDOF 3
ENDMDL
MODEL 7
REMARK VINA RESULT:      -7.4     18.024     19.094
REMARK  Name = 
REMARK  3 active torsions:
REMARK  status: ('A' for Active; 'I' for Inactive)
REMARK    1  A    between atoms: N_6  and  C_7
REMARK    2  A    between atoms: C_7  and  C_8
REMARK    3  A    between atoms: C_11  and  N_12
REMARK                            x       y       z     vdW  Elec       q    Type
REMARK                         _______ _______ _______ _____ _____    ______ ____
ROOT
ATOM      1  C   UNL     1      16.533   6.474  20.926  0.00  0.00    +0.117 C 
ATOM      2  N   UNL     1      15.778   6.758  20.753  0.00  0.00    -0.261 N 
ATOM      3  C   UNL     1      15.196   6.362  20.322  0.00  0.00    +0.116 C 
ATOM      4  C   UNL     1      14.531   6.848  20.285  0.00  0.00    +0.113 C 
ATOM      5  C   UNL     1      13.792   6.747  19.932  0.00  0.00    +0.094 C 
ATOM      6  N   UNL     1      13.224   7.341  19.987  0.00  0.00    -0.266 NA
ATOM     18  C   UNL     1      13.394   8.038  20.394  0.00  0.00    +0.094 C 
ATOM     19  C   UNL     1      14.132   8.140  20.747  0.00  0.00    +0.112 C 
ATOM     20  N   UNL     1      14.701   7.544  20.692  0.00  0.00    -0.261 N 
ATOM     21  C   UNL     1      15.471   7.489  20.982  0.00  0.00    +0.307 C 
ATOM     22  O   UNL     1      15.866   8.064  21.423  0.00  0.00    -0.252 OA
ENDROOT
BRANCH   6   7
ATOM      7  C   UNL     1      12.485   7.240  19.634  0.00  0.00    +0.099 C 
BRANCH   7   8
ATOM      8  C   UNL     1      12.301   7.641  18.937  0.00  0.00    -0.006 A 
ATOM      9  C   UNL     1      12.497   7.311  18.207  0.00  0.00    -0.002 A 
ATOM     10  C   UNL     1      12.313   7.711  17.510  0.00  0.00    +0.016 A 
ATOM     11  C   UNL     1      11.934   8.443  17.543  0.00  0.00    +0.073 A 
ATOM     16  C   UNL     1      11.738   8.774  18.273  0.00  0.00    +0.016 A 
ATOM     17  C   UNL     1      11.922   8.373  18.970  0.00  0.00    -0.002 A 
BRANCH  11  12
ATOM     12  N   UNL     1      11.750   8.845  16.845  0.00  0.00    -0.179 NA
ATOM     13  C   UNL     1      11.039   8.692  16.457  0.00  0.00    +0.246 C 
ATOM     14  C   UNL     1      10.856   9.094  15.760  0.00  0.00    +0.097 C 
ATOM     15  O   UNL     1      10.511   8.138  16.765  0.00  0.00    -0.273 OA
ENDBRANCH  11  12
ENDBRANCH   7   8
ENDBRANCH   6   7
TORSDOF 3
ENDMDL
MODEL 8
REMARK VINA RESULT:      -7.4     16.918     19.206
REMARK  Name = 
REMARK  3 active torsions:
REMARK  status: ('A' for Active; 'I' for Inactive)
REMARK    1  A    between atoms: N_6  and  C_7
REMARK    2  A    between atoms: C_7  and  C_8
REMARK    3  A    between atoms: C_11  and  N_12
REMARK                            x       y       z     vdW  Elec       q    Type
REMARK                         _______ _______ _______ _____ _____    ______ ____
ROOT
ATOM      1  C   UNL     1      17.405   6.449  20.217  0.00  0.00    +0.117 C 
ATOM      2  N   UNL     1      16.694   6.809  20.003  0.00  0.00    -0.261 N 
ATOM      3  C   UNL     1      16.037   6.430  19.679  0.00  0.00    +0.116 C 
ATOM      4  C   UNL     1      15.453   6.998  19.551  0.00  0.00    +0.113 C 
ATOM      5  C   UNL     1      14.689   6.945  19.243  0.00  0.00    +0.094 C 
ATOM      6  N   UNL     1      14.222   7.622  19.181  0.00  0.00    -0.266 NA
ATOM     18  C   UNL     1      14.517   8.351  19.427  0.00  0.00    +0.094 C 
ATOM     19  C   UNL     1      15.281   8.405  19.735  0.00  0.00    +0.112 C 
ATOM     20  N   UNL     1      15.749   7.728  19.797  0.00  0.00    -0.261 N 
ATOM     21  C   UNL     1      16.516   7.611  20.076  0.00  0.00    +0.307 C 
ATOM     22  O   UNL     1      17.017   8.194  20.376  0.00  0.00    -0.252 OA
ENDROOT
BRANCH   6   7
ATOM      7  C   UNL     1      13.458   7.569  18.873  0.00  0.00    +0.099 C 
BRANCH   7   8
ATOM      8  C   UNL     1      12.808   7.566  19.380  0.00  0.00    -0.006 A 
ATOM      9  C   UNL     1      12.576   6.867  19.751  0.00  0.00    -0.002 A 
ATOM     10  C   UNL     1      11.926   6.864  20.258  0.00  0.00    +0.016 A 
ATOM     11  C   UNL     1      11.506   7.561  20.394  0.00  0.00    +0.073 A 
ATOM     16  C   UNL     1      11.736   8.261  20.024  0.00  0.00    +0.016 A 
ATOM     17  C   UNL     1      12.388   8.263  19.516  0.00  0.00    -0.002 A 
BRANCH  11  12
ATOM     12  N   UNL     1      10.854   7.558  20.901  0.00  0.00    -0.179 NA
ATOM     13  C   UNL     1      10.962   7.668  21.712  0.00  0.00    +0.246 C 
ATOM     14  C   UNL     1      10.312   7.665  22.218  0.00  0.00    +0.097 C 
ATOM     15  O   UNL     1      11.722   7.780  22.015  0.00  0.00    -0.273 OA
ENDBRANCH  11  12
ENDBRANCH   7   8
ENDBRANCH   6   7
TORSDOF 3
ENDMDL
MODEL 9
REMARK VINA RESULT:      -7.3     16.031     18.296
REMARK  Name = 
REMARK  3 active torsions:
REMARK  status: ('A' for Active; 'I' for Inactive)
REMARK    1  A    between atoms: N_6  and  C_7
REMARK    2  A    between atoms: C_7  and  C_8
REMARK    3  A    between atoms: C_11  and  N_12
REMARK                            x       y       z     vdW  Elec       q    Type
REMARK                         _______ _______ _______ _____ _____    ______ ____
ROOT
ATOM      1  C   UNL     1      10.740   8.878  23.015  0.00  0.00    +0.117 C 
ATOM      2  N   UNL     1      11.111   8.404  22.451  0.00  0.00    -0.261 N 
ATOM      3  C   UNL     1      11.850   8.544  22.109  0.00  0.00    +0.116 C 
ATOM      4  C   UNL     1      12.004   7.934  21.578  0.00  0.00    +0.113 C 
ATOM      5  C   UNL     1      12.647   7.781  21.083  0.00  0.00    +0.094 C 
ATOM      6  N   UNL     1      12.648   7.112  20.601  0.00  0.00    -0.266 NA
ATOM     18  C   UNL     1      12.006   6.594  20.614  0.00  0.00    +0.094 C 
ATOM     19  C   UNL     1      11.363   6.745  21.108  0.00  0.00    +0.112 C 
ATOM     20  N   UNL     1      11.362   7.416  21.590  0.00  0.00    -0.261 N 
ATOM     21  C   UNL     1      10.811   7.706  22.130  0.00  0.00    +0.307 C 
ATOM     22  O   UNL     1      10.085   7.360  22.316  0.00  0.00    -0.252 OA
ENDROOT
BRANCH   6   7
ATOM      7  C   UNL     1      13.290   6.960  20.106  0.00  0.00    +0.099 C 
BRANCH   7   8
ATOM      8  C   UNL     1      13.365   7.363  19.391  0.00  0.00    -0.006 A 
ATOM      9  C   UNL     1      13.962   7.924  19.293  0.00  0.00    -0.002 A 
ATOM     10  C   UNL     1      14.037   8.327  18.578  0.00  0.00    +0.016 A 
ATOM     11  C   UNL     1      13.515   8.169  17.959  0.00  0.00    +0.073 A 
ATOM     16  C   UNL     1      12.918   7.608  18.056  0.00  0.00    +0.016 A 
ATOM     17  C   UNL     1      12.843   7.205  18.772  0.00  0.00    -0.002 A 
BRANCH  11  12
ATOM     12  N   UNL     1      13.590   8.572  17.242  0.00  0.00    -0.179 NA
ATOM     13  C   UNL     1      13.959   8.208  16.601  0.00  0.00    +0.246 C 
ATOM     14  C   UNL     1      14.034   8.611  15.885  0.00  0.00    +0.097 C 
ATOM     15  O   UNL     1      14.254   7.441  16.676  0.00  0.00    -0.273 OA
ENDBRANCH  11  12
ENDBRANCH   7   8
ENDBRANCH   6   7
TORSDOF 3
ENDMDL
MODEL 10
REMARK VINA RESULT:      -7.2     17.915     19.636
REMARK  Name = 
REMARK  3 active torsions:
REMARK  status: ('A' for Active; 'I' for Inactive)
REMARK    1  A    between atoms: N_6  and  C_7
REMARK    2  A    between atoms: C_7  and  C_8
REMARK    3  A    between atoms: C_11  and  N_12
REMARK                            x       y       z     vdW  Elec       q    Type
REMARK                         _______ _______ _______ _____ _____    ______ ____
ROOT
ATOM      1  C   UNL     1      11.068   9.068  15.914  0.00  0.00    +0.117 C 
ATOM      2  N   UNL     1      11.448   8.924  16.632  0.00  0.00    -0.261 N 
ATOM      3  C   UNL     1      12.236   9.094  16.807  0.00  0.00    +0.116 C 
ATOM      4  C   UNL     1      12.381   8.860  17.584  0.00  0.00    +0.113 C 
ATOM      5  C   UNL     1      13.059   8.892  18.053  0.00  0.00    +0.094 C 
ATOM      6  N   UNL     1      13.039   8.610  18.827  0.00  0.00    -0.266 NA
ATOM     18  C   UNL     1      12.341   8.295  19.134  0.00  0.00    +0.094 C 
ATOM     19  C   UNL     1      11.662   8.263  18.665  0.00  0.00    +0.112 C 
ATOM     20  N   UNL     1      11.683   8.545  17.890  0.00  0.00    -0.261 N 
ATOM     21  C   UNL     1      11.106   8.585  17.302  0.00  0.00    +0.307 C 
ATOM     22  O   UNL     1      10.324   8.330  17.371  0.00  0.00    -0.252 OA
ENDROOT
BRANCH   6   7
ATOM      7  C   UNL     1      13.717   8.642  19.297  0.00  0.00    +0.099 C 
BRANCH   7   8
ATOM      8  C   UNL     1      14.274   8.036  19.260  0.00  0.00    -0.006 A 
ATOM      9  C   UNL     1      14.223   7.396  19.779  0.00  0.00    -0.002 A 
ATOM     10  C   UNL     1      14.779   6.789  19.742  0.00  0.00    +0.016 A 
ATOM     11  C   UNL     1      15.389   6.821  19.187  0.00  0.00    +0.073 A 
ATOM     16  C   UNL     1      15.441   7.461  18.668  0.00  0.00    +0.016 A 
ATOM     17  C   UNL     1      14.883   8.068  18.705  0.00  0.00    -0.002 A 
BRANCH  11  12
ATOM     12  N   UNL     1      15.947   6.214  19.150  0.00  0.00    -0.179 NA
ATOM     13  C   UNL     1      16.704   6.330  19.456  0.00  0.00    +0.246 C 
ATOM     14  C   UNL     1      17.261   5.723  19.419  0.00  0.00    +0.097 C 
ATOM     15  O   UNL     1      16.903   7.053  19.799  0.00  0.00    -0.273 OA
ENDBRANCH  11  12
ENDBRANCH   7   8
ENDBRANCH   6   7
TORSDOF 3
ENDMDL
