REMARK  Name = 
REMARK  7 active torsions:
REMARK  status: ('A' for Active; 'I' for Inactive)
REMARK    1  A    between atoms: O_2  and  C_3
REMARK    2  A    between atoms: C_4  and  C_9
REMARK    3  A    between atoms: N_11  and  C_12
REMARK    4  A    between atoms: C_12  and  C_13
REMARK    5  A    between atoms: C_17  and  C_18
REMARK    6  A    between atoms: C_18  and  C_19
REMARK    7  A    between atoms: C_34  and  C_35
REMARK                            x       y       z     vdW  Elec       q    Type
REMARK                         _______ _______ _______ _____ _____    ______ ____
ROOT
ATOM     13  C   UNL     1       7.145  -9.075   0.000  0.00  0.00    +0.043 C 
ATOM     14  C   UNL     1       7.859  -8.662   0.000  0.00  0.00    -0.033 C 
ATOM     15  C   UNL     1       8.574  -9.075   0.000  0.00  0.00    -0.048 C 
ATOM     16  C   UNL     1       9.288  -8.662   0.000  0.00  0.00    +0.026 C 
ATOM     17  C   UNL     1       8.574  -9.900   0.000  0.00  0.00    +0.027 C 
ATOM     33  C   UNL     1       7.859 -10.312   0.000  0.00  0.00    +0.005 C 
ATOM     34  C   UNL     1       7.145  -9.900   0.000  0.00  0.00    +0.006 C 
ENDROOT
BRANCH  34  35
ATOM     35  C   UNL     1       6.430 -10.312   0.000  0.00  0.00    +0.000 C 
ATOM     36  C   UNL     1       5.716  -9.900   0.000  0.00  0.00    +0.000 C 
ATOM     37  C   UNL     1       6.430 -11.137   0.000  0.00  0.00    +0.000 C 
ENDBRANCH  34  35
BRANCH  13  12
ATOM     12  C   UNL     1       6.430  -8.662   0.000  0.00  0.00    +0.120 C 
BRANCH  12  11
ATOM      9  C   UNL     1       5.001  -8.662   0.000  0.00  0.00    +0.268 C 
ATOM     10  O   UNL     1       5.001  -7.838   0.000  0.00  0.00    -0.268 OA
ATOM     11  N   UNL     1       5.716  -9.075   0.000  0.00  0.00    -0.201 NA
BRANCH   9   4
ATOM      3  C   UNL     1       3.572  -8.662   0.000  0.00  0.00    +0.143 A 
ATOM      4  C   UNL     1       4.287  -9.075   0.000  0.00  0.00    +0.089 A 
ATOM      5  C   UNL     1       4.287  -9.900   0.000  0.00  0.00    +0.008 A 
ATOM      6  C   UNL     1       3.572 -10.312   0.000  0.00  0.00    +0.000 A 
ATOM      7  C   UNL     1       2.858  -9.900   0.000  0.00  0.00    +0.003 A 
ATOM      8  C   UNL     1       2.858  -9.075   0.000  0.00  0.00    +0.037 A 
BRANCH   3   2
ATOM      1  C   UNL     1       2.858  -7.425   0.000  0.00  0.00    +0.252 C 
ATOM      2  O   UNL     1       3.572  -7.838   0.000  0.00  0.00    -0.471 OA
ENDBRANCH   3   2
ENDBRANCH   9   4
ENDBRANCH  12  11
ENDBRANCH  13  12
BRANCH  17  18
ATOM     18  C   UNL     1       9.288 -10.312   0.000  0.00  0.00    +0.089 C 
BRANCH  18  19
ATOM     19  C   UNL     1      10.003  -9.900   0.000  0.00  0.00    +0.226 C 
ATOM     20  O   UNL     1      10.003  -9.075   0.000  0.00  0.00    -0.275 OA
ATOM     21  N   UNL     1      10.717 -10.312   0.000  0.00  0.00    -0.276 N 
ATOM     22  C   UNL     1      11.431  -9.900   0.000  0.00  0.00    +0.115 C 
ATOM     23  C   UNL     1      12.146 -10.312   0.000  0.00  0.00    +0.114 C 
ATOM     24  N   UNL     1      12.146 -11.137   0.000  0.00  0.00    -0.290 N 
ATOM     25  C   UNL     1      11.431 -11.550   0.000  0.00  0.00    +0.114 C 
ATOM     26  C   UNL     1      10.717 -11.137   0.000  0.00  0.00    +0.115 C 
ATOM     27  C   UNL     1      12.861 -11.550   0.000  0.00  0.00    +0.132 A 
ATOM     28  N   UNL     1      13.575 -11.137   0.000  0.00  0.00    -0.229 NA
ATOM     29  C   UNL     1      14.289 -11.550   0.000  0.00  0.00    +0.100 A 
ATOM     30  C   UNL     1      14.289 -12.375   0.000  0.00  0.00    +0.021 A 
ATOM     31  C   UNL     1      13.575 -12.787   0.000  0.00  0.00    +0.004 A 
ATOM     32  C   UNL     1      12.861 -12.375   0.000  0.00  0.00    +0.034 A 
ENDBRANCH  18  19
ENDBRANCH  17  18
TORSDOF 7
