MODEL 1
REMARK VINA RESULT:      -9.1      0.000      0.000
REMARK  Name = 
REMARK  6 active torsions:
REMARK  status: ('A' for Active; 'I' for Inactive)
REMARK    1  A    between atoms: O_2  and  C_3
REMARK    2  A    between atoms: C_3  and  C_4
REMARK    3  A    between atoms: C_6  and  C_7
REMARK    4  A    between atoms: C_7  and  C_8
REMARK    5  A    between atoms: C_8  and  N_12
REMARK    6  A    between atoms: N_12  and  C_13
REMARK                            x       y       z     vdW  Elec       q    Type
REMARK                         _______ _______ _______ _____ _____    ______ ____
ROOT
ATOM      8  C   UNL     1      -3.120   0.042  24.586  0.00  0.00    +0.119 C 
ATOM      9  C   UNL     1      -2.561  -0.296  25.091  0.00  0.00    +0.161 C 
ATOM     10  O   UNL     1      -1.977   0.189  24.766  0.00  0.00    -0.351 OA
ATOM     11  C   UNL     1      -2.535   0.526  24.262  0.00  0.00    +0.161 C 
ENDROOT
BRANCH   8   7
ATOM      7  C   UNL     1      -3.679   0.379  24.081  0.00  0.00    +0.070 C 
BRANCH   7   6
ATOM      4  C   UNL     1      -4.598   2.233  24.605  0.00  0.00    +0.184 A 
ATOM      5  C   UNL     1      -4.562   1.410  24.645  0.00  0.00    +0.056 A 
ATOM      6  C   UNL     1      -3.919   1.160  24.194  0.00  0.00    +0.102 A 
ATOM     19  N   UNL     1      -3.556   1.829  23.873  0.00  0.00    -0.082 NA
ATOM     20  O   UNL     1      -3.976   2.492  24.128  0.00  0.00    -0.356 OA
BRANCH   4   3
ATOM      3  C   UNL     1      -5.157   2.713  24.976  0.00  0.00    +0.209 C 
BRANCH   3   2
ATOM      1  C   UNL     1      -5.485   3.908  25.687  0.00  0.00    +0.175 C 
ATOM      2  O   UNL     1      -4.925   3.425  25.321  0.00  0.00    -0.343 OA
ENDBRANCH   3   2
ENDBRANCH   4   3
ENDBRANCH   7   6
ENDBRANCH   8   7
BRANCH   8  12
ATOM     12  N   UNL     1      -3.705  -0.443  24.910  0.00  0.00    -0.217 NA
BRANCH  12  13
ATOM     13  C   UNL     1      -3.712  -1.250  24.739  0.00  0.00    +0.073 C 
ATOM     14  C   UNL     1      -4.043  -1.519  24.034  0.00  0.00    +0.017 C 
ATOM     15  C   UNL     1      -4.051  -2.326  23.863  0.00  0.00    +0.001 C 
ATOM     16  C   UNL     1      -3.727  -2.864  24.399  0.00  0.00    +0.000 C 
ATOM     17  C   UNL     1      -3.397  -2.594  25.104  0.00  0.00    +0.001 C 
ATOM     18  C   UNL     1      -3.389  -1.787  25.275  0.00  0.00    +0.017 C 
ENDBRANCH  12  13
ENDBRANCH   8  12
TORSDOF 6
ENDMDL
MODEL 2
REMARK VINA RESULT:      -8.9      1.706      2.288
REMARK  Name = 
REMARK  6 active torsions:
REMARK  status: ('A' for Active; 'I' for Inactive)
REMARK    1  A    between atoms: O_2  and  C_3
REMARK    2  A    between atoms: C_3  and  C_4
REMARK    3  A    between atoms: C_6  and  C_7
REMARK    4  A    between atoms: C_7  and  C_8
REMARK    5  A    between atoms: C_8  and  N_12
REMARK    6  A    between atoms: N_12  and  C_13
REMARK                            x       y       z     vdW  Elec       q    Type
REMARK                         _______ _______ _______ _____ _____    ______ ____
ROOT
ATOM      8  C   UNL     1      -4.384   1.278  24.810  0.00  0.00    +0.119 C 
ATOM      9  C   UNL     1      -4.875   0.875  25.337  0.00  0.00    +0.161 C 
ATOM     10  O   UNL     1      -5.495   1.385  25.147  0.00  0.00    -0.351 OA
ATOM     11  C   UNL     1      -5.004   1.788  24.621  0.00  0.00    +0.161 C 
ENDROOT
BRANCH   8   7
ATOM      7  C   UNL     1      -3.892   1.681  24.284  0.00  0.00    +0.070 C 
BRANCH   7   6
ATOM      4  C   UNL     1      -2.912   3.474  24.900  0.00  0.00    +0.184 A 
ATOM      5  C   UNL     1      -2.940   2.652  24.842  0.00  0.00    +0.056 A 
ATOM      6  C   UNL     1      -3.641   2.447  24.459  0.00  0.00    +0.102 A 
ATOM     19  N   UNL     1      -4.047   3.143  24.279  0.00  0.00    -0.082 NA
ATOM     20  O   UNL     1      -3.596   3.778  24.553  0.00  0.00    -0.356 OA
BRANCH   4   3
ATOM      3  C   UNL     1      -2.307   3.916  25.245  0.00  0.00    +0.209 C 
BRANCH   3   2
ATOM      1  C   UNL     1      -1.370   4.993  25.174  0.00  0.00    +0.175 C 
ATOM      2  O   UNL     1      -2.021   4.591  24.865  0.00  0.00    -0.343 OA
ENDBRANCH   3   2
ENDBRANCH   4   3
ENDBRANCH   7   6
ENDBRANCH   8   7
BRANCH   8  12
ATOM     12  N   UNL     1      -3.763   0.768  24.999  0.00  0.00    -0.217 NA
BRANCH  12  13
ATOM     13  C   UNL     1      -3.812  -0.032  24.801  0.00  0.00    +0.073 C 
ATOM     14  C   UNL     1      -3.753  -0.606  25.390  0.00  0.00    +0.017 C 
ATOM     15  C   UNL     1      -3.801  -1.406  25.192  0.00  0.00    +0.001 C 
ATOM     16  C   UNL     1      -3.909  -1.630  24.406  0.00  0.00    +0.000 C 
ATOM     17  C   UNL     1      -3.969  -1.056  23.818  0.00  0.00    +0.001 C 
ATOM     18  C   UNL     1      -3.920  -0.256  24.015  0.00  0.00    +0.017 C 
ENDBRANCH  12  13
ENDBRANCH   8  12
TORSDOF 6
ENDMDL
MODEL 3
REMARK VINA RESULT:      -8.7      0.893      1.104
REMARK  Name = 
REMARK  6 active torsions:
REMARK  status: ('A' for Active; 'I' for Inactive)
REMARK    1  A    between atoms: O_2  and  C_3
REMARK    2  A    between atoms: C_3  and  C_4
REMARK    3  A    between atoms: C_6  and  C_7
REMARK    4  A    between atoms: C_7  and  C_8
REMARK    5  A    between atoms: C_8  and  N_12
REMARK    6  A    between atoms: N_12  and  C_13
REMARK                            x       y       z     vdW  Elec       q    Type
REMARK                         _______ _______ _______ _____ _____    ______ ____
ROOT
ATOM      8  C   UNL     1      -2.816   0.211  24.348  0.00  0.00    +0.119 C 
ATOM      9  C   UNL     1      -2.219  -0.234  24.704  0.00  0.00    +0.161 C 
ATOM     10  O   UNL     1      -1.656   0.159  24.247  0.00  0.00    -0.351 OA
ATOM     11  C   UNL     1      -2.253   0.603  23.892  0.00  0.00    +0.161 C 
ENDROOT
BRANCH   8   7
ATOM      7  C   UNL     1      -3.414   0.655  23.993  0.00  0.00    +0.070 C 
BRANCH   7   6
ATOM      4  C   UNL     1      -3.586   2.684  24.635  0.00  0.00    +0.184 A 
ATOM      5  C   UNL     1      -3.642   1.874  24.783  0.00  0.00    +0.056 A 
ATOM      6  C   UNL     1      -3.434   1.474  24.092  0.00  0.00    +0.102 A 
ATOM     19  N   UNL     1      -3.251   2.036  23.516  0.00  0.00    -0.082 NA
ATOM     20  O   UNL     1      -3.345   2.784  23.852  0.00  0.00    -0.356 OA
BRANCH   4   3
ATOM      3  C   UNL     1      -3.745   3.287  25.174  0.00  0.00    +0.209 C 
BRANCH   3   2
ATOM      1  C   UNL     1      -3.298   4.184  26.193  0.00  0.00    +0.175 C 
ATOM      2  O   UNL     1      -3.136   3.595  25.639  0.00  0.00    -0.343 OA
ENDBRANCH   3   2
ENDBRANCH   4   3
ENDBRANCH   7   6
ENDBRANCH   8   7
BRANCH   8  12
ATOM     12  N   UNL     1      -3.380  -0.182  24.806  0.00  0.00    -0.217 NA
BRANCH  12  13
ATOM     13  C   UNL     1      -3.550  -0.976  24.658  0.00  0.00    +0.073 C 
ATOM     14  C   UNL     1      -3.252  -1.561  25.157  0.00  0.00    +0.017 C 
ATOM     15  C   UNL     1      -3.422  -2.355  25.010  0.00  0.00    +0.001 C 
ATOM     16  C   UNL     1      -3.890  -2.563  24.363  0.00  0.00    +0.000 C 
ATOM     17  C   UNL     1      -4.188  -1.978  23.865  0.00  0.00    +0.001 C 
ATOM     18  C   UNL     1      -4.019  -1.184  24.012  0.00  0.00    +0.017 C 
ENDBRANCH  12  13
ENDBRANCH   8  12
TORSDOF 6
ENDMDL
MODEL 4
REMARK VINA RESULT:      -8.7      2.219      4.509
REMARK  Name = 
REMARK  6 active torsions:
REMARK  status: ('A' for Active; 'I' for Inactive)
REMARK    1  A    between atoms: O_2  and  C_3
REMARK    2  A    between atoms: C_3  and  C_4
REMARK    3  A    between atoms: C_6  and  C_7
REMARK    4  A    between atoms: C_7  and  C_8
REMARK    5  A    between atoms: C_8  and  N_12
REMARK    6  A    between atoms: N_12  and  C_13
REMARK                            x       y       z     vdW  Elec       q    Type
REMARK                         _______ _______ _______ _____ _____    ______ ____
ROOT
ATOM      8  C   UNL     1      -3.270   2.699  24.341  0.00  0.00    +0.119 C 
ATOM      9  C   UNL     1      -3.610   3.448  24.275  0.00  0.00    +0.161 C 
ATOM     10  O   UNL     1      -3.946   3.231  23.554  0.00  0.00    -0.351 OA
ATOM     11  C   UNL     1      -3.606   2.483  23.620  0.00  0.00    +0.161 C 
ENDROOT
BRANCH   8   7
ATOM      7  C   UNL     1      -2.930   1.950  24.407  0.00  0.00    +0.070 C 
BRANCH   7   6
ATOM      4  C   UNL     1      -3.845   0.044  24.701  0.00  0.00    +0.184 A 
ATOM      5  C   UNL     1      -3.223   0.510  24.421  0.00  0.00    +0.056 A 
ATOM      6  C   UNL     1      -3.400   1.297  24.590  0.00  0.00    +0.102 A 
ATOM     19  N   UNL     1      -4.131   1.319  24.974  0.00  0.00    -0.082 NA
ATOM     20  O   UNL     1      -4.405   0.544  25.042  0.00  0.00    -0.356 OA
BRANCH   4   3
ATOM      3  C   UNL     1      -3.896  -0.778  24.648  0.00  0.00    +0.209 C 
BRANCH   3   2
ATOM      1  C   UNL     1      -4.253  -1.947  23.908  0.00  0.00    +0.175 C 
ATOM      2  O   UNL     1      -4.267  -1.127  23.999  0.00  0.00    -0.343 OA
ENDBRANCH   3   2
ENDBRANCH   4   3
ENDBRANCH   7   6
ENDBRANCH   8   7
BRANCH   8  12
ATOM     12  N   UNL     1      -2.933   2.915  25.063  0.00  0.00    -0.217 NA
BRANCH  12  13
ATOM     13  C   UNL     1      -2.318   3.465  25.083  0.00  0.00    +0.073 C 
ATOM     14  C   UNL     1      -2.454   4.225  25.373  0.00  0.00    +0.017 C 
ATOM     15  C   UNL     1      -1.840   4.775  25.393  0.00  0.00    +0.001 C 
ATOM     16  C   UNL     1      -1.090   4.565  25.123  0.00  0.00    +0.000 C 
ATOM     17  C   UNL     1      -0.954   3.805  24.832  0.00  0.00    +0.001 C 
ATOM     18  C   UNL     1      -1.568   3.255  24.812  0.00  0.00    +0.017 C 
ENDBRANCH  12  13
ENDBRANCH   8  12
TORSDOF 6
ENDMDL
MODEL 5
REMARK VINA RESULT:      -8.5      3.011      5.315
REMARK  Name = 
REMARK  6 active torsions:
REMARK  status: ('A' for Active; 'I' for Inactive)
REMARK    1  A    between atoms: O_2  and  C_3
REMARK    2  A    between atoms: C_3  and  C_4
REMARK    3  A    between atoms: C_6  and  C_7
REMARK    4  A    between atoms: C_7  and  C_8
REMARK    5  A    between atoms: C_8  and  N_12
REMARK    6  A    between atoms: N_12  and  C_13
REMARK                            x       y       z     vdW  Elec       q    Type
REMARK                         _______ _______ _______ _____ _____    ______ ____
ROOT
ATOM      8  C   UNL     1      -0.477   2.372  25.610  0.00  0.00    +0.119 C 
ATOM      9  C   UNL     1       0.112   2.942  25.701  0.00  0.00    +0.161 C 
ATOM     10  O   UNL     1       0.422   2.518  26.338  0.00  0.00    -0.351 OA
ATOM     11  C   UNL     1      -0.168   1.949  26.247  0.00  0.00    +0.161 C 
ENDROOT
BRANCH   8   7
ATOM      7  C   UNL     1      -1.067   1.802  25.518  0.00  0.00    +0.070 C 
BRANCH   7   6
ATOM      4  C   UNL     1      -0.849  -0.251  24.979  0.00  0.00    +0.184 A 
ATOM      5  C   UNL     1      -1.180   0.338  25.452  0.00  0.00    +0.056 A 
ATOM      6  C   UNL     1      -0.883   1.064  25.198  0.00  0.00    +0.102 A 
ATOM     19  N   UNL     1      -0.368   0.925  24.568  0.00  0.00    -0.082 NA
ATOM     20  O   UNL     1      -0.348   0.111  24.433  0.00  0.00    -0.356 OA
BRANCH   4   3
ATOM      3  C   UNL     1      -0.995  -1.061  25.040  0.00  0.00    +0.209 C 
BRANCH   3   2
ATOM      1  C   UNL     1      -1.693  -2.228  24.603  0.00  0.00    +0.175 C 
ATOM      2  O   UNL     1      -1.513  -1.429  24.513  0.00  0.00    -0.343 OA
ENDBRANCH   3   2
ENDBRANCH   4   3
ENDBRANCH   7   6
ENDBRANCH   8   7
BRANCH   8  12
ATOM     12  N   UNL     1      -0.787   2.795  24.972  0.00  0.00    -0.217 NA
BRANCH  12  13
ATOM     13  C   UNL     1      -1.141   3.530  25.098  0.00  0.00    +0.073 C 
ATOM     14  C   UNL     1      -0.763   4.217  24.844  0.00  0.00    +0.017 C 
ATOM     15  C   UNL     1      -1.115   4.953  24.969  0.00  0.00    +0.001 C 
ATOM     16  C   UNL     1      -1.846   5.000  25.349  0.00  0.00    +0.000 C 
ATOM     17  C   UNL     1      -2.224   4.312  25.603  0.00  0.00    +0.001 C 
ATOM     18  C   UNL     1      -1.871   3.577  25.478  0.00  0.00    +0.017 C 
ENDBRANCH  12  13
ENDBRANCH   8  12
TORSDOF 6
ENDMDL
MODEL 6
REMARK VINA RESULT:      -8.4      1.931      2.188
REMARK  Name = 
REMARK  6 active torsions:
REMARK  status: ('A' for Active; 'I' for Inactive)
REMARK    1  A    between atoms: O_2  and  C_3
REMARK    2  A    between atoms: C_3  and  C_4
REMARK    3  A    between atoms: C_6  and  C_7
REMARK    4  A    between atoms: C_7  and  C_8
REMARK    5  A    between atoms: C_8  and  N_12
REMARK    6  A    between atoms: N_12  and  C_13
REMARK                            x       y       z     vdW  Elec       q    Type
REMARK                         _______ _______ _______ _____ _____    ______ ____
ROOT
ATOM      8  C   UNL     1      -1.861   0.104  24.696  0.00  0.00    +0.119 C 
ATOM      9  C   UNL     1      -1.500  -0.623  24.846  0.00  0.00    +0.161 C 
ATOM     10  O   UNL     1      -0.853  -0.395  24.388  0.00  0.00    -0.351 OA
ATOM     11  C   UNL     1      -1.214   0.332  24.239  0.00  0.00    +0.161 C 
ENDROOT
BRANCH   8   7
ATOM      7  C   UNL     1      -2.222   0.831  24.547  0.00  0.00    +0.070 C 
BRANCH   7   6
ATOM      4  C   UNL     1      -1.804   2.785  25.297  0.00  0.00    +0.184 A 
ATOM      5  C   UNL     1      -2.217   2.281  24.791  0.00  0.00    +0.056 A 
ATOM      6  C   UNL     1      -1.956   1.511  24.932  0.00  0.00    +0.102 A 
ATOM     19  N   UNL     1      -1.383   1.539  25.525  0.00  0.00    -0.082 NA
ATOM     20  O   UNL     1      -1.289   2.327  25.750  0.00  0.00    -0.356 OA
BRANCH   4   3
ATOM      3  C   UNL     1      -1.892   3.604  25.342  0.00  0.00    +0.209 C 
BRANCH   3   2
ATOM      1  C   UNL     1      -1.367   4.918  25.139  0.00  0.00    +0.175 C 
ATOM      2  O   UNL     1      -1.276   4.099  25.103  0.00  0.00    -0.343 OA
ENDBRANCH   3   2
ENDBRANCH   4   3
ENDBRANCH   7   6
ENDBRANCH   8   7
BRANCH   8  12
ATOM     12  N   UNL     1      -2.509  -0.123  25.155  0.00  0.00    -0.217 NA
BRANCH  12  13
ATOM     13  C   UNL     1      -3.005  -0.729  24.894  0.00  0.00    +0.073 C 
ATOM     14  C   UNL     1      -3.525  -0.596  24.268  0.00  0.00    +0.017 C 
ATOM     15  C   UNL     1      -4.021  -1.201  24.007  0.00  0.00    +0.001 C 
ATOM     16  C   UNL     1      -3.997  -1.940  24.374  0.00  0.00    +0.000 C 
ATOM     17  C   UNL     1      -3.478  -2.073  25.000  0.00  0.00    +0.001 C 
ATOM     18  C   UNL     1      -2.982  -1.468  25.261  0.00  0.00    +0.017 C 
ENDBRANCH  12  13
ENDBRANCH   8  12
TORSDOF 6
ENDMDL
