MODEL 1
REMARK VINA RESULT:     -13.7      0.000      0.000
REMARK  Name = 
REMARK  8 active torsions:
REMARK  status: ('A' for Active; 'I' for Inactive)
REMARK    1  A    between atoms: C_2  and  C_3
REMARK    2  A    between atoms: C_3  and  C_4
REMARK    3  A    between atoms: C_9  and  C_10
REMARK    4  A    between atoms: C_10  and  C_11
REMARK    5  A    between atoms: C_14  and  C_15
REMARK    6  A    between atoms: C_15  and  C_16
REMARK    7  A    between atoms: N_26  and  C_27
REMARK    8  A    between atoms: C_27  and  C_28
REMARK                            x       y       z     vdW  Elec       q    Type
REMARK                         _______ _______ _______ _____ _____    ______ ____
ROOT
ATOM      4  C   UNL     1      -0.717   3.029  25.046  0.00  0.00    +0.012 C 
ATOM      5  C   UNL     1      -0.161   3.261  24.482  0.00  0.00    +0.019 C 
ATOM      6  C   UNL     1      -0.119   4.050  24.245  0.00  0.00    +0.089 C 
ATOM      7  N   UNL     1      -0.631   4.607  24.572  0.00  0.00    -0.218 NA
ATOM      8  C   UNL     1      -1.187   4.376  25.136  0.00  0.00    +0.089 C 
ATOM      9  C   UNL     1      -1.229   3.586  25.373  0.00  0.00    +0.024 C 
ENDROOT
BRANCH   4   3
ATOM      3  C   UNL     1      -0.759   2.240  25.283  0.00  0.00    +0.085 C 
BRANCH   3   2
ATOM      1  O   UNL     1      -0.002   1.831  24.142  0.00  0.00    -0.275 OA
ATOM      2  C   UNL     1      -0.492   1.644  24.778  0.00  0.00    +0.226 C 
ATOM     23  N   UNL     1      -0.715   0.861  24.911  0.00  0.00    -0.277 N 
ATOM     24  C   UNL     1      -0.448   0.265  24.406  0.00  0.00    +0.111 C 
ATOM     25  C   UNL     1      -0.671  -0.518  24.539  0.00  0.00    +0.094 C 
ATOM     26  N   UNL     1      -1.161  -0.705  25.176  0.00  0.00    -0.266 NA
ATOM     34  C   UNL     1      -1.428  -0.110  25.680  0.00  0.00    +0.094 C 
ATOM     35  C   UNL     1      -1.205   0.674  25.548  0.00  0.00    +0.111 C 
BRANCH  26  27
ATOM     27  C   UNL     1      -1.384  -1.488  25.308  0.00  0.00    +0.099 C 
BRANCH  27  28
ATOM     28  C   UNL     1      -2.137  -1.745  25.087  0.00  0.00    -0.006 A 
ATOM     29  C   UNL     1      -2.795  -1.529  25.537  0.00  0.00    -0.003 A 
ATOM     30  C   UNL     1      -3.547  -1.787  25.316  0.00  0.00    -0.000 A 
ATOM     31  C   UNL     1      -3.642  -2.260  24.647  0.00  0.00    -0.000 A 
ATOM     32  C   UNL     1      -2.984  -2.476  24.198  0.00  0.00    -0.000 A 
ATOM     33  C   UNL     1      -2.232  -2.218  24.419  0.00  0.00    -0.003 A 
ENDBRANCH  27  28
ENDBRANCH  26  27
ENDBRANCH   3   2
ENDBRANCH   4   3
BRANCH   9  10
ATOM     10  C   UNL     1      -1.785   3.355  25.937  0.00  0.00    +0.051 C 
BRANCH  10  11
ATOM     11  C   UNL     1      -2.570   3.598  25.867  0.00  0.00    +0.100 A 
ATOM     12  N   UNL     1      -2.936   4.189  26.310  0.00  0.00    -0.082 NA
ATOM     13  O   UNL     1      -3.720   4.250  26.059  0.00  0.00    -0.358 OA
ATOM     14  C   UNL     1      -3.838   3.695  25.459  0.00  0.00    +0.154 A 
ATOM     22  C   UNL     1      -3.128   3.292  25.341  0.00  0.00    +0.054 A 
BRANCH  14  15
ATOM     15  C   UNL     1      -4.543   3.566  25.051  0.00  0.00    +0.067 C 
BRANCH  15  16
ATOM     16  C   UNL     1      -4.966   2.868  25.170  0.00  0.00    +0.008 C 
ATOM     17  C   UNL     1      -4.830   2.215  24.685  0.00  0.00    +0.000 C 
ATOM     18  C   UNL     1      -5.253   1.516  24.804  0.00  0.00    +0.000 C 
ATOM     19  C   UNL     1      -5.813   1.472  25.408  0.00  0.00    +0.000 C 
ATOM     20  C   UNL     1      -5.949   2.125  25.893  0.00  0.00    +0.000 C 
ATOM     21  C   UNL     1      -5.526   2.823  25.774  0.00  0.00    +0.000 C 
ENDBRANCH  15  16
ENDBRANCH  14  15
ENDBRANCH  10  11
ENDBRANCH   9  10
TORSDOF 8
ENDMDL
MODEL 2
REMARK VINA RESULT:     -12.6      1.372      4.368
REMARK  Name = 
REMARK  8 active torsions:
REMARK  status: ('A' for Active; 'I' for Inactive)
REMARK    1  A    between atoms: C_2  and  C_3
REMARK    2  A    between atoms: C_3  and  C_4
REMARK    3  A    between atoms: C_9  and  C_10
REMARK    4  A    between atoms: C_10  and  C_11
REMARK    5  A    between atoms: C_14  and  C_15
REMARK    6  A    between atoms: C_15  and  C_16
REMARK    7  A    between atoms: N_26  and  C_27
REMARK    8  A    between atoms: C_27  and  C_28
REMARK                            x       y       z     vdW  Elec       q    Type
REMARK                         _______ _______ _______ _____ _____    ______ ____
ROOT
ATOM      4  C   UNL     1      -1.873  -1.246  24.986  0.00  0.00    +0.012 C 
ATOM      5  C   UNL     1      -1.404  -1.785  24.571  0.00  0.00    +0.019 C 
ATOM      6  C   UNL     1      -1.736  -2.482  24.283  0.00  0.00    +0.089 C 
ATOM      7  N   UNL     1      -2.535  -2.642  24.407  0.00  0.00    -0.218 NA
ATOM      8  C   UNL     1      -3.003  -2.104  24.821  0.00  0.00    +0.089 C 
ATOM      9  C   UNL     1      -2.672  -1.405  25.110  0.00  0.00    +0.024 C 
ENDROOT
BRANCH   4   3
ATOM      3  C   UNL     1      -1.541  -0.548  25.275  0.00  0.00    +0.085 C 
BRANCH   3   2
ATOM      1  O   UNL     1      -0.588  -0.542  24.210  0.00  0.00    -0.275 OA
ATOM      2  C   UNL     1      -0.956  -0.160  24.841  0.00  0.00    +0.226 C 
ATOM     23  N   UNL     1      -0.739   0.611  25.040  0.00  0.00    -0.277 N 
ATOM     24  C   UNL     1      -0.154   1.000  24.606  0.00  0.00    +0.111 C 
ATOM     25  C   UNL     1       0.063   1.770  24.804  0.00  0.00    +0.094 C 
ATOM     26  N   UNL     1      -0.304   2.153  25.436  0.00  0.00    -0.266 NA
ATOM     34  C   UNL     1      -0.889   1.765  25.869  0.00  0.00    +0.094 C 
ATOM     35  C   UNL     1      -1.106   0.994  25.671  0.00  0.00    +0.111 C 
BRANCH  26  27
ATOM     27  C   UNL     1      -0.087   2.923  25.634  0.00  0.00    +0.099 C 
BRANCH  27  28
ATOM     28  C   UNL     1      -0.574   3.556  25.423  0.00  0.00    -0.006 A 
ATOM     29  C   UNL     1      -1.238   3.735  25.879  0.00  0.00    -0.003 A 
ATOM     30  C   UNL     1      -1.724   4.368  25.668  0.00  0.00    -0.000 A 
ATOM     31  C   UNL     1      -1.545   4.821  25.001  0.00  0.00    -0.000 A 
ATOM     32  C   UNL     1      -0.881   4.641  24.547  0.00  0.00    -0.000 A 
ATOM     33  C   UNL     1      -0.395   4.009  24.758  0.00  0.00    -0.003 A 
ENDBRANCH  27  28
ENDBRANCH  26  27
ENDBRANCH   3   2
ENDBRANCH   4   3
BRANCH   9  10
ATOM     10  C   UNL     1      -3.140  -0.867  25.524  0.00  0.00    +0.051 C 
BRANCH  10  11
ATOM     11  C   UNL     1      -3.787  -0.512  25.154  0.00  0.00    +0.100 A 
ATOM     12  N   UNL     1      -4.077  -0.695  24.404  0.00  0.00    -0.082 NA
ATOM     13  O   UNL     1      -4.726  -0.208  24.256  0.00  0.00    -0.358 OA
ATOM     14  C   UNL     1      -4.837   0.277  24.914  0.00  0.00    +0.154 A 
ATOM     22  C   UNL     1      -4.257   0.089  25.470  0.00  0.00    +0.054 A 
BRANCH  14  15
ATOM     15  C   UNL     1      -5.425   0.848  25.002  0.00  0.00    +0.067 C 
BRANCH  15  16
ATOM     16  C   UNL     1      -5.223   1.649  25.012  0.00  0.00    +0.008 C 
ATOM     17  C   UNL     1      -4.871   1.993  24.351  0.00  0.00    +0.000 C 
ATOM     18  C   UNL     1      -4.670   2.794  24.361  0.00  0.00    +0.000 C 
ATOM     19  C   UNL     1      -4.820   3.248  25.032  0.00  0.00    +0.000 C 
ATOM     20  C   UNL     1      -5.173   2.904  25.693  0.00  0.00    +0.000 C 
ATOM     21  C   UNL     1      -5.374   2.103  25.683  0.00  0.00    +0.000 C 
ENDBRANCH  15  16
ENDBRANCH  14  15
ENDBRANCH  10  11
ENDBRANCH   9  10
TORSDOF 8
ENDMDL
MODEL 3
REMARK VINA RESULT:     -12.5      1.251      4.469
REMARK  Name = 
REMARK  8 active torsions:
REMARK  status: ('A' for Active; 'I' for Inactive)
REMARK    1  A    between atoms: C_2  and  C_3
REMARK    2  A    between atoms: C_3  and  C_4
REMARK    3  A    between atoms: C_9  and  C_10
REMARK    4  A    between atoms: C_10  and  C_11
REMARK    5  A    between atoms: C_14  and  C_15
REMARK    6  A    between atoms: C_15  and  C_16
REMARK    7  A    between atoms: N_26  and  C_27
REMARK    8  A    between atoms: C_27  and  C_28
REMARK                            x       y       z     vdW  Elec       q    Type
REMARK                         _______ _______ _______ _____ _____    ______ ____
ROOT
ATOM      4  C   UNL     1      -0.286   0.750  24.334  0.00  0.00    +0.012 C 
ATOM      5  C   UNL     1       0.062   1.014  23.634  0.00  0.00    +0.019 C 
ATOM      6  C   UNL     1       0.468   0.484  23.150  0.00  0.00    +0.089 C 
ATOM      7  N   UNL     1       0.527  -0.309  23.365  0.00  0.00    -0.218 NA
ATOM      8  C   UNL     1       0.180  -0.574  24.065  0.00  0.00    +0.089 C 
ATOM      9  C   UNL     1      -0.227  -0.044  24.550  0.00  0.00    +0.024 C 
ENDROOT
BRANCH   4   3
ATOM      3  C   UNL     1      -0.692   1.280  24.818  0.00  0.00    +0.085 C 
BRANCH   3   2
ATOM      1  O   UNL     1      -0.245   2.452  24.135  0.00  0.00    -0.275 OA
ATOM      2  C   UNL     1      -0.827   2.053  24.561  0.00  0.00    +0.226 C 
ATOM     23  N   UNL     1      -1.543   2.424  24.731  0.00  0.00    -0.277 N 
ATOM     24  C   UNL     1      -1.678   3.197  24.473  0.00  0.00    +0.111 C 
ATOM     25  C   UNL     1      -2.395   3.569  24.643  0.00  0.00    +0.094 C 
ATOM     26  N   UNL     1      -2.977   3.168  25.069  0.00  0.00    -0.266 NA
ATOM     34  C   UNL     1      -2.842   2.397  25.326  0.00  0.00    +0.094 C 
ATOM     35  C   UNL     1      -2.125   2.024  25.157  0.00  0.00    +0.111 C 
BRANCH  26  27
ATOM     27  C   UNL     1      -3.693   3.540  25.238  0.00  0.00    +0.099 C 
BRANCH  27  28
ATOM     28  C   UNL     1      -4.398   3.112  25.208  0.00  0.00    -0.006 A 
ATOM     29  C   UNL     1      -4.837   2.992  25.896  0.00  0.00    -0.003 A 
ATOM     30  C   UNL     1      -5.542   2.563  25.866  0.00  0.00    -0.000 A 
ATOM     31  C   UNL     1      -5.807   2.255  25.147  0.00  0.00    -0.000 A 
ATOM     32  C   UNL     1      -5.367   2.375  24.460  0.00  0.00    -0.000 A 
ATOM     33  C   UNL     1      -4.662   2.804  24.490  0.00  0.00    -0.003 A 
ENDBRANCH  27  28
ENDBRANCH  26  27
ENDBRANCH   3   2
ENDBRANCH   4   3
BRANCH   9  10
ATOM     10  C   UNL     1      -0.574  -0.308  25.250  0.00  0.00    +0.051 C 
BRANCH  10  11
ATOM     11  C   UNL     1      -1.039  -0.990  25.248  0.00  0.00    +0.100 A 
ATOM     12  N   UNL     1      -0.776  -1.756  25.091  0.00  0.00    -0.082 NA
ATOM     13  O   UNL     1      -1.423  -2.265  25.149  0.00  0.00    -0.358 OA
ATOM     14  C   UNL     1      -2.086  -1.814  25.343  0.00  0.00    +0.154 A 
ATOM     22  C   UNL     1      -1.849  -1.025  25.404  0.00  0.00    +0.054 A 
BRANCH  14  15
ATOM     15  C   UNL     1      -2.851  -2.099  25.455  0.00  0.00    +0.067 C 
BRANCH  15  16
ATOM     16  C   UNL     1      -3.418  -2.005  24.862  0.00  0.00    +0.008 C 
ATOM     17  C   UNL     1      -3.815  -1.287  24.782  0.00  0.00    +0.000 C 
ATOM     18  C   UNL     1      -4.381  -1.192  24.190  0.00  0.00    +0.000 C 
ATOM     19  C   UNL     1      -4.550  -1.816  23.677  0.00  0.00    +0.000 C 
ATOM     20  C   UNL     1      -4.152  -2.534  23.757  0.00  0.00    +0.000 C 
ATOM     21  C   UNL     1      -3.586  -2.629  24.350  0.00  0.00    +0.000 C 
ENDBRANCH  15  16
ENDBRANCH  14  15
ENDBRANCH  10  11
ENDBRANCH   9  10
TORSDOF 8
ENDMDL
MODEL 4
REMARK VINA RESULT:     -12.3      1.396      3.740
REMARK  Name = 
REMARK  8 active torsions:
REMARK  status: ('A' for Active; 'I' for Inactive)
REMARK    1  A    between atoms: C_2  and  C_3
REMARK    2  A    between atoms: C_3  and  C_4
REMARK    3  A    between atoms: C_9  and  C_10
REMARK    4  A    between atoms: C_10  and  C_11
REMARK    5  A    between atoms: C_14  and  C_15
REMARK    6  A    between atoms: C_15  and  C_16
REMARK    7  A    between atoms: N_26  and  C_27
REMARK    8  A    between atoms: C_27  and  C_28
REMARK                            x       y       z     vdW  Elec       q    Type
REMARK                         _______ _______ _______ _____ _____    ______ ____
ROOT
ATOM      4  C   UNL     1      -4.930   2.407  25.092  0.00  0.00    +0.012 C 
ATOM      5  C   UNL     1      -5.593   2.214  25.545  0.00  0.00    +0.019 C 
ATOM      6  C   UNL     1      -5.989   2.802  25.967  0.00  0.00    +0.089 C 
ATOM      7  N   UNL     1      -5.723   3.582  25.936  0.00  0.00    -0.218 NA
ATOM      8  C   UNL     1      -5.061   3.775  25.483  0.00  0.00    +0.089 C 
ATOM      9  C   UNL     1      -4.664   3.186  25.061  0.00  0.00    +0.024 C 
ENDROOT
BRANCH   4   3
ATOM      3  C   UNL     1      -4.535   1.818  24.670  0.00  0.00    +0.085 C 
BRANCH   3   2
ATOM      1  O   UNL     1      -5.511   0.835  25.018  0.00  0.00    -0.275 OA
ATOM      2  C   UNL     1      -4.751   1.027  24.765  0.00  0.00    +0.226 C 
ATOM     23  N   UNL     1      -4.205   0.429  24.606  0.00  0.00    -0.277 N 
ATOM     24  C   UNL     1      -4.421  -0.362  24.701  0.00  0.00    +0.111 C 
ATOM     25  C   UNL     1      -3.875  -0.959  24.543  0.00  0.00    +0.094 C 
ATOM     26  N   UNL     1      -3.114  -0.767  24.289  0.00  0.00    -0.266 NA
ATOM     34  C   UNL     1      -2.899   0.023  24.195  0.00  0.00    +0.094 C 
ATOM     35  C   UNL     1      -3.444   0.622  24.353  0.00  0.00    +0.111 C 
BRANCH  26  27
ATOM     27  C   UNL     1      -2.569  -1.365  24.131  0.00  0.00    +0.099 C 
BRANCH  27  28
ATOM     28  C   UNL     1      -1.851  -1.388  24.539  0.00  0.00    -0.006 A 
ATOM     29  C   UNL     1      -1.147  -1.223  24.142  0.00  0.00    -0.003 A 
ATOM     30  C   UNL     1      -0.430  -1.245  24.549  0.00  0.00    -0.000 A 
ATOM     31  C   UNL     1      -0.417  -1.433  25.353  0.00  0.00    -0.000 A 
ATOM     32  C   UNL     1      -1.122  -1.597  25.748  0.00  0.00    -0.000 A 
ATOM     33  C   UNL     1      -1.839  -1.575  25.341  0.00  0.00    -0.003 A 
ENDBRANCH  27  28
ENDBRANCH  26  27
ENDBRANCH   3   2
ENDBRANCH   4   3
BRANCH   9  10
ATOM     10  C   UNL     1      -4.002   3.379  24.608  0.00  0.00    +0.051 C 
BRANCH  10  11
ATOM     11  C   UNL     1      -3.335   3.703  24.969  0.00  0.00    +0.100 A 
ATOM     12  N   UNL     1      -3.330   4.167  25.651  0.00  0.00    -0.082 NA
ATOM     13  O   UNL     1      -2.548   4.371  25.815  0.00  0.00    -0.358 OA
ATOM     14  C   UNL     1      -2.069   4.033  25.235  0.00  0.00    +0.154 A 
ATOM     22  C   UNL     1      -2.556   3.620  24.712  0.00  0.00    +0.054 A 
BRANCH  14  15
ATOM     15  C   UNL     1      -1.248   4.097  25.186  0.00  0.00    +0.067 C 
BRANCH  15  16
ATOM     16  C   UNL     1      -0.775   3.429  25.299  0.00  0.00    +0.008 C 
ATOM     17  C   UNL     1      -0.442   3.046  24.649  0.00  0.00    +0.000 C 
ATOM     18  C   UNL     1       0.030   2.378  24.762  0.00  0.00    +0.000 C 
ATOM     19  C   UNL     1       0.169   2.096  25.525  0.00  0.00    +0.000 C 
ATOM     20  C   UNL     1      -0.164   2.480  26.174  0.00  0.00    +0.000 C 
ATOM     21  C   UNL     1      -0.637   3.147  26.061  0.00  0.00    +0.000 C 
ENDBRANCH  15  16
ENDBRANCH  14  15
ENDBRANCH  10  11
ENDBRANCH   9  10
TORSDOF 8
ENDMDL
