MODEL 1
REMARK VINA RESULT:     -11.4      0.000      0.000
REMARK  Name = 
REMARK  2 active torsions:
REMARK  status: ('A' for Active; 'I' for Inactive)
REMARK    1  A    between atoms: C_2  and  C_19
REMARK    2  A    between atoms: N_9  and  C_10
REMARK                            x       y       z     vdW  Elec       q    Type
REMARK                         _______ _______ _______ _____ _____    ______ ____
ROOT
ATOM      1  O   UNL     1      -4.289   3.238  25.273  0.00  0.00    -0.266 OA
ATOM      2  C   UNL     1      -3.487   3.076  25.169  0.00  0.00    +0.287 C 
ATOM      3  N   UNL     1      -3.236   2.303  25.027  0.00  0.00    -0.270 N 
ATOM      4  C   UNL     1      -2.434   2.141  24.923  0.00  0.00    +0.115 C 
ATOM      5  C   UNL     1      -2.184   1.368  24.781  0.00  0.00    +0.116 C 
ATOM      6  N   UNL     1      -2.736   0.756  24.744  0.00  0.00    -0.261 N 
ATOM      7  C   UNL     1      -3.538   0.917  24.849  0.00  0.00    +0.116 C 
ATOM      8  C   UNL     1      -3.952   0.207  24.784  0.00  0.00    +0.116 C 
ATOM      9  N   UNL     1      -3.406  -0.394  24.639  0.00  0.00    -0.264 N 
ATOM     16  C   UNL     1      -2.655  -0.054  24.615  0.00  0.00    +0.307 C 
ATOM     17  O   UNL     1      -1.945  -0.455  24.483  0.00  0.00    -0.252 OA
ATOM     18  C   UNL     1      -3.789   1.691  24.991  0.00  0.00    +0.115 C 
ENDROOT
BRANCH   9  10
ATOM     10  C   UNL     1      -3.580  -1.193  24.536  0.00  0.00    +0.077 C 
ATOM     11  C   UNL     1      -3.364  -1.741  25.115  0.00  0.00    +0.020 C 
ATOM     12  C   UNL     1      -3.539  -2.541  25.012  0.00  0.00    +0.002 C 
ATOM     13  C   UNL     1      -3.929  -2.793  24.330  0.00  0.00    +0.000 C 
ATOM     14  C   UNL     1      -4.145  -2.247  23.752  0.00  0.00    +0.002 C 
ATOM     15  C   UNL     1      -3.970  -1.447  23.855  0.00  0.00    +0.020 C 
ENDBRANCH   9  10
BRANCH   2  19
ATOM     19  C   UNL     1      -2.934   3.688  25.205  0.00  0.00    +0.230 A 
ATOM     20  C   UNL     1      -2.634   4.029  25.894  0.00  0.00    +0.069 A 
ATOM     21  C   UNL     1      -2.099   4.617  25.675  0.00  0.00    +0.144 A 
ATOM     22  N   UNL     1      -2.069   4.640  24.850  0.00  0.00    -0.075 NA
ATOM     23  O   UNL     1      -2.585   4.065  24.561  0.00  0.00    -0.349 OA
ENDBRANCH   2  19
TORSDOF 2
ENDMDL
MODEL 2
REMARK VINA RESULT:     -10.7      1.398      4.902
REMARK  Name = 
REMARK  2 active torsions:
REMARK  status: ('A' for Active; 'I' for Inactive)
REMARK    1  A    between atoms: C_2  and  C_19
REMARK    2  A    between atoms: N_9  and  C_10
REMARK                            x       y       z     vdW  Elec       q    Type
REMARK                         _______ _______ _______ _____ _____    ______ ____
ROOT
ATOM      1  O   UNL     1      -3.989  -0.307  23.834  0.00  0.00    -0.266 OA
ATOM      2  C   UNL     1      -3.348  -0.504  24.315  0.00  0.00    +0.287 C 
ATOM      3  N   UNL     1      -2.844   0.087  24.595  0.00  0.00    -0.270 N 
ATOM      4  C   UNL     1      -2.203  -0.110  25.075  0.00  0.00    +0.115 C 
ATOM      5  C   UNL     1      -1.701   0.481  25.355  0.00  0.00    +0.116 C 
ATOM      6  N   UNL     1      -1.838   1.270  25.155  0.00  0.00    -0.261 N 
ATOM      7  C   UNL     1      -2.479   1.467  24.675  0.00  0.00    +0.116 C 
ATOM      8  C   UNL     1      -2.478   2.285  24.570  0.00  0.00    +0.116 C 
ATOM      9  N   UNL     1      -1.835   2.593  24.985  0.00  0.00    -0.264 N 
ATOM     16  C   UNL     1      -1.441   1.966  25.346  0.00  0.00    +0.307 C 
ATOM     17  O   UNL     1      -0.766   2.024  25.817  0.00  0.00    -0.252 OA
ATOM     18  C   UNL     1      -2.983   0.875  24.394  0.00  0.00    +0.115 C 
ENDROOT
BRANCH   9  10
ATOM     10  C   UNL     1      -1.625   3.390  25.031  0.00  0.00    +0.077 C 
ATOM     11  C   UNL     1      -2.101   3.919  25.448  0.00  0.00    +0.020 C 
ATOM     12  C   UNL     1      -1.891   4.716  25.494  0.00  0.00    +0.002 C 
ATOM     13  C   UNL     1      -1.203   4.982  25.123  0.00  0.00    +0.000 C 
ATOM     14  C   UNL     1      -0.727   4.454  24.706  0.00  0.00    +0.002 C 
ATOM     15  C   UNL     1      -0.938   3.657  24.661  0.00  0.00    +0.020 C 
ENDBRANCH   9  10
BRANCH   2  19
ATOM     19  C   UNL     1      -3.209  -1.292  24.515  0.00  0.00    +0.230 A 
ATOM     20  C   UNL     1      -3.622  -1.727  25.082  0.00  0.00    +0.069 A 
ATOM     21  C   UNL     1      -3.302  -2.487  25.102  0.00  0.00    +0.144 A 
ATOM     22  N   UNL     1      -2.691  -2.522  24.548  0.00  0.00    -0.075 NA
ATOM     23  O   UNL     1      -2.634  -1.783  24.185  0.00  0.00    -0.349 OA
ENDBRANCH   2  19
TORSDOF 2
ENDMDL
MODEL 3
REMARK VINA RESULT:      -9.9      2.279      4.029
REMARK  Name = 
REMARK  2 active torsions:
REMARK  status: ('A' for Active; 'I' for Inactive)
REMARK    1  A    between atoms: C_2  and  C_19
REMARK    2  A    between atoms: N_9  and  C_10
REMARK                            x       y       z     vdW  Elec       q    Type
REMARK                         _______ _______ _______ _____ _____    ______ ____
ROOT
ATOM      1  O   UNL     1      -0.589  -0.280  25.073  0.00  0.00    -0.266 OA
ATOM      2  C   UNL     1      -0.616   0.215  24.413  0.00  0.00    +0.287 C 
ATOM      3  N   UNL     1      -1.273   0.698  24.285  0.00  0.00    -0.270 N 
ATOM      4  C   UNL     1      -1.300   1.193  23.626  0.00  0.00    +0.115 C 
ATOM      5  C   UNL     1      -1.957   1.674  23.498  0.00  0.00    +0.116 C 
ATOM      6  N   UNL     1      -2.588   1.661  24.029  0.00  0.00    -0.261 N 
ATOM      7  C   UNL     1      -2.562   1.166  24.688  0.00  0.00    +0.116 C 
ATOM      8  C   UNL     1      -3.260   1.270  25.113  0.00  0.00    +0.116 C 
ATOM      9  N   UNL     1      -3.719   1.829  24.717  0.00  0.00    -0.264 N 
ATOM     16  C   UNL     1      -3.303   2.071  24.047  0.00  0.00    +0.307 C 
ATOM     17  O   UNL     1      -3.558   2.626  23.492  0.00  0.00    -0.252 OA
ATOM     18  C   UNL     1      -1.904   0.684  24.817  0.00  0.00    +0.115 C 
ENDROOT
BRANCH   9  10
ATOM     10  C   UNL     1      -4.463   2.100  24.950  0.00  0.00    +0.077 C 
ATOM     11  C   UNL     1      -5.135   1.645  24.796  0.00  0.00    +0.020 C 
ATOM     12  C   UNL     1      -5.878   1.916  25.028  0.00  0.00    +0.002 C 
ATOM     13  C   UNL     1      -5.950   2.641  25.416  0.00  0.00    +0.000 C 
ATOM     14  C   UNL     1      -5.280   3.095  25.570  0.00  0.00    +0.002 C 
ATOM     15  C   UNL     1      -4.536   2.824  25.338  0.00  0.00    +0.020 C 
ENDBRANCH   9  10
BRANCH   2  19
ATOM     19  C   UNL     1       0.015   0.229  23.882  0.00  0.00    +0.230 A 
ATOM     20  C   UNL     1       0.212  -0.369  23.349  0.00  0.00    +0.069 A 
ATOM     21  C   UNL     1       0.878  -0.125  22.927  0.00  0.00    +0.144 A 
ATOM     22  N   UNL     1       1.092   0.624  23.199  0.00  0.00    -0.075 NA
ATOM     23  O   UNL     1       0.558   0.843  23.790  0.00  0.00    -0.349 OA
ENDBRANCH   2  19
TORSDOF 2
ENDMDL
MODEL 4
REMARK VINA RESULT:      -9.0     16.494     18.426
REMARK  Name = 
REMARK  2 active torsions:
REMARK  status: ('A' for Active; 'I' for Inactive)
REMARK    1  A    between atoms: C_2  and  C_19
REMARK    2  A    between atoms: N_9  and  C_10
REMARK                            x       y       z     vdW  Elec       q    Type
REMARK                         _______ _______ _______ _____ _____    ______ ____
ROOT
ATOM      1  O   UNL     1      14.626   7.875  17.878  0.00  0.00    -0.266 OA
ATOM      2  C   UNL     1      13.932   8.159  17.534  0.00  0.00    +0.287 C 
ATOM      3  N   UNL     1      13.244   8.225  17.986  0.00  0.00    -0.270 N 
ATOM      4  C   UNL     1      12.550   8.508  17.642  0.00  0.00    +0.115 C 
ATOM      5  C   UNL     1      11.863   8.574  18.093  0.00  0.00    +0.116 C 
ATOM      6  N   UNL     1      11.870   8.357  18.889  0.00  0.00    -0.261 N 
ATOM      7  C   UNL     1      12.564   8.074  19.233  0.00  0.00    +0.116 C 
ATOM      8  C   UNL     1      12.405   7.903  20.024  0.00  0.00    +0.116 C 
ATOM      9  N   UNL     1      11.613   8.081  20.169  0.00  0.00    -0.264 N 
ATOM     16  C   UNL     1      11.283   8.361  19.468  0.00  0.00    +0.307 C 
ATOM     17  O   UNL     1      10.501   8.604  19.363  0.00  0.00    -0.252 OA
ATOM     18  C   UNL     1      13.252   8.007  18.781  0.00  0.00    +0.115 C 
ENDROOT
BRANCH   9  10
ATOM     10  C   UNL     1      11.220   7.993  20.889  0.00  0.00    +0.077 C 
ATOM     11  C   UNL     1      10.985   7.244  21.143  0.00  0.00    +0.020 C 
ATOM     12  C   UNL     1      10.592   7.156  21.864  0.00  0.00    +0.002 C 
ATOM     13  C   UNL     1      10.434   7.819  22.330  0.00  0.00    +0.000 C 
ATOM     14  C   UNL     1      10.669   8.567  22.077  0.00  0.00    +0.002 C 
ATOM     15  C   UNL     1      11.062   8.655  21.356  0.00  0.00    +0.020 C 
ENDBRANCH   9  10
BRANCH   2  19
ATOM     19  C   UNL     1      13.925   8.376  16.738  0.00  0.00    +0.230 A 
ATOM     20  C   UNL     1      14.192   9.094  16.430  0.00  0.00    +0.069 A 
ATOM     21  C   UNL     1      14.081   9.076  15.612  0.00  0.00    +0.144 A 
ATOM     22  N   UNL     1      13.746   8.348  15.416  0.00  0.00    -0.075 NA
ATOM     23  O   UNL     1      13.649   7.916  16.112  0.00  0.00    -0.349 OA
ENDBRANCH   2  19
TORSDOF 2
ENDMDL
MODEL 5
REMARK VINA RESULT:      -8.8     18.008     19.726
REMARK  Name = 
REMARK  2 active torsions:
REMARK  status: ('A' for Active; 'I' for Inactive)
REMARK    1  A    between atoms: C_2  and  C_19
REMARK    2  A    between atoms: N_9  and  C_10
REMARK                            x       y       z     vdW  Elec       q    Type
REMARK                         _______ _______ _______ _____ _____    ______ ____
ROOT
ATOM      1  O   UNL     1      13.196   8.676  16.499  0.00  0.00    -0.266 OA
ATOM      2  C   UNL     1      12.773   8.314  17.107  0.00  0.00    +0.287 C 
ATOM      3  N   UNL     1      13.175   7.953  17.732  0.00  0.00    -0.270 N 
ATOM      4  C   UNL     1      12.752   7.590  18.340  0.00  0.00    +0.115 C 
ATOM      5  C   UNL     1      13.154   7.230  18.963  0.00  0.00    +0.116 C 
ATOM      6  N   UNL     1      13.979   7.232  18.979  0.00  0.00    -0.261 N 
ATOM      7  C   UNL     1      14.402   7.595  18.371  0.00  0.00    +0.116 C 
ATOM      8  C   UNL     1      15.206   7.510  18.533  0.00  0.00    +0.116 C 
ATOM      9  N   UNL     1      15.280   7.095  19.242  0.00  0.00    -0.264 N 
ATOM     16  C   UNL     1      14.522   6.924  19.517  0.00  0.00    +0.307 C 
ATOM     17  O   UNL     1      14.339   6.515  20.210  0.00  0.00    -0.252 OA
ATOM     18  C   UNL     1      14.000   7.955  17.746  0.00  0.00    +0.115 C 
ENDROOT
BRANCH   9  10
ATOM     10  C   UNL     1      15.989   6.888  19.611  0.00  0.00    +0.077 C 
ATOM     11  C   UNL     1      16.436   6.257  19.322  0.00  0.00    +0.020 C 
ATOM     12  C   UNL     1      17.144   6.050  19.691  0.00  0.00    +0.002 C 
ATOM     13  C   UNL     1      17.405   6.474  20.349  0.00  0.00    +0.000 C 
ATOM     14  C   UNL     1      16.959   7.104  20.638  0.00  0.00    +0.002 C 
ATOM     15  C   UNL     1      16.251   7.311  20.269  0.00  0.00    +0.020 C 
ENDBRANCH   9  10
BRANCH   2  19
ATOM     19  C   UNL     1      11.948   8.311  17.093  0.00  0.00    +0.230 A 
ATOM     20  C   UNL     1      11.459   8.947  17.286  0.00  0.00    +0.069 A 
ATOM     21  C   UNL     1      10.676   8.702  17.195  0.00  0.00    +0.144 A 
ATOM     22  N   UNL     1      10.682   7.915  16.946  0.00  0.00    -0.075 NA
ATOM     23  O   UNL     1      11.469   7.674  16.883  0.00  0.00    -0.349 OA
ENDBRANCH   2  19
TORSDOF 2
ENDMDL
MODEL 6
REMARK VINA RESULT:      -8.5     16.934     18.723
REMARK  Name = 
REMARK  2 active torsions:
REMARK  status: ('A' for Active; 'I' for Inactive)
REMARK    1  A    between atoms: C_2  and  C_19
REMARK    2  A    between atoms: N_9  and  C_10
REMARK                            x       y       z     vdW  Elec       q    Type
REMARK                         _______ _______ _______ _____ _____    ______ ____
ROOT
ATOM      1  O   UNL     1      11.363   6.606  20.742  0.00  0.00    -0.266 OA
ATOM      2  C   UNL     1      11.691   7.206  21.204  0.00  0.00    +0.287 C 
ATOM      3  N   UNL     1      12.510   7.316  21.217  0.00  0.00    -0.270 N 
ATOM      4  C   UNL     1      12.838   7.916  21.678  0.00  0.00    +0.115 C 
ATOM      5  C   UNL     1      13.655   8.026  21.690  0.00  0.00    +0.116 C 
ATOM      6  N   UNL     1      14.145   7.536  21.242  0.00  0.00    -0.261 N 
ATOM      7  C   UNL     1      13.816   6.936  20.780  0.00  0.00    +0.116 C 
ATOM      8  C   UNL     1      14.432   6.542  20.398  0.00  0.00    +0.116 C 
ATOM      9  N   UNL     1      15.141   6.898  20.623  0.00  0.00    -0.264 N 
ATOM     16  C   UNL     1      14.963   7.512  21.144  0.00  0.00    +0.307 C 
ATOM     17  O   UNL     1      15.509   8.015  21.505  0.00  0.00    -0.252 OA
ATOM     18  C   UNL     1      12.998   6.826  20.767  0.00  0.00    +0.115 C 
ENDROOT
BRANCH   9  10
ATOM     10  C   UNL     1      15.895   6.679  20.371  0.00  0.00    +0.077 C 
ATOM     11  C   UNL     1      16.484   6.513  20.926  0.00  0.00    +0.020 C 
ATOM     12  C   UNL     1      17.238   6.294  20.674  0.00  0.00    +0.002 C 
ATOM     13  C   UNL     1      17.404   6.240  19.867  0.00  0.00    +0.000 C 
ATOM     14  C   UNL     1      16.816   6.405  19.313  0.00  0.00    +0.002 C 
ATOM     15  C   UNL     1      16.062   6.624  19.565  0.00  0.00    +0.020 C 
ENDBRANCH   9  10
BRANCH   2  19
ATOM     19  C   UNL     1      11.203   7.696  21.653  0.00  0.00    +0.230 A 
ATOM     20  C   UNL     1      10.803   8.364  21.379  0.00  0.00    +0.069 A 
ATOM     21  C   UNL     1      10.381   8.686  22.010  0.00  0.00    +0.144 A 
ATOM     22  N   UNL     1      10.521   8.217  22.675  0.00  0.00    -0.075 NA
ATOM     23  O   UNL     1      11.029   7.606  22.454  0.00  0.00    -0.349 OA
ENDBRANCH   2  19
TORSDOF 2
ENDMDL
MODEL 7
REMARK VINA RESULT:      -8.4     17.023     18.842
REMARK  Name = 
REMARK  2 active torsions:
REMARK  status: ('A' for Active; 'I' for Inactive)
REMARK    1  A    between atoms: C_2  and  C_19
REMARK    2  A    between atoms: N_9  and  C_10
REMARK                            x       y       z     vdW  Elec       q    Type
REMARK                         _______ _______ _______ _____ _____    ______ ____
ROOT
ATOM      1  O   UNL     1      16.150   6.466  21.309  0.00  0.00    -0.266 OA
ATOM      2  C   UNL     1      15.826   6.472  20.551  0.00  0.00    +0.287 C 
ATOM      3  N   UNL     1      15.029   6.662  20.444  0.00  0.00    -0.270 N 
ATOM      4  C   UNL     1      14.705   6.669  19.685  0.00  0.00    +0.115 C 
ATOM      5  C   UNL     1      13.910   6.859  19.579  0.00  0.00    +0.116 C 
ATOM      6  N   UNL     1      13.438   7.042  20.231  0.00  0.00    -0.261 N 
ATOM      7  C   UNL     1      13.762   7.036  20.989  0.00  0.00    +0.116 C 
ATOM      8  C   UNL     1      13.167   7.238  21.523  0.00  0.00    +0.116 C 
ATOM      9  N   UNL     1      12.475   7.370  21.095  0.00  0.00    -0.264 N 
ATOM     16  C   UNL     1      12.643   7.249  20.296  0.00  0.00    +0.307 C 
ATOM     17  O   UNL     1      12.108   7.322  19.672  0.00  0.00    -0.252 OA
ATOM     18  C   UNL     1      14.559   6.845  21.096  0.00  0.00    +0.115 C 
ENDROOT
BRANCH   9  10
ATOM     10  C   UNL     1      11.744   7.585  21.409  0.00  0.00    +0.077 C 
ATOM     11  C   UNL     1      11.199   7.003  21.625  0.00  0.00    +0.020 C 
ATOM     12  C   UNL     1      10.467   7.219  21.939  0.00  0.00    +0.002 C 
ATOM     13  C   UNL     1      10.280   8.016  22.039  0.00  0.00    +0.000 C 
ATOM     14  C   UNL     1      10.824   8.598  21.824  0.00  0.00    +0.002 C 
ATOM     15  C   UNL     1      11.555   8.382  21.509  0.00  0.00    +0.020 C 
ENDBRANCH   9  10
BRANCH   2  19
ATOM     19  C   UNL     1      16.297   6.289  19.898  0.00  0.00    +0.230 A 
ATOM     20  C   UNL     1      17.012   6.651  19.700  0.00  0.00    +0.069 A 
ATOM     21  C   UNL     1      17.293   6.299  19.010  0.00  0.00    +0.144 A 
ATOM     22  N   UNL     1      16.751   5.719  18.781  0.00  0.00    -0.075 NA
ATOM     23  O   UNL     1      16.136   5.714  19.331  0.00  0.00    -0.349 OA
ENDBRANCH   2  19
TORSDOF 2
ENDMDL
MODEL 8
REMARK VINA RESULT:      -7.7     18.081     19.654
REMARK  Name = 
REMARK  2 active torsions:
REMARK  status: ('A' for Active; 'I' for Inactive)
REMARK    1  A    between atoms: C_2  and  C_19
REMARK    2  A    between atoms: N_9  and  C_10
REMARK                            x       y       z     vdW  Elec       q    Type
REMARK                         _______ _______ _______ _____ _____    ______ ____
ROOT
ATOM      1  O   UNL     1      15.899   6.198  18.827  0.00  0.00    -0.266 OA
ATOM      2  C   UNL     1      15.605   6.701  19.411  0.00  0.00    +0.287 C 
ATOM      3  N   UNL     1      14.931   7.155  19.266  0.00  0.00    -0.270 N 
ATOM      4  C   UNL     1      14.638   7.657  19.851  0.00  0.00    +0.115 C 
ATOM      5  C   UNL     1      13.965   8.111  19.705  0.00  0.00    +0.116 C 
ATOM      6  N   UNL     1      13.584   8.062  18.974  0.00  0.00    -0.261 N 
ATOM      7  C   UNL     1      13.878   7.559  18.390  0.00  0.00    +0.116 C 
ATOM      8  C   UNL     1      13.390   7.626  17.728  0.00  0.00    +0.116 C 
ATOM      9  N   UNL     1      12.795   8.170  17.904  0.00  0.00    -0.264 N 
ATOM     16  C   UNL     1      12.916   8.439  18.674  0.00  0.00    +0.307 C 
ATOM     17  O   UNL     1      12.449   8.989  19.074  0.00  0.00    -0.252 OA
ATOM     18  C   UNL     1      14.552   7.105  18.535  0.00  0.00    +0.115 C 
ENDROOT
BRANCH   9  10
ATOM     10  C   UNL     1      12.187   8.404  17.398  0.00  0.00    +0.077 C 
ATOM     11  C   UNL     1      11.408   8.180  17.558  0.00  0.00    +0.020 C 
ATOM     12  C   UNL     1      10.800   8.414  17.052  0.00  0.00    +0.002 C 
ATOM     13  C   UNL     1      10.970   8.871  16.386  0.00  0.00    +0.000 C 
ATOM     14  C   UNL     1      11.747   9.094  16.226  0.00  0.00    +0.002 C 
ATOM     15  C   UNL     1      12.356   8.860  16.732  0.00  0.00    +0.020 C 
ENDBRANCH   9  10
BRANCH   2  19
ATOM     19  C   UNL     1      15.985   6.750  20.142  0.00  0.00    +0.230 A 
ATOM     20  C   UNL     1      16.651   7.207  20.312  0.00  0.00    +0.069 A 
ATOM     21  C   UNL     1      16.844   7.091  21.106  0.00  0.00    +0.144 A 
ATOM     22  N   UNL     1      16.297   6.562  21.426  0.00  0.00    -0.075 NA
ATOM     23  O   UNL     1      15.767   6.352  20.830  0.00  0.00    -0.349 OA
ENDBRANCH   2  19
TORSDOF 2
ENDMDL
