MODEL 1
REMARK VINA RESULT:     -14.7      0.000      0.000
REMARK  Name = 
REMARK  6 active torsions:
REMARK  status: ('A' for Active; 'I' for Inactive)
REMARK    1  A    between atoms: C_5  and  S_8
REMARK    2  A    between atoms: S_8  and  N_11
REMARK    3  A    between atoms: N_11  and  C_12
REMARK    4  A    between atoms: C_22  and  C_24
REMARK    5  A    between atoms: C_24  and  O_25
REMARK    6  A    between atoms: O_25  and  C_26
REMARK                            x       y       z     vdW  Elec       q    Type
REMARK                         _______ _______ _______ _____ _____    ______ ____
ROOT
ATOM     12  C   UNL     1      -3.778   1.189  24.863  0.00  0.00    +0.147 A 
ATOM     13  C   UNL     1      -4.530   0.888  25.021  0.00  0.00    +0.024 A 
ATOM     14  C   UNL     1      -5.142   1.399  25.235  0.00  0.00    +0.014 A 
ATOM     15  C   UNL     1      -5.001   2.210  25.291  0.00  0.00    +0.041 A 
ATOM     16  C   UNL     1      -5.432   2.997  25.490  0.00  0.00    +0.058 C 
ATOM     17  C   UNL     1      -6.059   3.248  25.679  0.00  0.00    +0.011 C 
ATOM     18  C   UNL     1      -5.316   3.541  25.522  0.00  0.00    +0.043 C 
ATOM     19  C   UNL     1      -4.500   4.079  25.374  0.00  0.00    +0.095 C 
ATOM     20  N   UNL     1      -3.966   3.470  25.169  0.00  0.00    -0.276 N 
ATOM     21  C   UNL     1      -4.652   3.530  25.351  0.00  0.00    +0.099 C 
ATOM     22  C   UNL     1      -3.257   3.110  24.947  0.00  0.00    +0.270 C 
ATOM     23  O   UNL     1      -2.583   3.569  24.826  0.00  0.00    -0.271 OA
ATOM     32  C   UNL     1      -4.857   2.724  25.312  0.00  0.00    +0.110 C 
ATOM     33  N   UNL     1      -4.249   2.510  25.132  0.00  0.00    -0.298 N 
ATOM     34  C   UNL     1      -3.637   1.999  24.918  0.00  0.00    +0.277 A 
ATOM     35  O   UNL     1      -2.870   1.794  24.699  0.00  0.00    -0.266 OA
ENDROOT
BRANCH  12  11
ATOM     11  N   UNL     1      -3.167   0.677  24.649  0.00  0.00    -0.092 NA
BRANCH  11   8
ATOM      8  S   UNL     1      -3.311  -0.132  24.579  0.00  0.00    +0.093 S 
ATOM      9  O   UNL     1      -3.134  -0.233  25.378  0.00  0.00    -0.148 OA
ATOM     10  O   UNL     1      -3.489  -0.030  23.780  0.00  0.00    -0.148 OA
BRANCH   8   5
ATOM      1 CL   UNL     1      -3.887  -3.369  24.301  0.00  0.00    -0.082 Cl
ATOM      2  C   UNL     1      -3.743  -2.560  24.370  0.00  0.00    +0.058 A 
ATOM      3  C   UNL     1      -3.261  -2.277  24.978  0.00  0.00    +0.013 A 
ATOM      4  C   UNL     1      -3.118  -1.468  25.047  0.00  0.00    +0.021 A 
ATOM      5  C   UNL     1      -3.456  -0.941  24.509  0.00  0.00    +0.127 A 
ATOM      6  C   UNL     1      -3.937  -1.224  23.902  0.00  0.00    +0.021 A 
ATOM      7  C   UNL     1      -4.081  -2.033  23.832  0.00  0.00    +0.013 A 
ENDBRANCH   8   5
ENDBRANCH  11   8
ENDBRANCH  12  11
BRANCH  22  24
ATOM     24  C   UNL     1      -3.224   2.292  24.846  0.00  0.00    +0.290 C 
BRANCH  24  25
ATOM     25  O   UNL     1      -2.533   1.939  24.565  0.00  0.00    -0.466 OA
BRANCH  25  26
ATOM     26  C   UNL     1      -1.799   2.275  24.736  0.00  0.00    +0.139 A 
ATOM     27  C   UNL     1      -1.375   2.662  24.142  0.00  0.00    +0.037 A 
ATOM     28  C   UNL     1      -0.641   2.998  24.312  0.00  0.00    +0.003 A 
ATOM     29  C   UNL     1      -0.331   2.946  25.074  0.00  0.00    +0.000 A 
ATOM     30  C   UNL     1      -0.754   2.559  25.668  0.00  0.00    +0.003 A 
ATOM     31  C   UNL     1      -1.488   2.224  25.498  0.00  0.00    +0.037 A 
ENDBRANCH  25  26
ENDBRANCH  24  25
ENDBRANCH  22  24
TORSDOF 6
ENDMDL
MODEL 2
REMARK VINA RESULT:     -14.0      0.892      2.845
REMARK  Name = 
REMARK  6 active torsions:
REMARK  status: ('A' for Active; 'I' for Inactive)
REMARK    1  A    between atoms: C_5  and  S_8
REMARK    2  A    between atoms: S_8  and  N_11
REMARK    3  A    between atoms: N_11  and  C_12
REMARK    4  A    between atoms: C_22  and  C_24
REMARK    5  A    between atoms: C_24  and  O_25
REMARK    6  A    between atoms: O_25  and  C_26
REMARK                            x       y       z     vdW  Elec       q    Type
REMARK                         _______ _______ _______ _____ _____    ______ ____
ROOT
ATOM     12  C   UNL     1      -2.624   1.095  24.990  0.00  0.00    +0.147 A 
ATOM     13  C   UNL     1      -1.991   0.578  25.100  0.00  0.00    +0.024 A 
ATOM     14  C   UNL     1      -1.245   0.874  25.294  0.00  0.00    +0.014 A 
ATOM     15  C   UNL     1      -1.134   1.687  25.378  0.00  0.00    +0.041 A 
ATOM     16  C   UNL     1      -0.479   2.300  25.574  0.00  0.00    +0.058 C 
ATOM     17  C   UNL     1       0.203   2.346  25.736  0.00  0.00    +0.011 C 
ATOM     18  C   UNL     1      -0.425   2.853  25.626  0.00  0.00    +0.043 C 
ATOM     19  C   UNL     1      -1.048   3.615  25.537  0.00  0.00    +0.095 C 
ATOM     20  N   UNL     1      -1.748   3.202  25.345  0.00  0.00    -0.276 N 
ATOM     21  C   UNL     1      -1.068   3.047  25.491  0.00  0.00    +0.099 C 
ATOM     22  C   UNL     1      -2.541   3.079  25.152  0.00  0.00    +0.270 C 
ATOM     23  O   UNL     1      -3.052   3.722  25.080  0.00  0.00    -0.271 OA
ATOM     32  C   UNL     1      -1.116   2.219  25.421  0.00  0.00    +0.110 C 
ATOM     33  N   UNL     1      -1.768   2.204  25.268  0.00  0.00    -0.298 N 
ATOM     34  C   UNL     1      -2.513   1.908  25.074  0.00  0.00    +0.277 A 
ATOM     35  O   UNL     1      -3.316   1.949  24.891  0.00  0.00    -0.266 OA
ENDROOT
BRANCH  12  11
ATOM     11  N   UNL     1      -3.369   0.798  24.796  0.00  0.00    -0.092 NA
BRANCH  11   8
ATOM      8  S   UNL     1      -3.476  -0.013  24.692  0.00  0.00    +0.093 S 
ATOM      9  O   UNL     1      -3.658  -0.091  25.493  0.00  0.00    -0.148 OA
ATOM     10  O   UNL     1      -3.294   0.065  23.892  0.00  0.00    -0.148 OA
BRANCH   8   5
ATOM      1 CL   UNL     1      -3.905  -3.258  24.278  0.00  0.00    -0.082 Cl
ATOM      2  C   UNL     1      -3.798  -2.447  24.381  0.00  0.00    +0.058 A 
ATOM      3  C   UNL     1      -4.032  -1.922  23.790  0.00  0.00    +0.013 A 
ATOM      4  C   UNL     1      -3.924  -1.110  23.894  0.00  0.00    +0.021 A 
ATOM      5  C   UNL     1      -3.583  -0.825  24.589  0.00  0.00    +0.127 A 
ATOM      6  C   UNL     1      -3.349  -1.351  25.180  0.00  0.00    +0.021 A 
ATOM      7  C   UNL     1      -3.457  -2.162  25.076  0.00  0.00    +0.013 A 
ENDBRANCH   8   5
ENDBRANCH  11   8
ENDBRANCH  12  11
BRANCH  22  24
ATOM     24  C   UNL     1      -2.823   2.313  25.031  0.00  0.00    +0.290 C 
BRANCH  24  25
ATOM     25  O   UNL     1      -3.593   2.195  24.762  0.00  0.00    -0.466 OA
BRANCH  25  26
ATOM     26  C   UNL     1      -4.193   2.716  24.983  0.00  0.00    +0.139 A 
ATOM     27  C   UNL     1      -4.454   3.292  24.452  0.00  0.00    +0.037 A 
ATOM     28  C   UNL     1      -5.054   3.814  24.672  0.00  0.00    +0.003 A 
ATOM     29  C   UNL     1      -5.392   3.760  25.422  0.00  0.00    +0.000 A 
ATOM     30  C   UNL     1      -5.131   3.184  25.953  0.00  0.00    +0.003 A 
ATOM     31  C   UNL     1      -4.532   2.663  25.732  0.00  0.00    +0.037 A 
ENDBRANCH  25  26
ENDBRANCH  24  25
ENDBRANCH  22  24
TORSDOF 6
ENDMDL
MODEL 3
REMARK VINA RESULT:     -12.9      1.854      4.062
REMARK  Name = 
REMARK  6 active torsions:
REMARK  status: ('A' for Active; 'I' for Inactive)
REMARK    1  A    between atoms: C_5  and  S_8
REMARK    2  A    between atoms: S_8  and  N_11
REMARK    3  A    between atoms: N_11  and  C_12
REMARK    4  A    between atoms: C_22  and  C_24
REMARK    5  A    between atoms: C_24  and  O_25
REMARK    6  A    between atoms: O_25  and  C_26
REMARK                            x       y       z     vdW  Elec       q    Type
REMARK                         _______ _______ _______ _____ _____    ______ ____
ROOT
ATOM     12  C   UNL     1      -3.190   0.406  24.664  0.00  0.00    +0.147 A 
ATOM     13  C   UNL     1      -3.939   0.104  24.832  0.00  0.00    +0.024 A 
ATOM     14  C   UNL     1      -4.047  -0.711  24.908  0.00  0.00    +0.014 A 
ATOM     15  C   UNL     1      -3.407  -1.222  24.815  0.00  0.00    +0.041 A 
ATOM     16  C   UNL     1      -3.200  -2.117  24.834  0.00  0.00    +0.058 C 
ATOM     17  C   UNL     1      -3.492  -2.748  24.933  0.00  0.00    +0.011 C 
ATOM     18  C   UNL     1      -2.754  -2.445  24.767  0.00  0.00    +0.043 C 
ATOM     19  C   UNL     1      -1.801  -2.277  24.568  0.00  0.00    +0.095 C 
ATOM     20  N   UNL     1      -1.815  -1.443  24.516  0.00  0.00    -0.276 N 
ATOM     21  C   UNL     1      -2.276  -1.971  24.642  0.00  0.00    +0.099 C 
ATOM     22  C   UNL     1      -1.535  -0.674  24.409  0.00  0.00    +0.270 C 
ATOM     23  O   UNL     1      -0.738  -0.545  24.243  0.00  0.00    -0.271 OA
ATOM     32  C   UNL     1      -2.961  -1.508  24.746  0.00  0.00    +0.110 C 
ATOM     33  N   UNL     1      -2.658  -0.919  24.647  0.00  0.00    -0.298 N 
ATOM     34  C   UNL     1      -2.549  -0.105  24.572  0.00  0.00    +0.277 A 
ATOM     35  O   UNL     1      -2.124   0.589  24.442  0.00  0.00    -0.266 OA
ENDROOT
BRANCH  12  11
ATOM     11  N   UNL     1      -3.082   1.220  24.589  0.00  0.00    -0.092 NA
BRANCH  11   8
ATOM      8  S   UNL     1      -3.691   1.738  24.793  0.00  0.00    +0.093 S 
ATOM      9  O   UNL     1      -3.436   1.730  25.577  0.00  0.00    -0.148 OA
ATOM     10  O   UNL     1      -3.946   1.746  24.008  0.00  0.00    -0.148 OA
BRANCH   8   5
ATOM      1 CL   UNL     1      -6.126   3.810  25.609  0.00  0.00    -0.082 Cl
ATOM      2  C   UNL     1      -5.517   3.292  25.405  0.00  0.00    +0.058 A 
ATOM      3  C   UNL     1      -4.736   3.481  25.591  0.00  0.00    +0.013 A 
ATOM      4  C   UNL     1      -4.127   2.963  25.387  0.00  0.00    +0.021 A 
ATOM      5  C   UNL     1      -4.300   2.256  24.997  0.00  0.00    +0.127 A 
ATOM      6  C   UNL     1      -5.082   2.068  24.811  0.00  0.00    +0.021 A 
ATOM      7  C   UNL     1      -5.690   2.586  25.015  0.00  0.00    +0.013 A 
ENDBRANCH   8   5
ENDBRANCH  11   8
ENDBRANCH  12  11
BRANCH  22  24
ATOM     24  C   UNL     1      -2.053  -0.034  24.469  0.00  0.00    +0.290 C 
BRANCH  24  25
ATOM     25  O   UNL     1      -1.828   0.706  24.185  0.00  0.00    -0.466 OA
BRANCH  25  26
ATOM     26  C   UNL     1      -1.046   0.958  24.259  0.00  0.00    +0.139 A 
ATOM     27  C   UNL     1      -0.558   0.990  23.594  0.00  0.00    +0.037 A 
ATOM     28  C   UNL     1       0.225   1.241  23.668  0.00  0.00    +0.003 A 
ATOM     29  C   UNL     1       0.518   1.461  24.407  0.00  0.00    +0.000 A 
ATOM     30  C   UNL     1       0.030   1.429  25.072  0.00  0.00    +0.003 A 
ATOM     31  C   UNL     1      -0.751   1.177  24.998  0.00  0.00    +0.037 A 
ENDBRANCH  25  26
ENDBRANCH  24  25
ENDBRANCH  22  24
TORSDOF 6
ENDMDL
MODEL 4
REMARK VINA RESULT:     -12.9      1.987      4.702
REMARK  Name = 
REMARK  6 active torsions:
REMARK  status: ('A' for Active; 'I' for Inactive)
REMARK    1  A    between atoms: C_5  and  S_8
REMARK    2  A    between atoms: S_8  and  N_11
REMARK    3  A    between atoms: N_11  and  C_12
REMARK    4  A    between atoms: C_22  and  C_24
REMARK    5  A    between atoms: C_24  and  O_25
REMARK    6  A    between atoms: O_25  and  C_26
REMARK                            x       y       z     vdW  Elec       q    Type
REMARK                         _______ _______ _______ _____ _____    ______ ____
ROOT
ATOM     12  C   UNL     1      -2.714   0.903  24.569  0.00  0.00    +0.147 A 
ATOM     13  C   UNL     1      -2.404   1.651  24.411  0.00  0.00    +0.024 A 
ATOM     14  C   UNL     1      -1.610   1.734  24.205  0.00  0.00    +0.014 A 
ATOM     15  C   UNL     1      -1.125   1.069  24.158  0.00  0.00    +0.041 A 
ATOM     16  C   UNL     1      -0.258   0.829  23.970  0.00  0.00    +0.058 C 
ATOM     17  C   UNL     1       0.362   1.104  23.787  0.00  0.00    +0.011 C 
ATOM     18  C   UNL     1       0.053   0.367  23.943  0.00  0.00    +0.043 C 
ATOM     19  C   UNL     1      -0.131  -0.593  24.093  0.00  0.00    +0.095 C 
ATOM     20  N   UNL     1      -0.942  -0.551  24.289  0.00  0.00    -0.276 N 
ATOM     21  C   UNL     1      -0.419  -0.101  24.111  0.00  0.00    +0.099 C 
ATOM     22  C   UNL     1      -1.696  -0.809  24.503  0.00  0.00    +0.270 C 
ATOM     23  O   UNL     1      -1.838  -1.612  24.626  0.00  0.00    -0.271 OA
ATOM     32  C   UNL     1      -0.855   0.607  24.142  0.00  0.00    +0.110 C 
ATOM     33  N   UNL     1      -1.434   0.320  24.316  0.00  0.00    -0.298 N 
ATOM     34  C   UNL     1      -2.229   0.237  24.521  0.00  0.00    +0.277 A 
ATOM     35  O   UNL     1      -2.914  -0.170  24.734  0.00  0.00    -0.266 OA
ENDROOT
BRANCH  12  11
ATOM     11  N   UNL     1      -3.508   0.821  24.774  0.00  0.00    -0.092 NA
BRANCH  11   8
ATOM      8  S   UNL     1      -3.966   1.490  24.928  0.00  0.00    +0.093 S 
ATOM      9  O   UNL     1      -3.742   1.461  25.721  0.00  0.00    -0.148 OA
ATOM     10  O   UNL     1      -4.191   1.519  24.134  0.00  0.00    -0.148 OA
BRANCH   8   5
ATOM      1 CL   UNL     1      -5.798   4.164  25.546  0.00  0.00    -0.082 Cl
ATOM      2  C   UNL     1      -5.340   3.496  25.391  0.00  0.00    +0.058 A 
ATOM      3  C   UNL     1      -5.692   2.750  25.373  0.00  0.00    +0.013 A 
ATOM      4  C   UNL     1      -5.234   2.082  25.219  0.00  0.00    +0.021 A 
ATOM      5  C   UNL     1      -4.424   2.159  25.082  0.00  0.00    +0.127 A 
ATOM      6  C   UNL     1      -4.072   2.905  25.100  0.00  0.00    +0.021 A 
ATOM      7  C   UNL     1      -4.530   3.573  25.255  0.00  0.00    +0.013 A 
ENDBRANCH   8   5
ENDBRANCH  11   8
ENDBRANCH  12  11
BRANCH  22  24
ATOM     24  C   UNL     1      -2.308  -0.263  24.595  0.00  0.00    +0.290 C 
BRANCH  24  25
ATOM     25  O   UNL     1      -3.040  -0.509  24.885  0.00  0.00    -0.466 OA
BRANCH  25  26
ATOM     26  C   UNL     1      -3.318  -1.267  24.716  0.00  0.00    +0.139 A 
ATOM     27  C   UNL     1      -3.254  -1.865  25.282  0.00  0.00    +0.037 A 
ATOM     28  C   UNL     1      -3.532  -2.623  25.113  0.00  0.00    +0.003 A 
ATOM     29  C   UNL     1      -3.873  -2.783  24.379  0.00  0.00    +0.000 A 
ATOM     30  C   UNL     1      -3.937  -2.185  23.814  0.00  0.00    +0.003 A 
ATOM     31  C   UNL     1      -3.659  -1.428  23.983  0.00  0.00    +0.037 A 
ENDBRANCH  25  26
ENDBRANCH  24  25
ENDBRANCH  22  24
TORSDOF 6
ENDMDL
MODEL 5
REMARK VINA RESULT:     -12.8      1.723      3.160
REMARK  Name = 
REMARK  6 active torsions:
REMARK  status: ('A' for Active; 'I' for Inactive)
REMARK    1  A    between atoms: C_5  and  S_8
REMARK    2  A    between atoms: S_8  and  N_11
REMARK    3  A    between atoms: N_11  and  C_12
REMARK    4  A    between atoms: C_22  and  C_24
REMARK    5  A    between atoms: C_24  and  O_25
REMARK    6  A    between atoms: O_25  and  C_26
REMARK                            x       y       z     vdW  Elec       q    Type
REMARK                         _______ _______ _______ _____ _____    ______ ____
ROOT
ATOM     12  C   UNL     1      -1.921   2.083  24.970  0.00  0.00    +0.147 A 
ATOM     13  C   UNL     1      -1.098   2.119  25.020  0.00  0.00    +0.024 A 
ATOM     14  C   UNL     1      -0.719   2.850  25.062  0.00  0.00    +0.014 A 
ATOM     15  C   UNL     1      -1.162   3.546  25.054  0.00  0.00    +0.041 A 
ATOM     16  C   UNL     1      -1.058   4.458  25.084  0.00  0.00    +0.058 C 
ATOM     17  C   UNL     1      -0.564   4.955  25.127  0.00  0.00    +0.011 C 
ATOM     18  C   UNL     1      -1.376   4.916  25.077  0.00  0.00    +0.043 C 
ATOM     19  C   UNL     1      -2.350   5.075  25.023  0.00  0.00    +0.095 C 
ATOM     20  N   UNL     1      -2.619   4.285  24.986  0.00  0.00    -0.276 N 
ATOM     21  C   UNL     1      -1.997   4.628  25.032  0.00  0.00    +0.099 C 
ATOM     22  C   UNL     1      -3.148   3.653  24.938  0.00  0.00    +0.270 C 
ATOM     23  O   UNL     1      -3.959   3.797  24.893  0.00  0.00    -0.271 OA
ATOM     32  C   UNL     1      -1.495   3.964  25.045  0.00  0.00    +0.110 C 
ATOM     33  N   UNL     1      -1.985   3.510  25.004  0.00  0.00    -0.298 N 
ATOM     34  C   UNL     1      -2.364   2.779  24.962  0.00  0.00    +0.277 A 
ATOM     35  O   UNL     1      -3.008   2.266  24.910  0.00  0.00    -0.266 OA
ENDROOT
BRANCH  12  11
ATOM     11  N   UNL     1      -2.300   1.352  24.928  0.00  0.00    -0.092 NA
BRANCH  11   8
ATOM      8  S   UNL     1      -1.861   0.656  24.984  0.00  0.00    +0.093 S 
ATOM      9  O   UNL     1      -1.921   0.684  25.806  0.00  0.00    -0.148 OA
ATOM     10  O   UNL     1      -1.801   0.628  24.162  0.00  0.00    -0.148 OA
BRANCH   8   5
ATOM      1 CL   UNL     1      -0.106  -2.129  25.213  0.00  0.00    -0.082 Cl
ATOM      2  C   UNL     1      -0.544  -1.433  25.155  0.00  0.00    +0.058 A 
ATOM      3  C   UNL     1      -0.965  -1.156  25.809  0.00  0.00    +0.013 A 
ATOM      4  C   UNL     1      -1.404  -0.460  25.751  0.00  0.00    +0.021 A 
ATOM      5  C   UNL     1      -1.422  -0.041  25.041  0.00  0.00    +0.127 A 
ATOM      6  C   UNL     1      -1.001  -0.318  24.388  0.00  0.00    +0.021 A 
ATOM      7  C   UNL     1      -0.562  -1.014  24.445  0.00  0.00    +0.013 A 
ENDBRANCH   8   5
ENDBRANCH  11   8
ENDBRANCH  12  11
BRANCH  22  24
ATOM     24  C   UNL     1      -2.866   2.877  24.934  0.00  0.00    +0.290 C 
BRANCH  24  25
ATOM     25  O   UNL     1      -3.370   2.256  24.734  0.00  0.00    -0.466 OA
BRANCH  25  26
ATOM     26  C   UNL     1      -4.174   2.303  24.910  0.00  0.00    +0.139 A 
ATOM     27  C   UNL     1      -4.728   2.347  24.300  0.00  0.00    +0.037 A 
ATOM     28  C   UNL     1      -5.533   2.393  24.476  0.00  0.00    +0.003 A 
ATOM     29  C   UNL     1      -5.783   2.396  25.262  0.00  0.00    +0.000 A 
ATOM     30  C   UNL     1      -5.229   2.353  25.872  0.00  0.00    +0.003 A 
ATOM     31  C   UNL     1      -4.425   2.306  25.696  0.00  0.00    +0.037 A 
ENDBRANCH  25  26
ENDBRANCH  24  25
ENDBRANCH  22  24
TORSDOF 6
ENDMDL
MODEL 6
REMARK VINA RESULT:     -12.4      1.760      3.682
REMARK  Name = 
REMARK  6 active torsions:
REMARK  status: ('A' for Active; 'I' for Inactive)
REMARK    1  A    between atoms: C_5  and  S_8
REMARK    2  A    between atoms: S_8  and  N_11
REMARK    3  A    between atoms: N_11  and  C_12
REMARK    4  A    between atoms: C_22  and  C_24
REMARK    5  A    between atoms: C_24  and  O_25
REMARK    6  A    between atoms: O_25  and  C_26
REMARK                            x       y       z     vdW  Elec       q    Type
REMARK                         _______ _______ _______ _____ _____    ______ ____
ROOT
ATOM     12  C   UNL     1      -2.737   1.167  24.534  0.00  0.00    +0.147 A 
ATOM     13  C   UNL     1      -2.516   1.954  24.641  0.00  0.00    +0.024 A 
ATOM     14  C   UNL     1      -3.083   2.518  24.846  0.00  0.00    +0.014 A 
ATOM     15  C   UNL     1      -3.870   2.293  24.943  0.00  0.00    +0.041 A 
ATOM     16  C   UNL     1      -4.692   2.647  25.154  0.00  0.00    +0.058 C 
ATOM     17  C   UNL     1      -5.004   3.252  25.322  0.00  0.00    +0.011 C 
ATOM     18  C   UNL     1      -5.219   2.474  25.215  0.00  0.00    +0.043 C 
ATOM     19  C   UNL     1      -5.668   1.598  25.132  0.00  0.00    +0.095 C 
ATOM     20  N   UNL     1      -5.012   1.123  24.928  0.00  0.00    -0.276 N 
ATOM     21  C   UNL     1      -5.141   1.807  25.078  0.00  0.00    +0.099 C 
ATOM     22  C   UNL     1      -4.585   0.446  24.726  0.00  0.00    +0.270 C 
ATOM     23  O   UNL     1      -4.970  -0.280  24.659  0.00  0.00    -0.271 OA
ATOM     32  C   UNL     1      -4.365   2.096  24.994  0.00  0.00    +0.110 C 
ATOM     33  N   UNL     1      -4.091   1.506  24.836  0.00  0.00    -0.298 N 
ATOM     34  C   UNL     1      -3.525   0.942  24.631  0.00  0.00    +0.277 A 
ATOM     35  O   UNL     1      -3.244   0.191  24.442  0.00  0.00    -0.266 OA
ENDROOT
BRANCH  12  11
ATOM     11  N   UNL     1      -2.170   0.604  24.329  0.00  0.00    -0.092 NA
BRANCH  11   8
ATOM      8  S   UNL     1      -1.385   0.831  24.216  0.00  0.00    +0.093 S 
ATOM      9  O   UNL     1      -1.548   1.000  23.425  0.00  0.00    -0.148 OA
ATOM     10  O   UNL     1      -1.222   0.663  25.007  0.00  0.00    -0.148 OA
BRANCH   8   5
ATOM      1 CL   UNL     1       1.754   1.740  23.759  0.00  0.00    -0.082 Cl
ATOM      2  C   UNL     1       0.970   1.513  23.873  0.00  0.00    +0.058 A 
ATOM      3  C   UNL     1       0.655   0.885  23.440  0.00  0.00    +0.013 A 
ATOM      4  C   UNL     1      -0.130   0.658  23.554  0.00  0.00    +0.021 A 
ATOM      5  C   UNL     1      -0.600   1.059  24.102  0.00  0.00    +0.127 A 
ATOM      6  C   UNL     1      -0.285   1.687  24.535  0.00  0.00    +0.021 A 
ATOM      7  C   UNL     1       0.500   1.914  24.420  0.00  0.00    +0.013 A 
ENDBRANCH   8   5
ENDBRANCH  11   8
ENDBRANCH  12  11
BRANCH  22  24
ATOM     24  C   UNL     1      -3.772   0.496  24.592  0.00  0.00    +0.290 C 
BRANCH  24  25
ATOM     25  O   UNL     1      -3.380  -0.117  24.203  0.00  0.00    -0.466 OA
BRANCH  25  26
ATOM     26  C   UNL     1      -3.584  -0.901  24.356  0.00  0.00    +0.139 A 
ATOM     27  C   UNL     1      -3.957  -1.351  23.774  0.00  0.00    +0.037 A 
ATOM     28  C   UNL     1      -4.161  -2.136  23.926  0.00  0.00    +0.003 A 
ATOM     29  C   UNL     1      -3.992  -2.470  24.662  0.00  0.00    +0.000 A 
ATOM     30  C   UNL     1      -3.618  -2.020  25.244  0.00  0.00    +0.003 A 
ATOM     31  C   UNL     1      -3.415  -1.236  25.091  0.00  0.00    +0.037 A 
ENDBRANCH  25  26
ENDBRANCH  24  25
ENDBRANCH  22  24
TORSDOF 6
ENDMDL
