MODEL 1
REMARK VINA RESULT:      -9.6      0.000      0.000
REMARK  Name = 
REMARK  7 active torsions:
REMARK  status: ('A' for Active; 'I' for Inactive)
REMARK    1  A    between atoms: O_2  and  C_3
REMARK    2  A    between atoms: C_3  and  C_4
REMARK    3  A    between atoms: N_6  and  C_7
REMARK    4  A    between atoms: C_7  and  C_8
REMARK    5  A    between atoms: C_15  and  C_16
REMARK    6  A    between atoms: C_18  and  C_23
REMARK    7  A    between atoms: C_24  and  O_25
REMARK                            x       y       z     vdW  Elec       q    Type
REMARK                         _______ _______ _______ _____ _____    ______ ____
ROOT
ATOM      8  C   UNL     1       0.914   0.211  23.167  0.00  0.00    +0.079 C 
ATOM      9  C   UNL     1       0.337   0.630  23.477  0.00  0.00    +0.018 C 
ATOM     10  C   UNL     1      -0.256   0.342  23.948  0.00  0.00    +0.010 C 
ATOM     11  C   UNL     1      -0.823   0.988  24.203  0.00  0.00    +0.018 C 
ATOM     12  C   UNL     1      -0.303   0.741  23.896  0.00  0.00    +0.072 C 
ATOM     13  N   UNL     1       0.307  -0.076  23.647  0.00  0.00    -0.272 NA
ATOM     14  C   UNL     1       0.116  -0.913  23.956  0.00  0.00    +0.078 C 
ATOM     15  C   UNL     1      -0.433  -0.466  24.241  0.00  0.00    +0.056 C 
ENDROOT
BRANCH  15  16
ATOM     16  C   UNL     1      -1.063  -0.695  24.724  0.00  0.00    +0.063 A 
ATOM     17  C   UNL     1      -1.738  -1.031  24.389  0.00  0.00    +0.034 A 
ATOM     18  C   UNL     1      -2.366  -1.259  24.872  0.00  0.00    +0.087 A 
ATOM     19  N   UNL     1      -2.320  -1.152  25.689  0.00  0.00    -0.231 NA
ATOM     20  C   UNL     1      -1.645  -0.816  26.023  0.00  0.00    +0.139 A 
ATOM     21  C   UNL     1      -1.598  -0.708  26.839  0.00  0.00    +0.074 C 
ATOM     22  N   UNL     1      -1.016  -0.587  25.540  0.00  0.00    -0.235 NA
BRANCH  18  23
ATOM     23  C   UNL     1      -3.042  -1.596  24.538  0.00  0.00    +0.052 A 
ATOM     24  C   UNL     1      -3.692  -1.120  24.357  0.00  0.00    +0.140 A 
ATOM     27  C   UNL     1      -4.367  -1.456  24.024  0.00  0.00    +0.037 A 
ATOM     28  C   UNL     1      -4.393  -2.267  23.871  0.00  0.00    +0.003 A 
ATOM     29  C   UNL     1      -3.744  -2.741  24.053  0.00  0.00    +0.000 A 
ATOM     30  C   UNL     1      -3.067  -2.406  24.386  0.00  0.00    +0.005 A 
BRANCH  24  25
ATOM     25  O   UNL     1      -3.666  -0.310  24.509  0.00  0.00    -0.471 OA
ATOM     26  C   UNL     1      -4.333   0.157  24.369  0.00  0.00    +0.252 C 
ENDBRANCH  24  25
ENDBRANCH  18  23
ENDBRANCH  15  16
BRANCH   8   7
ATOM      7  C   UNL     1       1.597   0.121  22.714  0.00  0.00    +0.131 C 
BRANCH   7   6
ATOM      4  C   UNL     1       2.983   0.400  22.497  0.00  0.00    +0.272 C 
ATOM      5  O   UNL     1       2.944   0.024  21.764  0.00  0.00    -0.271 OA
ATOM      6  N   UNL     1       2.310   0.449  22.973  0.00  0.00    -0.202 NA
BRANCH   4   3
ATOM      3  C   UNL     1       3.695   0.727  22.756  0.00  0.00    +0.229 C 
BRANCH   3   2
ATOM      1  C   UNL     1       5.012   0.501  23.263  0.00  0.00    +0.175 C 
ATOM      2  O   UNL     1       4.371   0.256  22.806  0.00  0.00    -0.342 OA
ENDBRANCH   3   2
ENDBRANCH   4   3
ENDBRANCH   7   6
ENDBRANCH   8   7
TORSDOF 7
ENDMDL
MODEL 2
REMARK VINA RESULT:      -9.3      2.182      3.186
REMARK  Name = 
REMARK  7 active torsions:
REMARK  status: ('A' for Active; 'I' for Inactive)
REMARK    1  A    between atoms: O_2  and  C_3
REMARK    2  A    between atoms: C_3  and  C_4
REMARK    3  A    between atoms: N_6  and  C_7
REMARK    4  A    between atoms: C_7  and  C_8
REMARK    5  A    between atoms: C_15  and  C_16
REMARK    6  A    between atoms: C_18  and  C_23
REMARK    7  A    between atoms: C_24  and  O_25
REMARK                            x       y       z     vdW  Elec       q    Type
REMARK                         _______ _______ _______ _____ _____    ______ ____
ROOT
ATOM      8  C   UNL     1       0.204   0.084  23.522  0.00  0.00    +0.079 C 
ATOM      9  C   UNL     1      -0.081   0.028  24.244  0.00  0.00    +0.018 C 
ATOM     10  C   UNL     1      -0.800   0.306  24.490  0.00  0.00    +0.010 C 
ATOM     11  C   UNL     1      -0.942   0.143  25.361  0.00  0.00    +0.018 C 
ATOM     12  C   UNL     1      -0.607   0.132  24.800  0.00  0.00    +0.072 C 
ATOM     13  N   UNL     1      -0.528   0.365  23.781  0.00  0.00    -0.272 NA
ATOM     14  C   UNL     1      -1.202   0.801  23.347  0.00  0.00    +0.078 C 
ATOM     15  C   UNL     1      -1.445   0.726  24.067  0.00  0.00    +0.056 C 
ENDROOT
BRANCH  15  16
ATOM     16  C   UNL     1      -2.163   0.985  24.381  0.00  0.00    +0.063 A 
ATOM     17  C   UNL     1      -2.256   1.776  24.596  0.00  0.00    +0.034 A 
ATOM     18  C   UNL     1      -2.974   2.034  24.911  0.00  0.00    +0.087 A 
ATOM     19  N   UNL     1      -3.597   1.503  25.010  0.00  0.00    -0.231 NA
ATOM     20  C   UNL     1      -3.502   0.712  24.795  0.00  0.00    +0.139 A 
ATOM     21  C   UNL     1      -4.125   0.180  24.893  0.00  0.00    +0.074 C 
ATOM     22  N   UNL     1      -2.784   0.453  24.480  0.00  0.00    -0.235 NA
BRANCH  18  23
ATOM     23  C   UNL     1      -3.069   2.825  25.126  0.00  0.00    +0.052 A 
ATOM     24  C   UNL     1      -3.444   3.350  24.611  0.00  0.00    +0.140 A 
ATOM     27  C   UNL     1      -3.539   4.141  24.826  0.00  0.00    +0.037 A 
ATOM     28  C   UNL     1      -3.260   4.406  25.556  0.00  0.00    +0.003 A 
ATOM     29  C   UNL     1      -2.886   3.882  26.070  0.00  0.00    +0.000 A 
ATOM     30  C   UNL     1      -2.790   3.091  25.855  0.00  0.00    +0.005 A 
BRANCH  24  25
ATOM     25  O   UNL     1      -3.723   3.085  23.882  0.00  0.00    -0.471 OA
ATOM     26  C   UNL     1      -4.081   3.616  23.360  0.00  0.00    +0.252 C 
ENDBRANCH  24  25
ENDBRANCH  18  23
ENDBRANCH  15  16
BRANCH   8   7
ATOM      7  C   UNL     1       0.783  -0.040  22.948  0.00  0.00    +0.131 C 
BRANCH   7   6
ATOM      4  C   UNL     1       2.158  -0.015  22.557  0.00  0.00    +0.272 C 
ATOM      5  O   UNL     1       1.936  -0.119  21.769  0.00  0.00    -0.271 OA
ATOM      6  N   UNL     1       1.582   0.025  23.147  0.00  0.00    -0.202 NA
BRANCH   4   3
ATOM      3  C   UNL     1       2.956   0.051  22.756  0.00  0.00    +0.229 C 
BRANCH   3   2
ATOM      1  C   UNL     1       4.176   0.794  22.731  0.00  0.00    +0.175 C 
ATOM      2  O   UNL     1       3.401   0.685  22.472  0.00  0.00    -0.342 OA
ENDBRANCH   3   2
ENDBRANCH   4   3
ENDBRANCH   7   6
ENDBRANCH   8   7
TORSDOF 7
ENDMDL
MODEL 3
REMARK VINA RESULT:      -9.2      2.074      2.811
REMARK  Name = 
REMARK  7 active torsions:
REMARK  status: ('A' for Active; 'I' for Inactive)
REMARK    1  A    between atoms: O_2  and  C_3
REMARK    2  A    between atoms: C_3  and  C_4
REMARK    3  A    between atoms: N_6  and  C_7
REMARK    4  A    between atoms: C_7  and  C_8
REMARK    5  A    between atoms: C_15  and  C_16
REMARK    6  A    between atoms: C_18  and  C_23
REMARK    7  A    between atoms: C_24  and  O_25
REMARK                            x       y       z     vdW  Elec       q    Type
REMARK                         _______ _______ _______ _____ _____    ______ ____
ROOT
ATOM      8  C   UNL     1       0.173   0.242  23.603  0.00  0.00    +0.079 C 
ATOM      9  C   UNL     1      -0.174   0.154  24.293  0.00  0.00    +0.018 C 
ATOM     10  C   UNL     1      -0.714   0.662  24.618  0.00  0.00    +0.010 C 
ATOM     11  C   UNL     1      -0.996   0.381  25.422  0.00  0.00    +0.018 C 
ATOM     12  C   UNL     1      -0.649   0.351  24.869  0.00  0.00    +0.072 C 
ATOM     13  N   UNL     1      -0.378   0.755  23.940  0.00  0.00    -0.272 NA
ATOM     14  C   UNL     1      -0.743   1.538  23.646  0.00  0.00    +0.078 C 
ATOM     15  C   UNL     1      -1.061   1.414  24.329  0.00  0.00    +0.056 C 
ENDROOT
BRANCH  15  16
ATOM     16  C   UNL     1      -1.615   1.890  24.715  0.00  0.00    +0.063 A 
ATOM     17  C   UNL     1      -2.422   1.751  24.608  0.00  0.00    +0.034 A 
ATOM     18  C   UNL     1      -2.975   2.226  24.993  0.00  0.00    +0.087 A 
ATOM     19  N   UNL     1      -2.722   2.839  25.486  0.00  0.00    -0.231 NA
ATOM     20  C   UNL     1      -1.916   2.976  25.592  0.00  0.00    +0.139 A 
ATOM     21  C   UNL     1      -1.663   3.588  26.084  0.00  0.00    +0.074 C 
ATOM     22  N   UNL     1      -1.362   2.501  25.206  0.00  0.00    -0.235 NA
BRANCH  18  23
ATOM     23  C   UNL     1      -3.782   2.089  24.887  0.00  0.00    +0.052 A 
ATOM     24  C   UNL     1      -4.206   2.536  24.339  0.00  0.00    +0.140 A 
ATOM     27  C   UNL     1      -5.013   2.400  24.232  0.00  0.00    +0.037 A 
ATOM     28  C   UNL     1      -5.395   1.816  24.674  0.00  0.00    +0.003 A 
ATOM     29  C   UNL     1      -4.970   1.370  25.222  0.00  0.00    +0.000 A 
ATOM     30  C   UNL     1      -4.163   1.506  25.329  0.00  0.00    +0.005 A 
BRANCH  24  25
ATOM     25  O   UNL     1      -3.825   3.119  23.897  0.00  0.00    -0.471 OA
ATOM     26  C   UNL     1      -4.245   3.543  23.325  0.00  0.00    +0.252 C 
ENDBRANCH  24  25
ENDBRANCH  18  23
ENDBRANCH  15  16
BRANCH   8   7
ATOM      7  C   UNL     1       0.689   0.007  23.003  0.00  0.00    +0.131 C 
BRANCH   7   6
ATOM      4  C   UNL     1       2.023  -0.072  22.495  0.00  0.00    +0.272 C 
ATOM      5  O   UNL     1       1.727  -0.178  21.733  0.00  0.00    -0.271 OA
ATOM      6  N   UNL     1       1.504   0.021  23.131  0.00  0.00    -0.202 NA
BRANCH   4   3
ATOM      3  C   UNL     1       2.838  -0.057  22.623  0.00  0.00    +0.229 C 
BRANCH   3   2
ATOM      1  C   UNL     1       4.054   0.691  22.680  0.00  0.00    +0.175 C 
ATOM      2  O   UNL     1       3.275   0.614  22.422  0.00  0.00    -0.342 OA
ENDBRANCH   3   2
ENDBRANCH   4   3
ENDBRANCH   7   6
ENDBRANCH   8   7
TORSDOF 7
ENDMDL
MODEL 4
REMARK VINA RESULT:      -8.5      3.252      3.932
REMARK  Name = 
REMARK  7 active torsions:
REMARK  status: ('A' for Active; 'I' for Inactive)
REMARK    1  A    between atoms: O_2  and  C_3
REMARK    2  A    between atoms: C_3  and  C_4
REMARK    3  A    between atoms: N_6  and  C_7
REMARK    4  A    between atoms: C_7  and  C_8
REMARK    5  A    between atoms: C_15  and  C_16
REMARK    6  A    between atoms: C_18  and  C_23
REMARK    7  A    between atoms: C_24  and  O_25
REMARK                            x       y       z     vdW  Elec       q    Type
REMARK                         _______ _______ _______ _____ _____    ______ ____
ROOT
ATOM      8  C   UNL     1      -1.507   2.514  23.992  0.00  0.00    +0.079 C 
ATOM      9  C   UNL     1      -1.993   2.194  23.475  0.00  0.00    +0.018 C 
ATOM     10  C   UNL     1      -2.606   1.695  23.649  0.00  0.00    +0.010 C 
ATOM     11  C   UNL     1      -3.045   1.436  22.912  0.00  0.00    +0.018 C 
ATOM     12  C   UNL     1      -2.587   1.756  23.250  0.00  0.00    +0.072 C 
ATOM     13  N   UNL     1      -2.134   2.005  24.162  0.00  0.00    -0.272 NA
ATOM     14  C   UNL     1      -2.450   1.667  24.949  0.00  0.00    +0.078 C 
ATOM     15  C   UNL     1      -2.904   1.374  24.409  0.00  0.00    +0.056 C 
ENDROOT
BRANCH  15  16
ATOM     16  C   UNL     1      -3.543   0.862  24.518  0.00  0.00    +0.063 A 
ATOM     17  C   UNL     1      -3.433   0.046  24.453  0.00  0.00    +0.034 A 
ATOM     18  C   UNL     1      -4.071  -0.465  24.562  0.00  0.00    +0.087 A 
ATOM     19  N   UNL     1      -4.818  -0.162  24.737  0.00  0.00    -0.231 NA
ATOM     20  C   UNL     1      -4.927   0.653  24.802  0.00  0.00    +0.139 A 
ATOM     21  C   UNL     1      -5.674   0.957  24.976  0.00  0.00    +0.074 C 
ATOM     22  N   UNL     1      -4.289   1.165  24.693  0.00  0.00    -0.235 NA
BRANCH  18  23
ATOM     23  C   UNL     1      -3.962  -1.280  24.497  0.00  0.00    +0.052 A 
ATOM     24  C   UNL     1      -3.639  -1.704  25.127  0.00  0.00    +0.140 A 
ATOM     27  C   UNL     1      -3.531  -2.519  25.062  0.00  0.00    +0.037 A 
ATOM     28  C   UNL     1      -3.744  -2.910  24.367  0.00  0.00    +0.003 A 
ATOM     29  C   UNL     1      -4.066  -2.486  23.738  0.00  0.00    +0.000 A 
ATOM     30  C   UNL     1      -4.176  -1.671  23.802  0.00  0.00    +0.005 A 
BRANCH  24  25
ATOM     25  O   UNL     1      -3.426  -1.314  25.821  0.00  0.00    -0.471 OA
ATOM     26  C   UNL     1      -3.088  -1.738  26.445  0.00  0.00    +0.252 C 
ENDBRANCH  24  25
ENDBRANCH  18  23
ENDBRANCH  15  16
BRANCH   8   7
ATOM      7  C   UNL     1      -0.868   2.990  24.205  0.00  0.00    +0.131 C 
BRANCH   7   6
ATOM      4  C   UNL     1      -0.530   4.255  24.779  0.00  0.00    +0.272 C 
ATOM      5  O   UNL     1      -0.022   3.879  25.309  0.00  0.00    -0.271 OA
ATOM      6  N   UNL     1      -0.954   3.811  24.227  0.00  0.00    -0.202 NA
BRANCH   4   3
ATOM      3  C   UNL     1      -0.616   5.076  24.800  0.00  0.00    +0.229 C 
BRANCH   3   2
ATOM      1  C   UNL     1      -1.601   6.096  24.972  0.00  0.00    +0.175 C 
ATOM      2  O   UNL     1      -1.226   5.414  25.243  0.00  0.00    -0.342 OA
ENDBRANCH   3   2
ENDBRANCH   4   3
ENDBRANCH   7   6
ENDBRANCH   8   7
TORSDOF 7
ENDMDL
MODEL 5
REMARK VINA RESULT:      -8.5      3.610      5.690
REMARK  Name = 
REMARK  7 active torsions:
REMARK  status: ('A' for Active; 'I' for Inactive)
REMARK    1  A    between atoms: O_2  and  C_3
REMARK    2  A    between atoms: C_3  and  C_4
REMARK    3  A    between atoms: N_6  and  C_7
REMARK    4  A    between atoms: C_7  and  C_8
REMARK    5  A    between atoms: C_15  and  C_16
REMARK    6  A    between atoms: C_18  and  C_23
REMARK    7  A    between atoms: C_24  and  O_25
REMARK                            x       y       z     vdW  Elec       q    Type
REMARK                         _______ _______ _______ _____ _____    ______ ____
ROOT
ATOM      8  C   UNL     1      -4.259  -0.526  24.515  0.00  0.00    +0.079 C 
ATOM      9  C   UNL     1      -4.562   0.097  24.871  0.00  0.00    +0.018 C 
ATOM     10  C   UNL     1      -4.350   0.867  24.736  0.00  0.00    +0.010 C 
ATOM     11  C   UNL     1      -4.817   1.436  25.248  0.00  0.00    +0.018 C 
ATOM     12  C   UNL     1      -4.639   0.851  25.018  0.00  0.00    +0.072 C 
ATOM     13  N   UNL     1      -4.049   0.262  24.383  0.00  0.00    -0.272 NA
ATOM     14  C   UNL     1      -3.440   0.645  23.821  0.00  0.00    +0.078 C 
ATOM     15  C   UNL     1      -3.763   1.229  24.193  0.00  0.00    +0.056 C 
ENDROOT
BRANCH  15  16
ATOM     16  C   UNL     1      -3.595   2.032  24.103  0.00  0.00    +0.063 A 
ATOM     17  C   UNL     1      -2.924   2.354  24.459  0.00  0.00    +0.034 A 
ATOM     18  C   UNL     1      -2.756   3.157  24.369  0.00  0.00    +0.087 A 
ATOM     19  N   UNL     1      -3.258   3.637  23.924  0.00  0.00    -0.231 NA
ATOM     20  C   UNL     1      -3.928   3.314  23.569  0.00  0.00    +0.139 A 
ATOM     21  C   UNL     1      -4.431   3.793  23.123  0.00  0.00    +0.074 C 
ATOM     22  N   UNL     1      -4.097   2.510  23.658  0.00  0.00    -0.235 NA
BRANCH  18  23
ATOM     23  C   UNL     1      -2.085   3.480  24.725  0.00  0.00    +0.052 A 
ATOM     24  C   UNL     1      -2.152   3.879  25.445  0.00  0.00    +0.140 A 
ATOM     27  C   UNL     1      -1.482   4.203  25.800  0.00  0.00    +0.037 A 
ATOM     28  C   UNL     1      -0.745   4.128  25.437  0.00  0.00    +0.003 A 
ATOM     29  C   UNL     1      -0.679   3.730  24.718  0.00  0.00    +0.000 A 
ATOM     30  C   UNL     1      -1.349   3.405  24.362  0.00  0.00    +0.005 A 
BRANCH  24  25
ATOM     25  O   UNL     1      -2.889   3.954  25.808  0.00  0.00    -0.471 OA
ATOM     26  C   UNL     1      -2.950   4.326  26.543  0.00  0.00    +0.252 C 
ENDBRANCH  24  25
ENDBRANCH  18  23
ENDBRANCH  15  16
BRANCH   8   7
ATOM      7  C   UNL     1      -4.197  -1.336  24.377  0.00  0.00    +0.131 C 
BRANCH   7   6
ATOM      4  C   UNL     1      -3.403  -2.525  24.384  0.00  0.00    +0.272 C 
ATOM      5  O   UNL     1      -3.947  -2.892  23.884  0.00  0.00    -0.271 OA
ATOM      6  N   UNL     1      -3.528  -1.747  24.632  0.00  0.00    -0.202 NA
BRANCH   4   3
ATOM      3  C   UNL     1      -2.734  -2.936  24.639  0.00  0.00    +0.229 C 
BRANCH   3   2
ATOM      1  C   UNL     1      -1.313  -2.786  24.650  0.00  0.00    +0.175 C 
ATOM      2  O   UNL     1      -2.020  -2.853  24.232  0.00  0.00    -0.342 OA
ENDBRANCH   3   2
ENDBRANCH   4   3
ENDBRANCH   7   6
ENDBRANCH   8   7
TORSDOF 7
ENDMDL
MODEL 6
REMARK VINA RESULT:      -8.1      2.862      4.989
REMARK  Name = 
REMARK  7 active torsions:
REMARK  status: ('A' for Active; 'I' for Inactive)
REMARK    1  A    between atoms: O_2  and  C_3
REMARK    2  A    between atoms: C_3  and  C_4
REMARK    3  A    between atoms: N_6  and  C_7
REMARK    4  A    between atoms: C_7  and  C_8
REMARK    5  A    between atoms: C_15  and  C_16
REMARK    6  A    between atoms: C_18  and  C_23
REMARK    7  A    between atoms: C_24  and  O_25
REMARK                            x       y       z     vdW  Elec       q    Type
REMARK                         _______ _______ _______ _____ _____    ______ ____
ROOT
ATOM      8  C   UNL     1      -1.017  -0.515  24.930  0.00  0.00    +0.079 C 
ATOM      9  C   UNL     1      -0.777   0.023  25.437  0.00  0.00    +0.018 C 
ATOM     10  C   UNL     1      -0.889   0.822  25.365  0.00  0.00    +0.010 C 
ATOM     11  C   UNL     1      -0.536   1.272  26.056  0.00  0.00    +0.018 C 
ATOM     12  C   UNL     1      -0.688   0.741  25.707  0.00  0.00    +0.072 C 
ATOM     13  N   UNL     1      -1.127   0.300  24.863  0.00  0.00    -0.272 NA
ATOM     14  C   UNL     1      -1.533   0.811  24.226  0.00  0.00    +0.078 C 
ATOM     15  C   UNL     1      -1.281   1.308  24.748  0.00  0.00    +0.056 C 
ENDROOT
BRANCH  15  16
ATOM     16  C   UNL     1      -1.361   2.129  24.736  0.00  0.00    +0.063 A 
ATOM     17  C   UNL     1      -2.040   2.482  25.044  0.00  0.00    +0.034 A 
ATOM     18  C   UNL     1      -2.119   3.303  25.032  0.00  0.00    +0.087 A 
ATOM     19  N   UNL     1      -1.520   3.771  24.711  0.00  0.00    -0.231 NA
ATOM     20  C   UNL     1      -0.842   3.418  24.402  0.00  0.00    +0.139 A 
ATOM     21  C   UNL     1      -0.242   3.885  24.081  0.00  0.00    +0.074 C 
ATOM     22  N   UNL     1      -0.762   2.596  24.415  0.00  0.00    -0.235 NA
BRANCH  18  23
ATOM     23  C   UNL     1      -2.798   3.657  25.340  0.00  0.00    +0.052 A 
ATOM     24  C   UNL     1      -3.483   3.703  24.882  0.00  0.00    +0.140 A 
ATOM     27  C   UNL     1      -4.161   4.057  25.189  0.00  0.00    +0.037 A 
ATOM     28  C   UNL     1      -4.155   4.364  25.955  0.00  0.00    +0.003 A 
ATOM     29  C   UNL     1      -3.471   4.318  26.412  0.00  0.00    +0.000 A 
ATOM     30  C   UNL     1      -2.792   3.964  26.105  0.00  0.00    +0.005 A 
BRANCH  24  25
ATOM     25  O   UNL     1      -3.489   3.396  24.116  0.00  0.00    -0.471 OA
ATOM     26  C   UNL     1      -4.185   3.412  23.671  0.00  0.00    +0.252 C 
ENDBRANCH  24  25
ENDBRANCH  18  23
ENDBRANCH  15  16
BRANCH   8   7
ATOM      7  C   UNL     1      -1.099  -1.292  24.665  0.00  0.00    +0.131 C 
BRANCH   7   6
ATOM      4  C   UNL     1      -1.937  -2.427  24.433  0.00  0.00    +0.272 C 
ATOM      5  O   UNL     1      -1.380  -2.731  23.906  0.00  0.00    -0.271 OA
ATOM      6  N   UNL     1      -1.797  -1.707  24.812  0.00  0.00    -0.202 NA
BRANCH   4   3
ATOM      3  C   UNL     1      -2.635  -2.841  24.581  0.00  0.00    +0.229 C 
BRANCH   3   2
ATOM      1  C   UNL     1      -4.017  -2.893  24.220  0.00  0.00    +0.175 C 
ATOM      2  O   UNL     1      -3.222  -2.880  24.001  0.00  0.00    -0.342 OA
ENDBRANCH   3   2
ENDBRANCH   4   3
ENDBRANCH   7   6
ENDBRANCH   8   7
TORSDOF 7
ENDMDL
MODEL 7
REMARK VINA RESULT:      -5.7     16.175     18.453
REMARK  Name = 
REMARK  7 active torsions:
REMARK  status: ('A' for Active; 'I' for Inactive)
REMARK    1  A    between atoms: O_2  and  C_3
REMARK    2  A    between atoms: C_3  and  C_4
REMARK    3  A    between atoms: N_6  and  C_7
REMARK    4  A    between atoms: C_7  and  C_8
REMARK    5  A    between atoms: C_15  and  C_16
REMARK    6  A    between atoms: C_18  and  C_23
REMARK    7  A    between atoms: C_24  and  O_25
REMARK                            x       y       z     vdW  Elec       q    Type
REMARK                         _______ _______ _______ _____ _____    ______ ____
ROOT
ATOM      8  C   UNL     1      12.255   7.876  18.910  0.00  0.00    +0.079 C 
ATOM      9  C   UNL     1      12.579   7.354  19.387  0.00  0.00    +0.018 C 
ATOM     10  C   UNL     1      13.373   7.206  19.455  0.00  0.00    +0.010 C 
ATOM     11  C   UNL     1      13.542   6.567  20.061  0.00  0.00    +0.018 C 
ATOM     12  C   UNL     1      13.166   6.967  19.708  0.00  0.00    +0.072 C 
ATOM     13  N   UNL     1      13.062   7.719  18.985  0.00  0.00    -0.272 NA
ATOM     14  C   UNL     1      13.794   8.073  18.571  0.00  0.00    +0.078 C 
ATOM     15  C   UNL     1      14.072   7.551  19.053  0.00  0.00    +0.056 C 
ENDROOT
BRANCH  15  16
ATOM     16  C   UNL     1      14.864   7.352  19.171  0.00  0.00    +0.063 A 
ATOM     17  C   UNL     1      15.301   7.731  19.760  0.00  0.00    +0.034 A 
ATOM     18  C   UNL     1      16.092   7.532  19.877  0.00  0.00    +0.087 A 
ATOM     19  N   UNL     1      16.448   6.955  19.407  0.00  0.00    -0.231 NA
ATOM     20  C   UNL     1      16.011   6.577  18.818  0.00  0.00    +0.139 A 
ATOM     21  C   UNL     1      16.366   6.000  18.347  0.00  0.00    +0.074 C 
ATOM     22  N   UNL     1      15.219   6.776  18.700  0.00  0.00    -0.235 NA
BRANCH  18  23
ATOM     23  C   UNL     1      16.530   7.910  20.466  0.00  0.00    +0.052 A 
ATOM     24  C   UNL     1      16.754   7.496  21.143  0.00  0.00    +0.140 A 
ATOM     27  C   UNL     1      17.191   7.873  21.732  0.00  0.00    +0.037 A 
ATOM     28  C   UNL     1      17.405   8.666  21.643  0.00  0.00    +0.003 A 
ATOM     29  C   UNL     1      17.181   9.079  20.966  0.00  0.00    +0.000 A 
ATOM     30  C   UNL     1      16.744   8.702  20.377  0.00  0.00    +0.005 A 
BRANCH  24  25
ATOM     25  O   UNL     1      16.540   6.704  21.233  0.00  0.00    -0.471 OA
ATOM     26  C   UNL     1      16.779   6.286  21.903  0.00  0.00    +0.252 C 
ENDBRANCH  24  25
ENDBRANCH  18  23
ENDBRANCH  15  16
BRANCH   8   7
ATOM      7  C   UNL     1      11.611   8.274  18.584  0.00  0.00    +0.131 C 
BRANCH   7   6
ATOM      4  C   UNL     1      10.738   8.497  17.473  0.00  0.00    +0.272 C 
ATOM      5  O   UNL     1      10.193   8.860  17.974  0.00  0.00    -0.271 OA
ATOM      6  N   UNL     1      11.448   8.204  17.778  0.00  0.00    -0.202 NA
BRANCH   4   3
ATOM      3  C   UNL     1      10.576   8.427  16.667  0.00  0.00    +0.229 C 
BRANCH   3   2
ATOM      1  C   UNL     1      10.641   8.967  15.346  0.00  0.00    +0.175 C 
ATOM      2  O   UNL     1      10.719   9.063  16.161  0.00  0.00    -0.342 OA
ENDBRANCH   3   2
ENDBRANCH   4   3
ENDBRANCH   7   6
ENDBRANCH   8   7
TORSDOF 7
ENDMDL
MODEL 8
REMARK VINA RESULT:      -5.6     14.271     17.747
REMARK  Name = 
REMARK  7 active torsions:
REMARK  status: ('A' for Active; 'I' for Inactive)
REMARK    1  A    between atoms: O_2  and  C_3
REMARK    2  A    between atoms: C_3  and  C_4
REMARK    3  A    between atoms: N_6  and  C_7
REMARK    4  A    between atoms: C_7  and  C_8
REMARK    5  A    between atoms: C_15  and  C_16
REMARK    6  A    between atoms: C_18  and  C_23
REMARK    7  A    between atoms: C_24  and  O_25
REMARK                            x       y       z     vdW  Elec       q    Type
REMARK                         _______ _______ _______ _____ _____    ______ ____
ROOT
ATOM      8  C   UNL     1      11.481   8.024  20.235  0.00  0.00    +0.079 C 
ATOM      9  C   UNL     1      11.888   8.512  19.787  0.00  0.00    +0.018 C 
ATOM     10  C   UNL     1      12.580   8.336  19.405  0.00  0.00    +0.010 C 
ATOM     11  C   UNL     1      12.892   9.036  18.940  0.00  0.00    +0.018 C 
ATOM     12  C   UNL     1      12.475   8.719  19.329  0.00  0.00    +0.072 C 
ATOM     13  N   UNL     1      12.186   7.852  19.843  0.00  0.00    -0.272 NA
ATOM     14  C   UNL     1      12.692   7.093  19.801  0.00  0.00    +0.078 C 
ATOM     15  C   UNL     1      13.062   7.603  19.370  0.00  0.00    +0.056 C 
ENDROOT
BRANCH  15  16
ATOM     16  C   UNL     1      13.767   7.489  18.956  0.00  0.00    +0.063 A 
ATOM     17  C   UNL     1      14.457   7.292  19.364  0.00  0.00    +0.034 A 
ATOM     18  C   UNL     1      15.161   7.178  18.951  0.00  0.00    +0.087 A 
ATOM     19  N   UNL     1      15.177   7.261  18.130  0.00  0.00    -0.231 NA
ATOM     20  C   UNL     1      14.488   7.458  17.723  0.00  0.00    +0.139 A 
ATOM     21  C   UNL     1      14.502   7.542  16.902  0.00  0.00    +0.074 C 
ATOM     22  N   UNL     1      13.782   7.572  18.136  0.00  0.00    -0.235 NA
BRANCH  18  23
ATOM     23  C   UNL     1      15.852   6.980  19.358  0.00  0.00    +0.052 A 
ATOM     24  C   UNL     1      16.261   7.560  19.780  0.00  0.00    +0.140 A 
ATOM     27  C   UNL     1      16.951   7.363  20.187  0.00  0.00    +0.037 A 
ATOM     28  C   UNL     1      17.232   6.587  20.172  0.00  0.00    +0.003 A 
ATOM     29  C   UNL     1      16.822   6.009  19.750  0.00  0.00    +0.000 A 
ATOM     30  C   UNL     1      16.132   6.205  19.343  0.00  0.00    +0.005 A 
BRANCH  24  25
ATOM     25  O   UNL     1      15.980   8.335  19.795  0.00  0.00    -0.471 OA
ATOM     26  C   UNL     1      16.296   8.877  20.332  0.00  0.00    +0.252 C 
ENDBRANCH  24  25
ENDBRANCH  18  23
ENDBRANCH  15  16
BRANCH   8   7
ATOM      7  C   UNL     1      10.843   7.829  20.721  0.00  0.00    +0.131 C 
BRANCH   7   6
ATOM      4  C   UNL     1      10.291   7.913  22.037  0.00  0.00    +0.272 C 
ATOM      5  O   UNL     1      10.015   7.138  21.971  0.00  0.00    -0.271 OA
ATOM      6  N   UNL     1      10.705   8.259  21.412  0.00  0.00    -0.202 NA
BRANCH   4   3
ATOM      3  C   UNL     1      10.154   8.343  22.728  0.00  0.00    +0.229 C 
BRANCH   3   2
ATOM      1  C   UNL     1      10.889   9.085  23.703  0.00  0.00    +0.175 C 
ATOM      2  O   UNL     1      10.646   8.976  22.923  0.00  0.00    -0.342 OA
ENDBRANCH   3   2
ENDBRANCH   4   3
ENDBRANCH   7   6
ENDBRANCH   8   7
TORSDOF 7
ENDMDL
