MODEL 1
REMARK VINA RESULT:     -11.7      0.000      0.000
REMARK  Name = 
REMARK  5 active torsions:
REMARK  status: ('A' for Active; 'I' for Inactive)
REMARK    1  A    between atoms: C_2  and  C_4
REMARK    2  A    between atoms: N_6  and  C_7
REMARK    3  A    between atoms: C_9  and  C_10
REMARK    4  A    between atoms: C_10  and  C_11
REMARK    5  A    between atoms: C_14  and  C_16
REMARK                            x       y       z     vdW  Elec       q    Type
REMARK                         _______ _______ _______ _____ _____    ______ ____
ROOT
ATOM      7  C   UNL     1      -4.351   1.336  24.922  0.00  0.00    +0.095 C 
ATOM      8  C   UNL     1      -3.700   1.843  24.926  0.00  0.00    +0.022 C 
ATOM      9  C   UNL     1      -4.206   2.491  24.991  0.00  0.00    +0.009 C 
ATOM     20  C   UNL     1      -4.856   1.983  24.987  0.00  0.00    +0.019 C 
ATOM     21  C   UNL     1      -5.501   2.495  25.050  0.00  0.00    +0.002 C 
ATOM     22  C   UNL     1      -5.608   1.642  24.999  0.00  0.00    +0.002 C 
ENDROOT
BRANCH   7   6
ATOM      4  C   UNL     1      -3.800   0.027  24.763  0.00  0.00    +0.241 C 
ATOM      5  O   UNL     1      -3.044   0.352  24.700  0.00  0.00    -0.273 OA
ATOM      6  N   UNL     1      -4.453   0.517  24.874  0.00  0.00    -0.207 NA
BRANCH   4   2
ATOM      1  C   UNL     1      -3.726  -1.267  25.364  0.00  0.00    +0.010 C 
ATOM      2  C   UNL     1      -3.902  -0.791  24.714  0.00  0.00    +0.078 C 
ATOM      3  C   UNL     1      -4.180  -1.130  24.016  0.00  0.00    +0.010 C 
ENDBRANCH   4   2
ENDBRANCH   7   6
BRANCH   9  10
ATOM     10  C   UNL     1      -4.104   3.308  25.039  0.00  0.00    +0.049 C 
BRANCH  10  11
ATOM     11  C   UNL     1      -3.397   3.619  25.330  0.00  0.00    +0.100 A 
ATOM     12  N   UNL     1      -3.167   3.642  26.122  0.00  0.00    -0.082 NA
ATOM     13  O   UNL     1      -2.424   3.999  26.161  0.00  0.00    -0.358 OA
ATOM     14  C   UNL     1      -2.195   4.196  25.393  0.00  0.00    +0.153 A 
ATOM     15  C   UNL     1      -2.797   3.961  24.880  0.00  0.00    +0.054 A 
BRANCH  14  16
ATOM     16  C   UNL     1      -1.489   4.563  25.177  0.00  0.00    +0.054 C 
ATOM     17  C   UNL     1      -0.783   4.931  24.960  0.00  0.00    +0.008 C 
ATOM     18  C   UNL     1      -1.099   3.838  25.218  0.00  0.00    +0.008 C 
ATOM     19  C   UNL     1      -1.879   5.289  25.136  0.00  0.00    +0.008 C 
ENDBRANCH  14  16
ENDBRANCH  10  11
ENDBRANCH   9  10
TORSDOF 5
ENDMDL
MODEL 2
REMARK VINA RESULT:     -11.6      1.004      4.592
REMARK  Name = 
REMARK  5 active torsions:
REMARK  status: ('A' for Active; 'I' for Inactive)
REMARK    1  A    between atoms: C_2  and  C_4
REMARK    2  A    between atoms: N_6  and  C_7
REMARK    3  A    between atoms: C_9  and  C_10
REMARK    4  A    between atoms: C_10  and  C_11
REMARK    5  A    between atoms: C_14  and  C_16
REMARK                            x       y       z     vdW  Elec       q    Type
REMARK                         _______ _______ _______ _____ _____    ______ ____
ROOT
ATOM      7  C   UNL     1      -3.479   2.347  24.858  0.00  0.00    +0.095 C 
ATOM      8  C   UNL     1      -3.336   1.535  24.868  0.00  0.00    +0.022 C 
ATOM      9  C   UNL     1      -4.139   1.393  24.741  0.00  0.00    +0.009 C 
ATOM     20  C   UNL     1      -4.282   2.205  24.732  0.00  0.00    +0.019 C 
ATOM     21  C   UNL     1      -5.096   2.257  24.606  0.00  0.00    +0.002 C 
ATOM     22  C   UNL     1      -4.608   2.962  24.693  0.00  0.00    +0.002 C 
ENDROOT
BRANCH   7   6
ATOM      4  C   UNL     1      -2.213   2.951  25.130  0.00  0.00    +0.241 C 
ATOM      5  O   UNL     1      -1.879   2.204  25.235  0.00  0.00    -0.273 OA
ATOM      6  N   UNL     1      -3.012   3.023  24.942  0.00  0.00    -0.207 NA
BRANCH   4   2
ATOM      1  C   UNL     1      -1.060   3.711  24.763  0.00  0.00    +0.010 C 
ATOM      2  C   UNL     1      -1.746   3.626  25.213  0.00  0.00    +0.078 C 
ATOM      3  C   UNL     1      -1.966   4.215  25.746  0.00  0.00    +0.010 C 
ENDBRANCH   4   2
ENDBRANCH   7   6
BRANCH   9  10
ATOM     10  C   UNL     1      -4.606   0.718  24.657  0.00  0.00    +0.049 C 
BRANCH  10  11
ATOM     11  C   UNL     1      -4.304  -0.022  24.867  0.00  0.00    +0.100 A 
ATOM     12  N   UNL     1      -4.066  -0.251  25.623  0.00  0.00    -0.082 NA
ATOM     13  O   UNL     1      -3.802  -1.031  25.581  0.00  0.00    -0.358 OA
ATOM     14  C   UNL     1      -3.877  -1.284  24.799  0.00  0.00    +0.153 A 
ATOM     15  C   UNL     1      -4.187  -0.659  24.358  0.00  0.00    +0.054 A 
BRANCH  14  16
ATOM     16  C   UNL     1      -3.677  -2.029  24.509  0.00  0.00    +0.054 C 
ATOM     17  C   UNL     1      -3.476  -2.776  24.219  0.00  0.00    +0.008 C 
ATOM     18  C   UNL     1      -4.210  -1.932  23.888  0.00  0.00    +0.008 C 
ATOM     19  C   UNL     1      -3.143  -2.128  25.130  0.00  0.00    +0.008 C 
ENDBRANCH  14  16
ENDBRANCH  10  11
ENDBRANCH   9  10
TORSDOF 5
ENDMDL
MODEL 3
REMARK VINA RESULT:     -10.7      1.966      3.390
REMARK  Name = 
REMARK  5 active torsions:
REMARK  status: ('A' for Active; 'I' for Inactive)
REMARK    1  A    between atoms: C_2  and  C_4
REMARK    2  A    between atoms: N_6  and  C_7
REMARK    3  A    between atoms: C_9  and  C_10
REMARK    4  A    between atoms: C_10  and  C_11
REMARK    5  A    between atoms: C_14  and  C_16
REMARK                            x       y       z     vdW  Elec       q    Type
REMARK                         _______ _______ _______ _____ _____    ______ ____
ROOT
ATOM      7  C   UNL     1      -2.803  -0.743  24.632  0.00  0.00    +0.095 C 
ATOM      8  C   UNL     1      -3.049   0.025  24.805  0.00  0.00    +0.022 C 
ATOM      9  C   UNL     1      -3.827  -0.186  24.632  0.00  0.00    +0.009 C 
ATOM     20  C   UNL     1      -3.581  -0.954  24.458  0.00  0.00    +0.019 C 
ATOM     21  C   UNL     1      -4.280  -1.339  24.249  0.00  0.00    +0.002 C 
ATOM     22  C   UNL     1      -3.523  -1.750  24.249  0.00  0.00    +0.002 C 
ENDROOT
BRANCH   7   6
ATOM      4  C   UNL     1      -1.387  -0.731  24.829  0.00  0.00    +0.241 C 
ATOM      5  O   UNL     1      -1.422   0.070  25.027  0.00  0.00    -0.273 OA
ATOM      6  N   UNL     1      -2.077  -1.137  24.631  0.00  0.00    -0.207 NA
BRANCH   4   2
ATOM      1  C   UNL     1      -0.109  -0.969  24.236  0.00  0.00    +0.010 C 
ATOM      2  C   UNL     1      -0.662  -1.124  24.829  0.00  0.00    +0.078 C 
ATOM      3  C   UNL     1      -0.491  -1.672  25.420  0.00  0.00    +0.010 C 
ENDBRANCH   4   2
ENDBRANCH   7   6
BRANCH   9  10
ATOM     10  C   UNL     1      -4.552   0.207  24.632  0.00  0.00    +0.049 C 
BRANCH  10  11
ATOM     11  C   UNL     1      -4.574   1.032  24.609  0.00  0.00    +0.100 A 
ATOM     12  N   UNL     1      -4.251   1.509  24.019  0.00  0.00    -0.082 NA
ATOM     13  O   UNL     1      -4.400   2.296  24.217  0.00  0.00    -0.358 OA
ATOM     14  C   UNL     1      -4.816   2.305  24.930  0.00  0.00    +0.153 A 
ATOM     15  C   UNL     1      -4.923   1.524  25.172  0.00  0.00    +0.054 A 
BRANCH  14  16
ATOM     16  C   UNL     1      -5.078   2.977  25.330  0.00  0.00    +0.054 C 
ATOM     17  C   UNL     1      -5.340   3.649  25.730  0.00  0.00    +0.008 C 
ATOM     18  C   UNL     1      -4.366   3.357  25.158  0.00  0.00    +0.008 C 
ATOM     19  C   UNL     1      -5.790   2.597  25.501  0.00  0.00    +0.008 C 
ENDBRANCH  14  16
ENDBRANCH  10  11
ENDBRANCH   9  10
TORSDOF 5
ENDMDL
MODEL 4
REMARK VINA RESULT:     -10.3      1.917      2.784
REMARK  Name = 
REMARK  5 active torsions:
REMARK  status: ('A' for Active; 'I' for Inactive)
REMARK    1  A    between atoms: C_2  and  C_4
REMARK    2  A    between atoms: N_6  and  C_7
REMARK    3  A    between atoms: C_9  and  C_10
REMARK    4  A    between atoms: C_10  and  C_11
REMARK    5  A    between atoms: C_14  and  C_16
REMARK                            x       y       z     vdW  Elec       q    Type
REMARK                         _______ _______ _______ _____ _____    ______ ____
ROOT
ATOM      7  C   UNL     1      -1.721  -0.060  24.700  0.00  0.00    +0.095 C 
ATOM      8  C   UNL     1      -1.804   0.728  24.929  0.00  0.00    +0.022 C 
ATOM      9  C   UNL     1      -1.012   0.864  24.744  0.00  0.00    +0.009 C 
ATOM     20  C   UNL     1      -0.929   0.077  24.515  0.00  0.00    +0.019 C 
ATOM     21  C   UNL     1      -0.139   0.025  24.282  0.00  0.00    +0.002 C 
ATOM     22  C   UNL     1      -0.663  -0.658  24.249  0.00  0.00    +0.002 C 
ENDROOT
BRANCH   7   6
ATOM      4  C   UNL     1      -3.027  -0.626  24.831  0.00  0.00    +0.241 C 
ATOM      5  O   UNL     1      -3.330   0.117  25.023  0.00  0.00    -0.273 OA
ATOM      6  N   UNL     1      -2.223  -0.715  24.669  0.00  0.00    -0.207 NA
BRANCH   4   2
ATOM      1  C   UNL     1      -3.987  -1.416  24.127  0.00  0.00    +0.010 C 
ATOM      2  C   UNL     1      -3.529  -1.280  24.799  0.00  0.00    +0.078 C 
ATOM      3  C   UNL     1      -3.571  -1.797  25.440  0.00  0.00    +0.010 C 
ENDBRANCH   4   2
ENDBRANCH   7   6
BRANCH   9  10
ATOM     10  C   UNL     1      -0.510   1.519  24.775  0.00  0.00    +0.049 C 
BRANCH  10  11
ATOM     11  C   UNL     1      -0.746   2.201  25.176  0.00  0.00    +0.100 A 
ATOM     12  N   UNL     1      -0.765   2.299  25.995  0.00  0.00    -0.082 NA
ATOM     13  O   UNL     1      -1.034   3.063  26.153  0.00  0.00    -0.358 OA
ATOM     14  C   UNL     1      -1.181   3.436  25.432  0.00  0.00    +0.153 A 
ATOM     15  C   UNL     1      -1.002   2.903  24.829  0.00  0.00    +0.054 A 
BRANCH  14  16
ATOM     16  C   UNL     1      -1.457   4.206  25.333  0.00  0.00    +0.054 C 
ATOM     17  C   UNL     1      -1.734   4.978  25.233  0.00  0.00    +0.008 C 
ATOM     18  C   UNL     1      -2.163   4.003  25.708  0.00  0.00    +0.008 C 
ATOM     19  C   UNL     1      -0.752   4.411  24.957  0.00  0.00    +0.008 C 
ENDBRANCH  14  16
ENDBRANCH  10  11
ENDBRANCH   9  10
TORSDOF 5
ENDMDL
MODEL 5
REMARK VINA RESULT:     -10.2      1.912      2.915
REMARK  Name = 
REMARK  5 active torsions:
REMARK  status: ('A' for Active; 'I' for Inactive)
REMARK    1  A    between atoms: C_2  and  C_4
REMARK    2  A    between atoms: N_6  and  C_7
REMARK    3  A    between atoms: C_9  and  C_10
REMARK    4  A    between atoms: C_10  and  C_11
REMARK    5  A    between atoms: C_14  and  C_16
REMARK                            x       y       z     vdW  Elec       q    Type
REMARK                         _______ _______ _______ _____ _____    ______ ____
ROOT
ATOM      7  C   UNL     1      -2.802  -0.386  24.583  0.00  0.00    +0.095 C 
ATOM      8  C   UNL     1      -3.321   0.243  24.457  0.00  0.00    +0.022 C 
ATOM      9  C   UNL     1      -2.707   0.776  24.595  0.00  0.00    +0.009 C 
ATOM     20  C   UNL     1      -2.188   0.147  24.721  0.00  0.00    +0.019 C 
ATOM     21  C   UNL     1      -1.470   0.519  24.885  0.00  0.00    +0.002 C 
ATOM     22  C   UNL     1      -1.541  -0.341  24.876  0.00  0.00    +0.002 C 
ENDROOT
BRANCH   7   6
ATOM      4  C   UNL     1      -3.604  -1.561  24.443  0.00  0.00    +0.241 C 
ATOM      5  O   UNL     1      -4.271  -1.092  24.320  0.00  0.00    -0.273 OA
ATOM      6  N   UNL     1      -2.870  -1.209  24.574  0.00  0.00    -0.207 NA
BRANCH   4   2
ATOM      1  C   UNL     1      -3.402  -2.826  25.077  0.00  0.00    +0.010 C 
ATOM      2  C   UNL     1      -3.671  -2.383  24.434  0.00  0.00    +0.078 C 
ATOM      3  C   UNL     1      -4.008  -2.762  23.784  0.00  0.00    +0.010 C 
ENDBRANCH   4   2
ENDBRANCH   7   6
BRANCH   9  10
ATOM     10  C   UNL     1      -2.639   1.598  24.604  0.00  0.00    +0.049 C 
BRANCH  10  11
ATOM     11  C   UNL     1      -3.313   2.069  24.530  0.00  0.00    +0.100 A 
ATOM     12  N   UNL     1      -3.691   2.266  23.824  0.00  0.00    -0.082 NA
ATOM     13  O   UNL     1      -4.339   2.743  24.006  0.00  0.00    -0.358 OA
ATOM     14  C   UNL     1      -4.361   2.841  24.826  0.00  0.00    +0.153 A 
ATOM     15  C   UNL     1      -3.727   2.423  25.149  0.00  0.00    +0.054 A 
BRANCH  14  16
ATOM     16  C   UNL     1      -4.919   3.278  25.247  0.00  0.00    +0.054 C 
ATOM     17  C   UNL     1      -5.477   3.716  25.669  0.00  0.00    +0.008 C 
ATOM     18  C   UNL     1      -5.477   2.682  25.128  0.00  0.00    +0.008 C 
ATOM     19  C   UNL     1      -4.361   3.874  25.366  0.00  0.00    +0.008 C 
ENDBRANCH  14  16
ENDBRANCH  10  11
ENDBRANCH   9  10
TORSDOF 5
ENDMDL
