MODEL 1
REMARK VINA RESULT:      -7.4      0.000      0.000
REMARK  Name = 
REMARK  5 active torsions:
REMARK  status: ('A' for Active; 'I' for Inactive)
REMARK    1  A    between atoms: C_2  and  N_4
REMARK    2  A    between atoms: N_7  and  C_8
REMARK    3  A    between atoms: C_8  and  C_9
REMARK    4  A    between atoms: C_12  and  N_13
REMARK    5  A    between atoms: N_13  and  C_14
REMARK                            x       y       z     vdW  Elec       q    Type
REMARK                         _______ _______ _______ _____ _____    ______ ____
ROOT
ATOM      9  C   UNL     1      -3.368   1.395  24.592  0.00  0.00    +0.169 C 
ATOM     10  O   UNL     1      -2.551   1.499  24.641  0.00  0.00    -0.350 OA
ATOM     11  C   UNL     1      -2.399   2.309  24.689  0.00  0.00    +0.162 C 
ATOM     12  C   UNL     1      -3.123   2.705  24.670  0.00  0.00    +0.135 C 
ATOM     18  C   UNL     1      -3.721   2.140  24.611  0.00  0.00    +0.199 C 
ATOM     19  O   UNL     1      -4.531   2.294  24.575  0.00  0.00    -0.219 OA
ENDROOT
BRANCH   9   8
ATOM      8  C   UNL     1      -3.762   0.673  24.536  0.00  0.00    +0.149 C 
BRANCH   8   7
ATOM      4  N   UNL     1      -3.282  -1.435  24.234  0.00  0.00    -0.189 NA
ATOM      5  C   UNL     1      -3.701  -0.751  24.427  0.00  0.00    +0.339 C 
ATOM      6  O   UNL     1      -4.477  -0.805  24.702  0.00  0.00    -0.249 OA
ATOM      7  N   UNL     1      -3.344  -0.011  24.343  0.00  0.00    -0.185 NA
BRANCH   4   2
ATOM      1  C   UNL     1      -4.167  -2.444  23.743  0.00  0.00    +0.023 C 
ATOM      2  C   UNL     1      -3.640  -2.174  24.317  0.00  0.00    +0.097 C 
ATOM      3  C   UNL     1      -3.470  -2.643  24.975  0.00  0.00    +0.023 C 
ENDBRANCH   4   2
ENDBRANCH   8   7
ENDBRANCH   9   8
BRANCH  12  13
ATOM     13  N   UNL     1      -3.229   3.523  24.705  0.00  0.00    -0.211 NA
BRANCH  13  14
ATOM     14  C   UNL     1      -2.708   3.987  25.145  0.00  0.00    +0.132 C 
ATOM     15  C   UNL     1      -2.669   4.232  25.932  0.00  0.00    +0.162 C 
ATOM     16  O   UNL     1      -1.971   4.643  25.769  0.00  0.00    -0.351 OA
ATOM     17  C   UNL     1      -2.011   4.397  24.983  0.00  0.00    +0.162 C 
ENDBRANCH  13  14
ENDBRANCH  12  13
TORSDOF 5
ENDMDL
MODEL 2
REMARK VINA RESULT:      -7.3      1.114      4.918
REMARK  Name = 
REMARK  5 active torsions:
REMARK  status: ('A' for Active; 'I' for Inactive)
REMARK    1  A    between atoms: C_2  and  N_4
REMARK    2  A    between atoms: N_7  and  C_8
REMARK    3  A    between atoms: C_8  and  C_9
REMARK    4  A    between atoms: C_12  and  N_13
REMARK    5  A    between atoms: N_13  and  C_14
REMARK                            x       y       z     vdW  Elec       q    Type
REMARK                         _______ _______ _______ _____ _____    ______ ____
ROOT
ATOM      9  C   UNL     1      -3.122   0.932  24.585  0.00  0.00    +0.169 C 
ATOM     10  O   UNL     1      -2.500   0.392  24.556  0.00  0.00    -0.350 OA
ATOM     11  C   UNL     1      -2.821  -0.368  24.563  0.00  0.00    +0.162 C 
ATOM     12  C   UNL     1      -3.642  -0.296  24.597  0.00  0.00    +0.135 C 
ATOM     18  C   UNL     1      -3.828   0.508  24.611  0.00  0.00    +0.199 C 
ATOM     19  O   UNL     1      -4.587   0.829  24.645  0.00  0.00    -0.219 OA
ENDROOT
BRANCH   9   8
ATOM      8  C   UNL     1      -3.051   1.755  24.589  0.00  0.00    +0.149 C 
BRANCH   8   7
ATOM      4  N   UNL     1      -1.695   3.286  25.349  0.00  0.00    -0.189 NA
ATOM      5  C   UNL     1      -2.315   2.929  24.940  0.00  0.00    +0.339 C 
ATOM      6  O   UNL     1      -2.820   3.385  24.474  0.00  0.00    -0.249 OA
ATOM      7  N   UNL     1      -2.430   2.113  24.998  0.00  0.00    -0.185 NA
BRANCH   4   2
ATOM      1  C   UNL     1      -2.122   4.620  25.636  0.00  0.00    +0.023 C 
ATOM      2  C   UNL     1      -1.579   4.102  25.292  0.00  0.00    +0.097 C 
ATOM      3  C   UNL     1      -0.922   4.399  24.892  0.00  0.00    +0.023 C 
ENDBRANCH   4   2
ENDBRANCH   8   7
ENDBRANCH   9   8
BRANCH  12  13
ATOM     13  N   UNL     1      -4.183  -0.920  24.615  0.00  0.00    -0.211 NA
BRANCH  13  14
ATOM     14  C   UNL     1      -3.920  -1.695  24.516  0.00  0.00    +0.132 C 
ATOM     15  C   UNL     1      -3.933  -2.241  23.897  0.00  0.00    +0.162 C 
ATOM     16  O   UNL     1      -3.548  -2.793  24.375  0.00  0.00    -0.351 OA
ATOM     17  C   UNL     1      -3.536  -2.247  24.994  0.00  0.00    +0.162 C 
ENDBRANCH  13  14
ENDBRANCH  12  13
TORSDOF 5
ENDMDL
MODEL 3
REMARK VINA RESULT:      -7.0     16.858     18.609
REMARK  Name = 
REMARK  5 active torsions:
REMARK  status: ('A' for Active; 'I' for Inactive)
REMARK    1  A    between atoms: C_2  and  N_4
REMARK    2  A    between atoms: N_7  and  C_8
REMARK    3  A    between atoms: C_8  and  C_9
REMARK    4  A    between atoms: C_12  and  N_13
REMARK    5  A    between atoms: N_13  and  C_14
REMARK                            x       y       z     vdW  Elec       q    Type
REMARK                         _______ _______ _______ _____ _____    ______ ____
ROOT
ATOM      9  C   UNL     1      13.389   6.982  20.207  0.00  0.00    +0.169 C 
ATOM     10  O   UNL     1      13.386   7.099  21.023  0.00  0.00    -0.350 OA
ATOM     11  C   UNL     1      12.600   7.157  21.269  0.00  0.00    +0.162 C 
ATOM     12  C   UNL     1      12.119   7.075  20.604  0.00  0.00    +0.135 C 
ATOM     18  C   UNL     1      12.607   6.967  19.947  0.00  0.00    +0.199 C 
ATOM     19  O   UNL     1      12.355   6.862  19.168  0.00  0.00    -0.219 OA
ENDROOT
BRANCH   9   8
ATOM      8  C   UNL     1      14.059   6.894  19.732  0.00  0.00    +0.149 C 
BRANCH   8   7
ATOM      4  N   UNL     1      16.117   6.197  19.937  0.00  0.00    -0.189 NA
ATOM      5  C   UNL     1      15.451   6.585  19.643  0.00  0.00    +0.339 C 
ATOM      6  O   UNL     1      15.512   7.052  18.966  0.00  0.00    -0.249 OA
ATOM      7  N   UNL     1      14.724   6.506  20.026  0.00  0.00    -0.185 NA
BRANCH   4   2
ATOM      1  C   UNL     1      17.009   5.821  18.886  0.00  0.00    +0.023 C 
ATOM      2  C   UNL     1      16.844   6.276  19.553  0.00  0.00    +0.097 C 
ATOM      3  C   UNL     1      17.404   6.810  19.838  0.00  0.00    +0.023 C 
ENDBRANCH   4   2
ENDBRANCH   8   7
ENDBRANCH   9   8
BRANCH  12  13
ATOM     13  N   UNL     1      11.294   7.098  20.597  0.00  0.00    -0.211 NA
BRANCH  13  14
ATOM     14  C   UNL     1      10.885   7.403  21.245  0.00  0.00    +0.132 C 
ATOM     15  C   UNL     1      10.588   7.087  21.948  0.00  0.00    +0.162 C 
ATOM     16  O   UNL     1      10.307   7.833  22.163  0.00  0.00    -0.351 OA
ATOM     17  C   UNL     1      10.604   8.148  21.461  0.00  0.00    +0.162 C 
ENDBRANCH  13  14
ENDBRANCH  12  13
TORSDOF 5
ENDMDL
MODEL 4
REMARK VINA RESULT:      -6.3     16.877     18.604
REMARK  Name = 
REMARK  5 active torsions:
REMARK  status: ('A' for Active; 'I' for Inactive)
REMARK    1  A    between atoms: C_2  and  N_4
REMARK    2  A    between atoms: N_7  and  C_8
REMARK    3  A    between atoms: C_8  and  C_9
REMARK    4  A    between atoms: C_12  and  N_13
REMARK    5  A    between atoms: N_13  and  C_14
REMARK                            x       y       z     vdW  Elec       q    Type
REMARK                         _______ _______ _______ _____ _____    ______ ____
ROOT
ATOM      9  C   UNL     1      13.117   7.519  18.655  0.00  0.00    +0.169 C 
ATOM     10  O   UNL     1      12.734   7.231  17.984  0.00  0.00    -0.350 OA
ATOM     11  C   UNL     1      13.068   7.597  17.323  0.00  0.00    +0.162 C 
ATOM     12  C   UNL     1      13.657   8.110  17.588  0.00  0.00    +0.135 C 
ATOM     18  C   UNL     1      13.687   8.062  18.411  0.00  0.00    +0.199 C 
ATOM     19  O   UNL     1      14.199   8.484  18.902  0.00  0.00    -0.219 OA
ENDROOT
BRANCH   9   8
ATOM      8  C   UNL     1      12.957   7.302  19.435  0.00  0.00    +0.149 C 
BRANCH   8   7
ATOM      4  N   UNL     1      11.269   6.645  20.651  0.00  0.00    -0.189 NA
ATOM      5  C   UNL     1      12.031   6.875  20.436  0.00  0.00    +0.339 C 
ATOM      6  O   UNL     1      12.629   6.906  21.003  0.00  0.00    -0.249 OA
ATOM      7  N   UNL     1      12.195   7.073  19.651  0.00  0.00    -0.185 NA
BRANCH   4   2
ATOM      1  C   UNL     1      10.861   7.031  21.966  0.00  0.00    +0.023 C 
ATOM      2  C   UNL     1      11.104   6.447  21.436  0.00  0.00    +0.097 C 
ATOM      3  C   UNL     1      11.184   5.666  21.690  0.00  0.00    +0.023 C 
ENDBRANCH   4   2
ENDBRANCH   8   7
ENDBRANCH   9   8
BRANCH  12  13
ATOM     13  N   UNL     1      14.133   8.588  17.111  0.00  0.00    -0.211 NA
BRANCH  13  14
ATOM     14  C   UNL     1      13.933   8.710  16.320  0.00  0.00    +0.132 C 
ATOM     15  C   UNL     1      14.267   8.499  15.595  0.00  0.00    +0.162 C 
ATOM     16  O   UNL     1      13.651   8.881  15.201  0.00  0.00    -0.351 OA
ATOM     17  C   UNL     1      13.317   9.091  15.925  0.00  0.00    +0.162 C 
ENDBRANCH  13  14
ENDBRANCH  12  13
TORSDOF 5
ENDMDL
MODEL 5
REMARK VINA RESULT:      -6.3     17.104     18.893
REMARK  Name = 
REMARK  5 active torsions:
REMARK  status: ('A' for Active; 'I' for Inactive)
REMARK    1  A    between atoms: C_2  and  N_4
REMARK    2  A    between atoms: N_7  and  C_8
REMARK    3  A    between atoms: C_8  and  C_9
REMARK    4  A    between atoms: C_12  and  N_13
REMARK    5  A    between atoms: N_13  and  C_14
REMARK                            x       y       z     vdW  Elec       q    Type
REMARK                         _______ _______ _______ _____ _____    ______ ____
ROOT
ATOM      9  C   UNL     1      13.802   6.885  20.132  0.00  0.00    +0.169 C 
ATOM     10  O   UNL     1      14.317   6.555  20.684  0.00  0.00    -0.350 OA
ATOM     11  C   UNL     1      15.062   6.493  20.334  0.00  0.00    +0.162 C 
ATOM     12  C   UNL     1      15.006   6.786  19.565  0.00  0.00    +0.135 C 
ATOM     18  C   UNL     1      14.227   7.028  19.440  0.00  0.00    +0.199 C 
ATOM     19  O   UNL     1      13.927   7.356  18.744  0.00  0.00    -0.219 OA
ENDROOT
BRANCH   9   8
ATOM      8  C   UNL     1      13.001   7.045  20.251  0.00  0.00    +0.149 C 
BRANCH   8   7
ATOM      4  N   UNL     1      11.651   7.589  21.877  0.00  0.00    -0.189 NA
ATOM      5  C   UNL     1      11.927   7.406  21.122  0.00  0.00    +0.339 C 
ATOM      6  O   UNL     1      11.406   7.400  20.482  0.00  0.00    -0.249 OA
ATOM      7  N   UNL     1      12.725   7.228  21.006  0.00  0.00    -0.185 NA
BRANCH   4   2
ATOM      1  C   UNL     1      10.611   8.552  22.057  0.00  0.00    +0.023 C 
ATOM      2  C   UNL     1      10.853   7.766  21.993  0.00  0.00    +0.097 C 
ATOM      3  C   UNL     1      10.298   7.158  22.044  0.00  0.00    +0.023 C 
ENDBRANCH   4   2
ENDBRANCH   8   7
ENDBRANCH   9   8
BRANCH  12  13
ATOM     13  N   UNL     1      15.621   6.828  19.016  0.00  0.00    -0.211 NA
BRANCH  13  14
ATOM     14  C   UNL     1      16.360   6.511  19.201  0.00  0.00    +0.132 C 
ATOM     15  C   UNL     1      16.974   6.722  19.711  0.00  0.00    +0.162 C 
ATOM     16  O   UNL     1      17.405   6.062  19.463  0.00  0.00    -0.351 OA
ATOM     17  C   UNL     1      16.791   5.852  18.954  0.00  0.00    +0.162 C 
ENDBRANCH  13  14
ENDBRANCH  12  13
TORSDOF 5
ENDMDL
MODEL 6
REMARK VINA RESULT:      -6.0     17.738     19.351
REMARK  Name = 
REMARK  5 active torsions:
REMARK  status: ('A' for Active; 'I' for Inactive)
REMARK    1  A    between atoms: C_2  and  N_4
REMARK    2  A    between atoms: N_7  and  C_8
REMARK    3  A    between atoms: C_8  and  C_9
REMARK    4  A    between atoms: C_12  and  N_13
REMARK    5  A    between atoms: N_13  and  C_14
REMARK                            x       y       z     vdW  Elec       q    Type
REMARK                         _______ _______ _______ _____ _____    ______ ____
ROOT
ATOM      9  C   UNL     1      13.316   7.658  18.374  0.00  0.00    +0.169 C 
ATOM     10  O   UNL     1      13.521   8.165  17.757  0.00  0.00    -0.350 OA
ATOM     11  C   UNL     1      12.825   8.477  17.441  0.00  0.00    +0.162 C 
ATOM     12  C   UNL     1      12.191   8.161  17.863  0.00  0.00    +0.135 C 
ATOM     18  C   UNL     1      12.494   7.655  18.440  0.00  0.00    +0.199 C 
ATOM     19  O   UNL     1      12.052   7.222  18.986  0.00  0.00    -0.219 OA
ENDROOT
BRANCH   9   8
ATOM      8  C   UNL     1      13.841   7.227  18.844  0.00  0.00    +0.149 C 
BRANCH   8   7
ATOM      4  N   UNL     1      15.978   7.154  19.280  0.00  0.00    -0.189 NA
ATOM      5  C   UNL     1      15.178   6.955  19.269  0.00  0.00    +0.339 C 
ATOM      6  O   UNL     1      14.913   6.285  19.671  0.00  0.00    -0.249 OA
ATOM      7  N   UNL     1      14.641   7.427  18.855  0.00  0.00    -0.185 NA
BRANCH   4   2
ATOM      1  C   UNL     1      16.670   6.837  20.489  0.00  0.00    +0.023 C 
ATOM      2  C   UNL     1      16.515   6.683  19.694  0.00  0.00    +0.097 C 
ATOM      3  C   UNL     1      16.895   6.058  19.313  0.00  0.00    +0.023 C 
ENDBRANCH   4   2
ENDBRANCH   8   7
ENDBRANCH   9   8
BRANCH  12  13
ATOM     13  N   UNL     1      11.392   8.323  17.731  0.00  0.00    -0.211 NA
BRANCH  13  14
ATOM     14  C   UNL     1      11.136   8.546  16.979  0.00  0.00    +0.132 C 
ATOM     15  C   UNL     1      10.523   8.310  16.479  0.00  0.00    +0.162 C 
ATOM     16  O   UNL     1      10.773   8.859  15.915  0.00  0.00    -0.351 OA
ATOM     17  C   UNL     1      11.386   9.093  16.415  0.00  0.00    +0.162 C 
ENDBRANCH  13  14
ENDBRANCH  12  13
TORSDOF 5
ENDMDL
MODEL 7
REMARK VINA RESULT:      -5.9     17.867     19.561
REMARK  Name = 
REMARK  5 active torsions:
REMARK  status: ('A' for Active; 'I' for Inactive)
REMARK    1  A    between atoms: C_2  and  N_4
REMARK    2  A    between atoms: N_7  and  C_8
REMARK    3  A    between atoms: C_8  and  C_9
REMARK    4  A    between atoms: C_12  and  N_13
REMARK    5  A    between atoms: N_13  and  C_14
REMARK                            x       y       z     vdW  Elec       q    Type
REMARK                         _______ _______ _______ _____ _____    ______ ____
ROOT
ATOM      9  C   UNL     1      13.727   7.450  18.584  0.00  0.00    +0.169 C 
ATOM     10  O   UNL     1      14.398   7.814  18.273  0.00  0.00    -0.350 OA
ATOM     11  C   UNL     1      15.050   7.563  18.712  0.00  0.00    +0.162 C 
ATOM     12  C   UNL     1      14.781   7.043  19.293  0.00  0.00    +0.135 C 
ATOM     18  C   UNL     1      13.962   6.973  19.214  0.00  0.00    +0.199 C 
ATOM     19  O   UNL     1      13.468   6.508  19.683  0.00  0.00    -0.219 OA
ENDROOT
BRANCH   9   8
ATOM      8  C   UNL     1      12.953   7.545  18.311  0.00  0.00    +0.149 C 
BRANCH   8   7
ATOM      4  N   UNL     1      11.848   8.882  16.986  0.00  0.00    -0.189 NA
ATOM      5  C   UNL     1      12.048   8.218  17.434  0.00  0.00    +0.339 C 
ATOM      6  O   UNL     1      11.544   7.565  17.452  0.00  0.00    -0.249 OA
ATOM      7  N   UNL     1      12.753   8.209  17.863  0.00  0.00    -0.185 NA
BRANCH   4   2
ATOM      1  C   UNL     1      11.152   9.094  15.756  0.00  0.00    +0.023 C 
ATOM      2  C   UNL     1      11.143   8.892  16.556  0.00  0.00    +0.097 C 
ATOM      3  C   UNL     1      10.431   8.700  16.926  0.00  0.00    +0.023 C 
ENDBRANCH   4   2
ENDBRANCH   8   7
ENDBRANCH   9   8
BRANCH  12  13
ATOM     13  N   UNL     1      15.248   6.660  19.855  0.00  0.00    -0.211 NA
BRANCH  13  14
ATOM     14  C   UNL     1      16.070   6.669  19.782  0.00  0.00    +0.132 C 
ATOM     15  C   UNL     1      16.673   7.167  20.046  0.00  0.00    +0.162 C 
ATOM     16  O   UNL     1      17.232   6.683  19.680  0.00  0.00    -0.351 OA
ATOM     17  C   UNL     1      16.629   6.186  19.417  0.00  0.00    +0.162 C 
ENDBRANCH  13  14
ENDBRANCH  12  13
TORSDOF 5
ENDMDL
MODEL 8
REMARK VINA RESULT:      -5.8     16.220     18.164
REMARK  Name = 
REMARK  5 active torsions:
REMARK  status: ('A' for Active; 'I' for Inactive)
REMARK    1  A    between atoms: C_2  and  N_4
REMARK    2  A    between atoms: N_7  and  C_8
REMARK    3  A    between atoms: C_8  and  C_9
REMARK    4  A    between atoms: C_12  and  N_13
REMARK    5  A    between atoms: N_13  and  C_14
REMARK                            x       y       z     vdW  Elec       q    Type
REMARK                         _______ _______ _______ _____ _____    ______ ____
ROOT
ATOM      9  C   UNL     1      12.288   7.797  19.400  0.00  0.00    +0.169 C 
ATOM     10  O   UNL     1      12.177   8.514  19.790  0.00  0.00    -0.350 OA
ATOM     11  C   UNL     1      11.928   8.351  20.559  0.00  0.00    +0.162 C 
ATOM     12  C   UNL     1      11.885   7.531  20.643  0.00  0.00    +0.135 C 
ATOM     18  C   UNL     1      12.108   7.189  19.927  0.00  0.00    +0.199 C 
ATOM     19  O   UNL     1      12.144   6.380  19.766  0.00  0.00    -0.219 OA
ENDROOT
BRANCH   9   8
ATOM      8  C   UNL     1      12.537   7.702  18.618  0.00  0.00    +0.149 C 
BRANCH   8   7
ATOM      4  N   UNL     1      13.488   8.873  17.040  0.00  0.00    -0.189 NA
ATOM      5  C   UNL     1      13.109   8.252  17.429  0.00  0.00    +0.339 C 
ATOM      6  O   UNL     1      12.921   7.561  17.019  0.00  0.00    -0.249 OA
ATOM      7  N   UNL     1      12.916   8.323  18.229  0.00  0.00    -0.185 NA
BRANCH   4   2
ATOM      1  C   UNL     1      13.165   9.094  15.666  0.00  0.00    +0.023 C 
ATOM      2  C   UNL     1      13.680   8.802  16.240  0.00  0.00    +0.097 C 
ATOM      3  C   UNL     1      14.386   8.439  16.016  0.00  0.00    +0.023 C 
ENDBRANCH   4   2
ENDBRANCH   8   7
ENDBRANCH   9   8
BRANCH  12  13
ATOM     13  N   UNL     1      11.659   7.125  21.326  0.00  0.00    -0.211 NA
BRANCH  13  14
ATOM     14  C   UNL     1      11.090   7.450  21.828  0.00  0.00    +0.132 C 
ATOM     15  C   UNL     1      10.296   7.292  21.988  0.00  0.00    +0.162 C 
ATOM     16  O   UNL     1      10.286   7.908  22.539  0.00  0.00    -0.351 OA
ATOM     17  C   UNL     1      11.079   8.064  22.378  0.00  0.00    +0.162 C 
ENDBRANCH  13  14
ENDBRANCH  12  13
TORSDOF 5
ENDMDL
