MODEL 1
REMARK VINA RESULT:     -10.8      0.000      0.000
REMARK  Name = 
REMARK  5 active torsions:
REMARK  status: ('A' for Active; 'I' for Inactive)
REMARK    1  A    between atoms: C_5  and  N_8
REMARK    2  A    between atoms: C_11  and  C_13
REMARK    3  A    between atoms: C_16  and  C_17
REMARK    4  A    between atoms: C_17  and  O_18
REMARK    5  A    between atoms: O_18  and  C_19
REMARK                            x       y       z     vdW  Elec       q    Type
REMARK                         _______ _______ _______ _____ _____    ______ ____
ROOT
ATOM     13  C   UNL     1      -4.402   2.119  25.135  0.00  0.00    +0.227 A 
ATOM     14  N   UNL     1      -5.204   2.081  24.942  0.00  0.00    -0.112 NA
ATOM     15  N   UNL     1      -5.399   1.290  24.818  0.00  0.00    -0.108 NA
ATOM     16  C   UNL     1      -4.718   0.837  24.933  0.00  0.00    +0.270 A 
ATOM     26  O   UNL     1      -4.102   1.350  25.129  0.00  0.00    -0.420 OA
ENDROOT
BRANCH  13  11
ATOM      8  N   UNL     1      -3.006   3.722  25.332  0.00  0.00    -0.273 NA
ATOM      9  C   UNL     1      -3.633   3.998  25.792  0.00  0.00    +0.073 C 
ATOM     10  C   UNL     1      -4.232   3.431  25.775  0.00  0.00    +0.028 C 
ATOM     11  C   UNL     1      -3.976   2.804  25.303  0.00  0.00    +0.095 C 
ATOM     12  C   UNL     1      -3.218   2.984  25.029  0.00  0.00    +0.081 C 
BRANCH   8   5
ATOM      1  C   UNL     1      -0.154   5.292  24.794  0.00  0.00    +0.090 C 
ATOM      2  N   UNL     1      -0.867   4.899  24.928  0.00  0.00    -0.271 NA
ATOM      3  C   UNL     1      -1.552   5.330  25.087  0.00  0.00    +0.074 C 
ATOM      4  C   UNL     1      -2.265   4.938  25.222  0.00  0.00    +0.033 C 
ATOM      5  C   UNL     1      -2.293   4.115  25.198  0.00  0.00    +0.060 C 
ATOM      6  C   UNL     1      -1.609   3.682  25.039  0.00  0.00    +0.033 C 
ATOM      7  C   UNL     1      -0.896   4.074  24.904  0.00  0.00    +0.074 C 
ENDBRANCH   8   5
ENDBRANCH  13  11
BRANCH  16  17
ATOM     17  C   UNL     1      -4.664   0.017  24.865  0.00  0.00    +0.291 C 
BRANCH  17  18
ATOM     18  O   UNL     1      -4.036  -0.322  24.450  0.00  0.00    -0.465 OA
BRANCH  18  19
ATOM     19  C   UNL     1      -3.938  -1.140  24.449  0.00  0.00    +0.139 A 
ATOM     20  C   UNL     1      -4.244  -1.591  23.829  0.00  0.00    +0.039 A 
ATOM     21  C   UNL     1      -4.146  -2.409  23.827  0.00  0.00    +0.033 A 
ATOM     22  C   UNL     1      -3.741  -2.779  24.444  0.00  0.00    +0.140 A 
ATOM     23  F   UNL     1      -3.643  -3.597  24.442  0.00  0.00    -0.204 F 
ATOM     24  C   UNL     1      -3.435  -2.328  25.064  0.00  0.00    +0.033 A 
ATOM     25  C   UNL     1      -3.533  -1.508  25.066  0.00  0.00    +0.039 A 
ENDBRANCH  18  19
ENDBRANCH  17  18
ENDBRANCH  16  17
TORSDOF 5
ENDMDL
MODEL 2
REMARK VINA RESULT:     -10.6      2.275      5.704
REMARK  Name = 
REMARK  5 active torsions:
REMARK  status: ('A' for Active; 'I' for Inactive)
REMARK    1  A    between atoms: C_5  and  N_8
REMARK    2  A    between atoms: C_11  and  C_13
REMARK    3  A    between atoms: C_16  and  C_17
REMARK    4  A    between atoms: C_17  and  O_18
REMARK    5  A    between atoms: O_18  and  C_19
REMARK                            x       y       z     vdW  Elec       q    Type
REMARK                         _______ _______ _______ _____ _____    ______ ____
ROOT
ATOM     13  C   UNL     1      -4.547   2.090  25.211  0.00  0.00    +0.227 A 
ATOM     14  N   UNL     1      -5.064   2.600  25.605  0.00  0.00    -0.112 NA
ATOM     15  N   UNL     1      -4.697   3.335  25.669  0.00  0.00    -0.108 NA
ATOM     16  C   UNL     1      -3.954   3.282  25.317  0.00  0.00    +0.270 A 
ATOM     26  O   UNL     1      -3.861   2.512  25.033  0.00  0.00    -0.420 OA
ENDROOT
BRANCH  13  11
ATOM      8  N   UNL     1      -4.517  -0.008  24.819  0.00  0.00    -0.273 NA
ATOM      9  C   UNL     1      -5.310   0.170  24.676  0.00  0.00    +0.073 C 
ATOM     10  C   UNL     1      -5.418   0.978  24.805  0.00  0.00    +0.028 C 
ATOM     11  C   UNL     1      -4.692   1.299  25.029  0.00  0.00    +0.095 C 
ATOM     12  C   UNL     1      -4.135   0.690  25.037  0.00  0.00    +0.081 C 
BRANCH   8   5
ATOM      1  C   UNL     1      -3.120  -2.987  24.565  0.00  0.00    +0.090 C 
ATOM      2  N   UNL     1      -3.469  -2.242  24.628  0.00  0.00    -0.271 NA
ATOM      3  C   UNL     1      -3.906  -1.936  23.999  0.00  0.00    +0.074 C 
ATOM      4  C   UNL     1      -4.255  -1.191  24.063  0.00  0.00    +0.033 C 
ATOM      5  C   UNL     1      -4.168  -0.753  24.755  0.00  0.00    +0.060 C 
ATOM      6  C   UNL     1      -3.731  -1.058  25.385  0.00  0.00    +0.033 C 
ATOM      7  C   UNL     1      -3.382  -1.803  25.322  0.00  0.00    +0.074 C 
ENDBRANCH   8   5
ENDBRANCH  13  11
BRANCH  16  17
ATOM     17  C   UNL     1      -3.400   3.890  25.257  0.00  0.00    +0.291 C 
BRANCH  17  18
ATOM     18  O   UNL     1      -2.688   3.842  25.671  0.00  0.00    -0.465 OA
BRANCH  18  19
ATOM     19  C   UNL     1      -2.028   4.259  25.404  0.00  0.00    +0.139 A 
ATOM     20  C   UNL     1      -2.069   5.077  25.308  0.00  0.00    +0.039 A 
ATOM     21  C   UNL     1      -1.410   5.494  25.041  0.00  0.00    +0.033 A 
ATOM     22  C   UNL     1      -0.708   5.094  24.870  0.00  0.00    +0.140 A 
ATOM     23  F   UNL     1      -0.049   5.511  24.604  0.00  0.00    -0.204 F 
ATOM     24  C   UNL     1      -0.668   4.275  24.967  0.00  0.00    +0.033 A 
ATOM     25  C   UNL     1      -1.328   3.858  25.234  0.00  0.00    +0.039 A 
ENDBRANCH  18  19
ENDBRANCH  17  18
ENDBRANCH  16  17
TORSDOF 5
ENDMDL
MODEL 3
REMARK VINA RESULT:     -10.5      2.004      2.626
REMARK  Name = 
REMARK  5 active torsions:
REMARK  status: ('A' for Active; 'I' for Inactive)
REMARK    1  A    between atoms: C_5  and  N_8
REMARK    2  A    between atoms: C_11  and  C_13
REMARK    3  A    between atoms: C_16  and  C_17
REMARK    4  A    between atoms: C_17  and  O_18
REMARK    5  A    between atoms: O_18  and  C_19
REMARK                            x       y       z     vdW  Elec       q    Type
REMARK                         _______ _______ _______ _____ _____    ______ ____
ROOT
ATOM     13  C   UNL     1      -0.742   0.730  25.091  0.00  0.00    +0.227 A 
ATOM     14  N   UNL     1      -0.165   0.311  24.676  0.00  0.00    -0.112 NA
ATOM     15  N   UNL     1      -0.467  -0.437  24.507  0.00  0.00    -0.108 NA
ATOM     16  C   UNL     1      -1.230  -0.482  24.817  0.00  0.00    +0.270 A 
ATOM     26  O   UNL     1      -1.400   0.240  25.179  0.00  0.00    -0.420 OA
ENDROOT
BRANCH  13  11
ATOM      8  N   UNL     1      -0.828   2.823  25.508  0.00  0.00    -0.273 NA
ATOM      9  C   UNL     1      -0.303   2.566  26.090  0.00  0.00    +0.073 C 
ATOM     10  C   UNL     1      -0.207   1.750  26.005  0.00  0.00    +0.028 C 
ATOM     11  C   UNL     1      -0.672   1.503  25.370  0.00  0.00    +0.095 C 
ATOM     12  C   UNL     1      -1.057   2.166  25.063  0.00  0.00    +0.081 C 
BRANCH   8   5
ATOM      1  C   UNL     1      -1.838   5.929  25.040  0.00  0.00    +0.090 C 
ATOM      2  N   UNL     1      -1.586   5.152  25.157  0.00  0.00    -0.271 NA
ATOM      3  C   UNL     1      -2.077   4.612  25.540  0.00  0.00    +0.074 C 
ATOM      4  C   UNL     1      -1.824   3.835  25.657  0.00  0.00    +0.033 C 
ATOM      5  C   UNL     1      -1.081   3.599  25.391  0.00  0.00    +0.060 C 
ATOM      6  C   UNL     1      -0.589   4.139  25.007  0.00  0.00    +0.033 C 
ATOM      7  C   UNL     1      -0.841   4.916  24.890  0.00  0.00    +0.074 C 
ENDBRANCH   8   5
ENDBRANCH  13  11
BRANCH  16  17
ATOM     17  C   UNL     1      -1.734  -1.133  24.774  0.00  0.00    +0.291 C 
BRANCH  17  18
ATOM     18  O   UNL     1      -2.532  -1.051  24.967  0.00  0.00    -0.465 OA
BRANCH  18  19
ATOM     19  C   UNL     1      -3.090  -1.558  24.634  0.00  0.00    +0.139 A 
ATOM     20  C   UNL     1      -3.713  -1.249  24.190  0.00  0.00    +0.039 A 
ATOM     21  C   UNL     1      -4.272  -1.755  23.856  0.00  0.00    +0.033 A 
ATOM     22  C   UNL     1      -4.209  -2.571  23.966  0.00  0.00    +0.140 A 
ATOM     23  F   UNL     1      -4.768  -3.076  23.633  0.00  0.00    -0.204 F 
ATOM     24  C   UNL     1      -3.586  -2.879  24.411  0.00  0.00    +0.033 A 
ATOM     25  C   UNL     1      -3.027  -2.372  24.745  0.00  0.00    +0.039 A 
ENDBRANCH  18  19
ENDBRANCH  17  18
ENDBRANCH  16  17
TORSDOF 5
ENDMDL
MODEL 4
REMARK VINA RESULT:      -9.8      2.945      6.355
REMARK  Name = 
REMARK  5 active torsions:
REMARK  status: ('A' for Active; 'I' for Inactive)
REMARK    1  A    between atoms: C_5  and  N_8
REMARK    2  A    between atoms: C_11  and  C_13
REMARK    3  A    between atoms: C_16  and  C_17
REMARK    4  A    between atoms: C_17  and  O_18
REMARK    5  A    between atoms: O_18  and  C_19
REMARK                            x       y       z     vdW  Elec       q    Type
REMARK                         _______ _______ _______ _____ _____    ______ ____
ROOT
ATOM     13  C   UNL     1      -0.976   0.460  25.149  0.00  0.00    +0.227 A 
ATOM     14  N   UNL     1      -0.188   0.506  24.910  0.00  0.00    -0.112 NA
ATOM     15  N   UNL     1       0.036   1.299  24.921  0.00  0.00    -0.108 NA
ATOM     16  C   UNL     1      -0.613   1.745  25.166  0.00  0.00    +0.270 A 
ATOM     26  O   UNL     1      -1.239   1.226  25.308  0.00  0.00    -0.420 OA
ENDROOT
BRANCH  13  11
ATOM      8  N   UNL     1      -2.324  -1.187  24.984  0.00  0.00    -0.273 NA
ATOM      9  C   UNL     1      -1.899  -1.396  25.660  0.00  0.00    +0.073 C 
ATOM     10  C   UNL     1      -1.342  -0.804  25.804  0.00  0.00    +0.028 C 
ATOM     11  C   UNL     1      -1.423  -0.229  25.217  0.00  0.00    +0.095 C 
ATOM     12  C   UNL     1      -2.030  -0.466  24.711  0.00  0.00    +0.081 C 
BRANCH   8   5
ATOM      1  C   UNL     1      -4.770  -2.930  23.617  0.00  0.00    +0.090 C 
ATOM      2  N   UNL     1      -4.158  -2.494  23.959  0.00  0.00    -0.271 NA
ATOM      3  C   UNL     1      -4.182  -1.670  23.946  0.00  0.00    +0.074 C 
ATOM      4  C   UNL     1      -3.570  -1.234  24.288  0.00  0.00    +0.033 C 
ATOM      5  C   UNL     1      -2.935  -1.623  24.642  0.00  0.00    +0.060 C 
ATOM      6  C   UNL     1      -2.911  -2.448  24.656  0.00  0.00    +0.033 C 
ATOM      7  C   UNL     1      -3.523  -2.883  24.314  0.00  0.00    +0.074 C 
ENDBRANCH   8   5
ENDBRANCH  13  11
BRANCH  16  17
ATOM     17  C   UNL     1      -0.633   2.564  25.255  0.00  0.00    +0.291 C 
BRANCH  17  18
ATOM     18  O   UNL     1      -0.999   3.033  24.684  0.00  0.00    -0.465 OA
BRANCH  18  19
ATOM     19  C   UNL     1      -1.150   3.829  24.839  0.00  0.00    +0.139 A 
ATOM     20  C   UNL     1      -1.859   4.052  25.197  0.00  0.00    +0.039 A 
ATOM     21  C   UNL     1      -2.010   4.847  25.352  0.00  0.00    +0.033 A 
ATOM     22  C   UNL     1      -1.453   5.421  25.149  0.00  0.00    +0.140 A 
ATOM     23  F   UNL     1      -1.604   6.217  25.304  0.00  0.00    -0.204 F 
ATOM     24  C   UNL     1      -0.744   5.198  24.790  0.00  0.00    +0.033 A 
ATOM     25  C   UNL     1      -0.592   4.402  24.635  0.00  0.00    +0.039 A 
ENDBRANCH  18  19
ENDBRANCH  17  18
ENDBRANCH  16  17
TORSDOF 5
ENDMDL
MODEL 5
REMARK VINA RESULT:      -8.7      2.975      4.455
REMARK  Name = 
REMARK  5 active torsions:
REMARK  status: ('A' for Active; 'I' for Inactive)
REMARK    1  A    between atoms: C_5  and  N_8
REMARK    2  A    between atoms: C_11  and  C_13
REMARK    3  A    between atoms: C_16  and  C_17
REMARK    4  A    between atoms: C_17  and  O_18
REMARK    5  A    between atoms: O_18  and  C_19
REMARK                            x       y       z     vdW  Elec       q    Type
REMARK                         _______ _______ _______ _____ _____    ______ ____
ROOT
ATOM     13  C   UNL     1      -1.566   3.280  25.417  0.00  0.00    +0.227 A 
ATOM     14  N   UNL     1      -1.554   4.099  25.512  0.00  0.00    -0.112 NA
ATOM     15  N   UNL     1      -2.330   4.354  25.621  0.00  0.00    -0.108 NA
ATOM     16  C   UNL     1      -2.823   3.693  25.594  0.00  0.00    +0.270 A 
ATOM     26  O   UNL     1      -2.350   3.029  25.468  0.00  0.00    -0.420 OA
ENDROOT
BRANCH  13  11
ATOM      8  N   UNL     1      -0.065   1.915  24.752  0.00  0.00    -0.273 NA
ATOM      9  C   UNL     1       0.269   2.190  25.454  0.00  0.00    +0.073 C 
ATOM     10  C   UNL     1      -0.252   2.735  25.789  0.00  0.00    +0.028 C 
ATOM     11  C   UNL     1      -0.909   2.796  25.294  0.00  0.00    +0.095 C 
ATOM     12  C   UNL     1      -0.793   2.290  24.653  0.00  0.00    +0.081 C 
BRANCH   8   5
ATOM      1  C   UNL     1       1.274  -0.296  22.701  0.00  0.00    +0.090 C 
ATOM      2  N   UNL     1       0.940   0.256  23.214  0.00  0.00    -0.271 NA
ATOM      3  C   UNL     1       0.205   0.108  23.559  0.00  0.00    +0.074 C 
ATOM      4  C   UNL     1      -0.130   0.661  24.072  0.00  0.00    +0.033 C 
ATOM      5  C   UNL     1       0.270   1.362  24.240  0.00  0.00    +0.060 C 
ATOM      6  C   UNL     1       1.005   1.512  23.895  0.00  0.00    +0.033 C 
ATOM      7  C   UNL     1       1.340   0.959  23.383  0.00  0.00    +0.074 C 
ENDBRANCH   8   5
ENDBRANCH  13  11
BRANCH  16  17
ATOM     17  C   UNL     1      -3.643   3.696  25.678  0.00  0.00    +0.291 C 
BRANCH  17  18
ATOM     18  O   UNL     1      -4.125   3.523  25.031  0.00  0.00    -0.465 OA
BRANCH  18  19
ATOM     19  C   UNL     1      -4.795   3.054  25.131  0.00  0.00    +0.139 A 
ATOM     20  C   UNL     1      -5.327   3.218  25.739  0.00  0.00    +0.039 A 
ATOM     21  C   UNL     1      -5.998   2.748  25.839  0.00  0.00    +0.033 A 
ATOM     22  C   UNL     1      -6.137   2.113  25.330  0.00  0.00    +0.140 A 
ATOM     23  F   UNL     1      -6.807   1.644  25.430  0.00  0.00    -0.204 F 
ATOM     24  C   UNL     1      -5.605   1.949  24.722  0.00  0.00    +0.033 A 
ATOM     25  C   UNL     1      -4.934   2.419  24.622  0.00  0.00    +0.039 A 
ENDBRANCH  18  19
ENDBRANCH  17  18
ENDBRANCH  16  17
TORSDOF 5
ENDMDL
MODEL 6
REMARK VINA RESULT:      -8.6      1.879      2.959
REMARK  Name = 
REMARK  5 active torsions:
REMARK  status: ('A' for Active; 'I' for Inactive)
REMARK    1  A    between atoms: C_5  and  N_8
REMARK    2  A    between atoms: C_11  and  C_13
REMARK    3  A    between atoms: C_16  and  C_17
REMARK    4  A    between atoms: C_17  and  O_18
REMARK    5  A    between atoms: O_18  and  C_19
REMARK                            x       y       z     vdW  Elec       q    Type
REMARK                         _______ _______ _______ _____ _____    ______ ____
ROOT
ATOM     13  C   UNL     1      -1.210   1.224  24.728  0.00  0.00    +0.227 A 
ATOM     14  N   UNL     1      -0.398   1.106  24.644  0.00  0.00    -0.112 NA
ATOM     15  N   UNL     1      -0.265   0.296  24.568  0.00  0.00    -0.108 NA
ATOM     16  C   UNL     1      -0.995  -0.088  24.604  0.00  0.00    +0.270 A 
ATOM     26  O   UNL     1      -1.579   0.487  24.703  0.00  0.00    -0.420 OA
ENDROOT
BRANCH  13  11
ATOM      8  N   UNL     1      -2.530   2.880  25.004  0.00  0.00    -0.273 NA
ATOM      9  C   UNL     1      -1.806   3.265  24.921  0.00  0.00    +0.073 C 
ATOM     10  C   UNL     1      -1.223   2.692  24.807  0.00  0.00    +0.028 C 
ATOM     11  C   UNL     1      -1.587   1.952  24.820  0.00  0.00    +0.095 C 
ATOM     12  C   UNL     1      -2.395   2.068  24.942  0.00  0.00    +0.081 C 
BRANCH   8   5
ATOM      1  C   UNL     1      -5.453   4.328  25.500  0.00  0.00    +0.090 C 
ATOM      2  N   UNL     1      -4.723   3.966  25.376  0.00  0.00    -0.271 NA
ATOM      3  C   UNL     1      -4.576   3.561  24.672  0.00  0.00    +0.074 C 
ATOM      4  C   UNL     1      -3.845   3.199  24.549  0.00  0.00    +0.033 C 
ATOM      5  C   UNL     1      -3.261   3.242  25.128  0.00  0.00    +0.060 C 
ATOM      6  C   UNL     1      -3.406   3.647  25.832  0.00  0.00    +0.033 C 
ATOM      7  C   UNL     1      -4.137   4.009  25.956  0.00  0.00    +0.074 C 
ENDBRANCH   8   5
ENDBRANCH  13  11
BRANCH  16  17
ATOM     17  C   UNL     1      -1.118  -0.901  24.550  0.00  0.00    +0.291 C 
BRANCH  17  18
ATOM     18  O   UNL     1      -1.540  -1.294  25.140  0.00  0.00    -0.465 OA
BRANCH  18  19
ATOM     19  C   UNL     1      -2.120  -1.843  24.935  0.00  0.00    +0.139 A 
ATOM     20  C   UNL     1      -2.877  -1.783  25.259  0.00  0.00    +0.039 A 
ATOM     21  C   UNL     1      -3.458  -2.332  25.054  0.00  0.00    +0.033 A 
ATOM     22  C   UNL     1      -3.283  -2.941  24.526  0.00  0.00    +0.140 A 
ATOM     23  F   UNL     1      -3.863  -3.490  24.322  0.00  0.00    -0.204 F 
ATOM     24  C   UNL     1      -2.526  -3.001  24.203  0.00  0.00    +0.033 A 
ATOM     25  C   UNL     1      -1.945  -2.452  24.408  0.00  0.00    +0.039 A 
ENDBRANCH  18  19
ENDBRANCH  17  18
ENDBRANCH  16  17
TORSDOF 5
ENDMDL
MODEL 7
REMARK VINA RESULT:      -8.5      3.353      4.715
REMARK  Name = 
REMARK  5 active torsions:
REMARK  status: ('A' for Active; 'I' for Inactive)
REMARK    1  A    between atoms: C_5  and  N_8
REMARK    2  A    between atoms: C_11  and  C_13
REMARK    3  A    between atoms: C_16  and  C_17
REMARK    4  A    between atoms: C_17  and  O_18
REMARK    5  A    between atoms: O_18  and  C_19
REMARK                            x       y       z     vdW  Elec       q    Type
REMARK                         _______ _______ _______ _____ _____    ______ ____
ROOT
ATOM     13  C   UNL     1      -2.696  -0.454  24.745  0.00  0.00    +0.227 A 
ATOM     14  N   UNL     1      -3.282  -1.024  24.632  0.00  0.00    -0.112 NA
ATOM     15  N   UNL     1      -4.013  -0.667  24.767  0.00  0.00    -0.108 NA
ATOM     16  C   UNL     1      -3.880   0.123  24.962  0.00  0.00    +0.270 A 
ATOM     26  O   UNL     1      -3.066   0.255  24.948  0.00  0.00    -0.420 OA
ENDROOT
BRANCH  13  11
ATOM      8  N   UNL     1      -0.615  -0.452  24.266  0.00  0.00    -0.273 NA
ATOM      9  C   UNL     1      -0.650  -1.056  24.826  0.00  0.00    +0.073 C 
ATOM     10  C   UNL     1      -1.433  -1.130  25.074  0.00  0.00    +0.028 C 
ATOM     11  C   UNL     1      -1.884  -0.572  24.667  0.00  0.00    +0.095 C 
ATOM     12  C   UNL     1      -1.378  -0.152  24.167  0.00  0.00    +0.081 C 
BRANCH   8   5
ATOM      1  C   UNL     1       2.095   0.586  22.695  0.00  0.00    +0.090 C 
ATOM      2  N   UNL     1       1.417   0.327  23.088  0.00  0.00    -0.271 NA
ATOM      3  C   UNL     1       1.035   0.823  23.624  0.00  0.00    +0.074 C 
ATOM      4  C   UNL     1       0.357   0.564  24.017  0.00  0.00    +0.033 C 
ATOM      5  C   UNL     1       0.062  -0.193  23.873  0.00  0.00    +0.060 C 
ATOM      6  C   UNL     1       0.444  -0.690  23.337  0.00  0.00    +0.033 C 
ATOM      7  C   UNL     1       1.121  -0.431  22.944  0.00  0.00    +0.074 C 
ENDBRANCH   8   5
ENDBRANCH  13  11
BRANCH  16  17
ATOM     17  C   UNL     1      -4.459   0.683  25.140  0.00  0.00    +0.291 C 
BRANCH  17  18
ATOM     18  O   UNL     1      -4.585   1.322  24.633  0.00  0.00    -0.465 OA
BRANCH  18  19
ATOM     19  C   UNL     1      -4.918   2.018  24.923  0.00  0.00    +0.139 A 
ATOM     20  C   UNL     1      -4.545   2.742  24.788  0.00  0.00    +0.039 A 
ATOM     21  C   UNL     1      -4.877   3.438  25.078  0.00  0.00    +0.033 A 
ATOM     22  C   UNL     1      -5.584   3.412  25.504  0.00  0.00    +0.140 A 
ATOM     23  F   UNL     1      -5.917   4.109  25.794  0.00  0.00    -0.204 F 
ATOM     24  C   UNL     1      -5.957   2.689  25.639  0.00  0.00    +0.033 A 
ATOM     25  C   UNL     1      -5.624   1.992  25.349  0.00  0.00    +0.039 A 
ENDBRANCH  18  19
ENDBRANCH  17  18
ENDBRANCH  16  17
TORSDOF 5
ENDMDL
MODEL 8
REMARK VINA RESULT:      -8.5      3.463      4.805
REMARK  Name = 
REMARK  5 active torsions:
REMARK  status: ('A' for Active; 'I' for Inactive)
REMARK    1  A    between atoms: C_5  and  N_8
REMARK    2  A    between atoms: C_11  and  C_13
REMARK    3  A    between atoms: C_16  and  C_17
REMARK    4  A    between atoms: C_17  and  O_18
REMARK    5  A    between atoms: O_18  and  C_19
REMARK                            x       y       z     vdW  Elec       q    Type
REMARK                         _______ _______ _______ _____ _____    ______ ____
ROOT
ATOM     13  C   UNL     1      -2.290  -0.435  24.638  0.00  0.00    +0.227 A 
ATOM     14  N   UNL     1      -2.092  -1.204  24.861  0.00  0.00    -0.112 NA
ATOM     15  N   UNL     1      -1.292  -1.318  24.698  0.00  0.00    -0.108 NA
ATOM     16  C   UNL     1      -0.994  -0.620  24.375  0.00  0.00    +0.270 A 
ATOM     26  O   UNL     1      -1.611  -0.073  24.338  0.00  0.00    -0.420 OA
ENDROOT
BRANCH  13  11
ATOM      8  N   UNL     1      -4.006   0.809  24.894  0.00  0.00    -0.273 NA
ATOM      9  C   UNL     1      -4.359   0.084  24.720  0.00  0.00    +0.073 C 
ATOM     10  C   UNL     1      -3.759  -0.471  24.603  0.00  0.00    +0.028 C 
ATOM     11  C   UNL     1      -3.035  -0.088  24.705  0.00  0.00    +0.095 C 
ATOM     12  C   UNL     1      -3.188   0.703  24.884  0.00  0.00    +0.081 C 
BRANCH   8   5
ATOM      1  C   UNL     1      -5.588   3.637  25.517  0.00  0.00    +0.090 C 
ATOM      2  N   UNL     1      -5.193   2.930  25.361  0.00  0.00    -0.271 NA
ATOM      3  C   UNL     1      -5.588   2.210  25.440  0.00  0.00    +0.074 C 
ATOM      4  C   UNL     1      -5.192   1.503  25.284  0.00  0.00    +0.033 C 
ATOM      5  C   UNL     1      -4.402   1.516  25.049  0.00  0.00    +0.060 C 
ATOM      6  C   UNL     1      -4.006   2.236  24.970  0.00  0.00    +0.033 C 
ATOM      7  C   UNL     1      -4.401   2.943  25.126  0.00  0.00    +0.074 C 
ENDBRANCH   8   5
ENDBRANCH  13  11
BRANCH  16  17
ATOM     17  C   UNL     1      -0.217  -0.490  24.132  0.00  0.00    +0.291 C 
BRANCH  17  18
ATOM     18  O   UNL     1      -0.059   0.035  23.516  0.00  0.00    -0.465 OA
BRANCH  18  19
ATOM     19  C   UNL     1       0.717   0.155  23.266  0.00  0.00    +0.139 A 
ATOM     20  C   UNL     1       1.163   0.770  23.587  0.00  0.00    +0.039 A 
ATOM     21  C   UNL     1       1.940   0.891  23.338  0.00  0.00    +0.033 A 
ATOM     22  C   UNL     1       2.272   0.396  22.766  0.00  0.00    +0.140 A 
ATOM     23  F   UNL     1       3.048   0.517  22.516  0.00  0.00    -0.204 F 
ATOM     24  C   UNL     1       1.826  -0.219  22.444  0.00  0.00    +0.033 A 
ATOM     25  C   UNL     1       1.048  -0.340  22.694  0.00  0.00    +0.039 A 
ENDBRANCH  18  19
ENDBRANCH  17  18
ENDBRANCH  16  17
TORSDOF 5
ENDMDL
MODEL 9
REMARK VINA RESULT:      -8.1      3.103      4.738
REMARK  Name = 
REMARK  5 active torsions:
REMARK  status: ('A' for Active; 'I' for Inactive)
REMARK    1  A    between atoms: C_5  and  N_8
REMARK    2  A    between atoms: C_11  and  C_13
REMARK    3  A    between atoms: C_16  and  C_17
REMARK    4  A    between atoms: C_17  and  O_18
REMARK    5  A    between atoms: O_18  and  C_19
REMARK                            x       y       z     vdW  Elec       q    Type
REMARK                         _______ _______ _______ _____ _____    ______ ____
ROOT
ATOM     13  C   UNL     1      -1.297   2.859  25.248  0.00  0.00    +0.227 A 
ATOM     14  N   UNL     1      -0.715   2.976  25.822  0.00  0.00    -0.112 NA
ATOM     15  N   UNL     1      -0.010   2.659  25.536  0.00  0.00    -0.108 NA
ATOM     16  C   UNL     1      -0.154   2.346  24.787  0.00  0.00    +0.270 A 
ATOM     26  O   UNL     1      -0.951   2.469  24.609  0.00  0.00    -0.420 OA
ENDROOT
BRANCH  13  11
ATOM      8  N   UNL     1      -3.422   3.063  25.304  0.00  0.00    -0.273 NA
ATOM      9  C   UNL     1      -3.183   3.833  25.479  0.00  0.00    +0.073 C 
ATOM     10  C   UNL     1      -2.358   3.851  25.479  0.00  0.00    +0.028 C 
ATOM     11  C   UNL     1      -2.086   3.091  25.305  0.00  0.00    +0.095 C 
ATOM     12  C   UNL     1      -2.744   2.604  25.197  0.00  0.00    +0.081 C 
BRANCH   8   5
ATOM      1  C   UNL     1      -6.538   2.002  25.076  0.00  0.00    +0.090 C 
ATOM      2  N   UNL     1      -5.759   2.268  25.133  0.00  0.00    -0.271 NA
ATOM      3  C   UNL     1      -5.158   1.875  24.726  0.00  0.00    +0.074 C 
ATOM      4  C   UNL     1      -4.379   2.140  24.783  0.00  0.00    +0.033 C 
ATOM      5  C   UNL     1      -4.201   2.798  25.247  0.00  0.00    +0.060 C 
ATOM      6  C   UNL     1      -4.801   3.191  25.655  0.00  0.00    +0.033 C 
ATOM      7  C   UNL     1      -5.580   2.926  25.598  0.00  0.00    +0.074 C 
ENDBRANCH   8   5
ENDBRANCH  13  11
BRANCH  16  17
ATOM     17  C   UNL     1       0.399   1.974  24.302  0.00  0.00    +0.291 C 
BRANCH  17  18
ATOM     18  O   UNL     1       0.441   1.150  24.278  0.00  0.00    -0.465 OA
BRANCH  18  19
ATOM     19  C   UNL     1       0.887   0.777  23.695  0.00  0.00    +0.139 A 
ATOM     20  C   UNL     1       1.671   1.001  23.569  0.00  0.00    +0.039 A 
ATOM     21  C   UNL     1       2.119   0.628  22.985  0.00  0.00    +0.033 A 
ATOM     22  C   UNL     1       1.782   0.030  22.526  0.00  0.00    +0.140 A 
ATOM     23  F   UNL     1       2.230  -0.342  21.942  0.00  0.00    -0.204 F 
ATOM     24  C   UNL     1       0.998  -0.194  22.652  0.00  0.00    +0.033 A 
ATOM     25  C   UNL     1       0.551   0.180  23.236  0.00  0.00    +0.039 A 
ENDBRANCH  18  19
ENDBRANCH  17  18
ENDBRANCH  16  17
TORSDOF 5
ENDMDL
MODEL 10
REMARK VINA RESULT:      -7.7     14.866     17.063
REMARK  Name = 
REMARK  5 active torsions:
REMARK  status: ('A' for Active; 'I' for Inactive)
REMARK    1  A    between atoms: C_5  and  N_8
REMARK    2  A    between atoms: C_11  and  C_13
REMARK    3  A    between atoms: C_16  and  C_17
REMARK    4  A    between atoms: C_17  and  O_18
REMARK    5  A    between atoms: O_18  and  C_19
REMARK                            x       y       z     vdW  Elec       q    Type
REMARK                         _______ _______ _______ _____ _____    ______ ____
ROOT
ATOM     13  C   UNL     1      -2.563 -10.516  13.572  0.00  0.00    +0.227 A 
ATOM     14  N   UNL     1      -1.943 -10.482  14.115  0.00  0.00    -0.112 NA
ATOM     15  N   UNL     1      -2.260 -10.577  14.869  0.00  0.00    -0.108 NA
ATOM     16  C   UNL     1      -3.076 -10.670  14.795  0.00  0.00    +0.270 A 
ATOM     26  O   UNL     1      -3.264 -10.632  13.992  0.00  0.00    -0.420 OA
ENDROOT
BRANCH  13  11
ATOM      8  N   UNL     1      -2.790 -10.242  11.466  0.00  0.00    -0.273 NA
ATOM      9  C   UNL     1      -1.990 -10.435  11.517  0.00  0.00    +0.073 C 
ATOM     10  C   UNL     1      -1.807 -10.561  12.312  0.00  0.00    +0.028 C 
ATOM     11  C   UNL     1      -2.495 -10.446  12.753  0.00  0.00    +0.095 C 
ATOM     12  C   UNL     1      -3.103 -10.249  12.230  0.00  0.00    +0.081 C 
BRANCH   8   5
ATOM      1  C   UNL     1      -4.453  -9.564   8.697  0.00  0.00    +0.090 C 
ATOM      2  N   UNL     1      -4.037  -9.734   9.390  0.00  0.00    -0.271 NA
ATOM      3  C   UNL     1      -4.068 -10.491   9.715  0.00  0.00    +0.074 C 
ATOM      4  C   UNL     1      -3.652 -10.661  10.407  0.00  0.00    +0.033 C 
ATOM      5  C   UNL     1      -3.206 -10.073  10.774  0.00  0.00    +0.060 C 
ATOM      6  C   UNL     1      -3.174  -9.315  10.450  0.00  0.00    +0.033 C 
ATOM      7  C   UNL     1      -3.590  -9.145   9.758  0.00  0.00    +0.074 C 
ENDBRANCH   8   5
ENDBRANCH  13  11
BRANCH  16  17
ATOM     17  C   UNL     1      -3.611 -10.781  15.413  0.00  0.00    +0.291 C 
BRANCH  17  18
ATOM     18  O   UNL     1      -3.959 -10.130  15.780  0.00  0.00    -0.465 OA
BRANCH  18  19
ATOM     19  C   UNL     1      -4.489 -10.242  16.401  0.00  0.00    +0.139 A 
ATOM     20  C   UNL     1      -4.219 -10.523  17.128  0.00  0.00    +0.039 A 
ATOM     21  C   UNL     1      -4.749 -10.635  17.750  0.00  0.00    +0.033 A 
ATOM     22  C   UNL     1      -5.550 -10.466  17.645  0.00  0.00    +0.140 A 
ATOM     23  F   UNL     1      -6.080 -10.578  18.267  0.00  0.00    -0.204 F 
ATOM     24  C   UNL     1      -5.820 -10.185  16.918  0.00  0.00    +0.033 A 
ATOM     25  C   UNL     1      -5.289 -10.073  16.296  0.00  0.00    +0.039 A 
ENDBRANCH  18  19
ENDBRANCH  17  18
ENDBRANCH  16  17
TORSDOF 5
ENDMDL
