MODEL 1
REMARK VINA RESULT:     -11.9      0.000      0.000
REMARK  Name = 
REMARK  4 active torsions:
REMARK  status: ('A' for Active; 'I' for Inactive)
REMARK    1  A    between atoms: N_3  and  C_4
REMARK    2  A    between atoms: C_4  and  C_5
REMARK    3  A    between atoms: N_14  and  S_18
REMARK    4  A    between atoms: S_18  and  C_21
REMARK                            x       y       z     vdW  Elec       q    Type
REMARK                         _______ _______ _______ _____ _____    ______ ____
ROOT
ATOM      1  O   UNL     1      -4.944   3.269  25.163  0.00  0.00    -0.252 OA
ATOM      2  C   UNL     1      -4.336   2.759  24.936  0.00  0.00    +0.308 C 
ATOM      3  N   UNL     1      -3.579   2.984  24.697  0.00  0.00    -0.258 N 
ATOM     11  C   UNL     1      -3.154   2.299  24.521  0.00  0.00    +0.117 C 
ATOM     12  C   UNL     1      -3.648   1.652  24.651  0.00  0.00    +0.114 C 
ATOM     13  C   UNL     1      -3.528   0.839  24.569  0.00  0.00    +0.117 C 
ATOM     14  N   UNL     1      -4.137   0.312  24.744  0.00  0.00    -0.152 NA
ATOM     15  C   UNL     1      -4.868   0.597  25.000  0.00  0.00    +0.117 C 
ATOM     16  C   UNL     1      -4.989   1.409  25.082  0.00  0.00    +0.114 C 
ATOM     17  N   UNL     1      -4.379   1.937  24.907  0.00  0.00    -0.261 N 
ENDROOT
BRANCH  14  18
ATOM     18  S   UNL     1      -4.017  -0.500  24.662  0.00  0.00    +0.063 S 
ATOM     19  O   UNL     1      -4.066  -0.590  25.480  0.00  0.00    -0.153 OA
ATOM     20  O   UNL     1      -3.969  -0.410  23.843  0.00  0.00    -0.153 OA
BRANCH  18  21
ATOM     21  C   UNL     1      -3.897  -1.312  24.579  0.00  0.00    +0.122 A 
ATOM     22  C   UNL     1      -4.232  -1.716  23.942  0.00  0.00    +0.020 A 
ATOM     23  C   UNL     1      -4.111  -2.528  23.861  0.00  0.00    +0.001 A 
ATOM     24  C   UNL     1      -3.657  -2.936  24.415  0.00  0.00    +0.000 A 
ATOM     25  C   UNL     1      -3.322  -2.532  25.051  0.00  0.00    +0.001 A 
ATOM     26  C   UNL     1      -3.442  -1.720  25.134  0.00  0.00    +0.020 A 
ENDBRANCH  18  21
ENDBRANCH  14  18
BRANCH   3   4
ATOM      4  C   UNL     1      -3.297   3.757  24.643  0.00  0.00    +0.123 C 
BRANCH   4   5
ATOM      5  C   UNL     1      -2.515   3.926  24.846  0.00  0.00    +0.017 A 
ATOM      6  C   UNL     1      -2.336   4.194  25.607  0.00  0.00    +0.001 A 
ATOM      7  C   UNL     1      -1.555   4.363  25.810  0.00  0.00    +0.020 A 
ATOM      8  C   UNL     1      -0.953   4.265  25.255  0.00  0.00    +0.099 A 
ATOM      9  N   UNL     1      -1.132   3.998  24.495  0.00  0.00    -0.243 NA
ATOM     10  C   UNL     1      -1.913   3.829  24.291  0.00  0.00    +0.096 A 
ENDBRANCH   4   5
ENDBRANCH   3   4
TORSDOF 4
ENDMDL
MODEL 2
REMARK VINA RESULT:     -11.4      1.395      5.019
REMARK  Name = 
REMARK  4 active torsions:
REMARK  status: ('A' for Active; 'I' for Inactive)
REMARK    1  A    between atoms: N_3  and  C_4
REMARK    2  A    between atoms: C_4  and  C_5
REMARK    3  A    between atoms: N_14  and  S_18
REMARK    4  A    between atoms: S_18  and  C_21
REMARK                            x       y       z     vdW  Elec       q    Type
REMARK                         _______ _______ _______ _____ _____    ______ ____
ROOT
ATOM      1  O   UNL     1      -5.637   1.076  25.139  0.00  0.00    -0.252 OA
ATOM      2  C   UNL     1      -4.833   1.102  24.954  0.00  0.00    +0.308 C 
ATOM      3  N   UNL     1      -4.377   0.469  24.687  0.00  0.00    -0.258 N 
ATOM     11  C   UNL     1      -3.606   0.741  24.572  0.00  0.00    +0.117 C 
ATOM     12  C   UNL     1      -3.587   1.541  24.768  0.00  0.00    +0.114 C 
ATOM     13  C   UNL     1      -2.977   2.097  24.763  0.00  0.00    +0.117 C 
ATOM     14  N   UNL     1      -3.125   2.875  24.993  0.00  0.00    -0.152 NA
ATOM     15  C   UNL     1      -3.883   3.098  25.229  0.00  0.00    +0.117 C 
ATOM     16  C   UNL     1      -4.494   2.543  25.235  0.00  0.00    +0.114 C 
ATOM     17  N   UNL     1      -4.345   1.764  25.004  0.00  0.00    -0.261 N 
ENDROOT
BRANCH  14  18
ATOM     18  S   UNL     1      -2.515   3.430  24.987  0.00  0.00    +0.063 S 
ATOM     19  O   UNL     1      -2.657   3.579  24.189  0.00  0.00    -0.153 OA
ATOM     20  O   UNL     1      -2.372   3.281  25.787  0.00  0.00    -0.153 OA
BRANCH  18  21
ATOM     21  C   UNL     1      -1.905   3.986  24.983  0.00  0.00    +0.122 A 
ATOM     22  C   UNL     1      -1.130   3.746  24.833  0.00  0.00    +0.020 A 
ATOM     23  C   UNL     1      -0.520   4.303  24.829  0.00  0.00    +0.001 A 
ATOM     24  C   UNL     1      -0.686   5.097  24.975  0.00  0.00    +0.000 A 
ATOM     25  C   UNL     1      -1.461   5.336  25.125  0.00  0.00    +0.001 A 
ATOM     26  C   UNL     1      -2.071   4.781  25.129  0.00  0.00    +0.020 A 
ENDBRANCH  18  21
ENDBRANCH  14  18
BRANCH   3   4
ATOM      4  C   UNL     1      -4.644  -0.301  24.558  0.00  0.00    +0.123 C 
BRANCH   4   5
ATOM      5  C   UNL     1      -4.139  -0.941  24.687  0.00  0.00    +0.017 A 
ATOM      6  C   UNL     1      -3.879  -1.396  24.049  0.00  0.00    +0.001 A 
ATOM      7  C   UNL     1      -3.374  -2.035  24.178  0.00  0.00    +0.020 A 
ATOM      8  C   UNL     1      -3.129  -2.220  24.943  0.00  0.00    +0.099 A 
ATOM      9  N   UNL     1      -3.388  -1.765  25.580  0.00  0.00    -0.243 NA
ATOM     10  C   UNL     1      -3.893  -1.125  25.452  0.00  0.00    +0.096 A 
ENDBRANCH   4   5
ENDBRANCH   3   4
TORSDOF 4
ENDMDL
MODEL 3
REMARK VINA RESULT:     -11.3      1.948      2.558
REMARK  Name = 
REMARK  4 active torsions:
REMARK  status: ('A' for Active; 'I' for Inactive)
REMARK    1  A    between atoms: N_3  and  C_4
REMARK    2  A    between atoms: C_4  and  C_5
REMARK    3  A    between atoms: N_14  and  S_18
REMARK    4  A    between atoms: S_18  and  C_21
REMARK                            x       y       z     vdW  Elec       q    Type
REMARK                         _______ _______ _______ _____ _____    ______ ____
ROOT
ATOM      1  O   UNL     1       0.556   1.845  24.985  0.00  0.00    -0.252 OA
ATOM      2  C   UNL     1      -0.247   1.728  25.133  0.00  0.00    +0.308 C 
ATOM      3  N   UNL     1      -0.756   2.264  25.499  0.00  0.00    -0.258 N 
ATOM     11  C   UNL     1      -1.506   1.922  25.533  0.00  0.00    +0.117 C 
ATOM     12  C   UNL     1      -1.460   1.174  25.188  0.00  0.00    +0.114 C 
ATOM     13  C   UNL     1      -2.026   0.586  25.067  0.00  0.00    +0.117 C 
ATOM     14  N   UNL     1      -1.815  -0.120  24.698  0.00  0.00    -0.152 NA
ATOM     15  C   UNL     1      -1.037  -0.240  24.451  0.00  0.00    +0.117 C 
ATOM     16  C   UNL     1      -0.470   0.347  24.572  0.00  0.00    +0.114 C 
ATOM     17  N   UNL     1      -0.682   1.055  24.941  0.00  0.00    -0.261 N 
ENDROOT
BRANCH  14  18
ATOM     18  S   UNL     1      -2.381  -0.709  24.577  0.00  0.00    +0.063 S 
ATOM     19  O   UNL     1      -2.185  -1.048  25.302  0.00  0.00    -0.153 OA
ATOM     20  O   UNL     1      -2.576  -0.369  23.850  0.00  0.00    -0.153 OA
BRANCH  18  21
ATOM     21  C   UNL     1      -2.947  -1.296  24.454  0.00  0.00    +0.122 A 
ATOM     22  C   UNL     1      -2.796  -2.071  24.692  0.00  0.00    +0.020 A 
ATOM     23  C   UNL     1      -3.363  -2.658  24.569  0.00  0.00    +0.001 A 
ATOM     24  C   UNL     1      -4.080  -2.470  24.208  0.00  0.00    +0.000 A 
ATOM     25  C   UNL     1      -4.231  -1.695  23.970  0.00  0.00    +0.001 A 
ATOM     26  C   UNL     1      -3.665  -1.107  24.092  0.00  0.00    +0.020 A 
ENDBRANCH  18  21
ENDBRANCH  14  18
BRANCH   3   4
ATOM      4  C   UNL     1      -0.551   3.012  25.782  0.00  0.00    +0.123 C 
BRANCH   4   5
ATOM      5  C   UNL     1      -1.015   3.667  25.592  0.00  0.00    +0.017 A 
ATOM      6  C   UNL     1      -0.747   4.214  25.035  0.00  0.00    +0.001 A 
ATOM      7  C   UNL     1      -1.211   4.869  24.845  0.00  0.00    +0.020 A 
ATOM      8  C   UNL     1      -1.943   4.977  25.211  0.00  0.00    +0.099 A 
ATOM      9  N   UNL     1      -2.210   4.430  25.767  0.00  0.00    -0.243 NA
ATOM     10  C   UNL     1      -1.746   3.775  25.958  0.00  0.00    +0.096 A 
ENDBRANCH   4   5
ENDBRANCH   3   4
TORSDOF 4
ENDMDL
MODEL 4
REMARK VINA RESULT:     -11.3      2.452      5.625
REMARK  Name = 
REMARK  4 active torsions:
REMARK  status: ('A' for Active; 'I' for Inactive)
REMARK    1  A    between atoms: N_3  and  C_4
REMARK    2  A    between atoms: C_4  and  C_5
REMARK    3  A    between atoms: N_14  and  S_18
REMARK    4  A    between atoms: S_18  and  C_21
REMARK                            x       y       z     vdW  Elec       q    Type
REMARK                         _______ _______ _______ _____ _____    ______ ____
ROOT
ATOM      1  O   UNL     1      -0.028  -0.895  24.239  0.00  0.00    -0.252 OA
ATOM      2  C   UNL     1      -0.591  -0.424  24.618  0.00  0.00    +0.308 C 
ATOM      3  N   UNL     1      -1.232  -0.697  25.060  0.00  0.00    -0.258 N 
ATOM     11  C   UNL     1      -1.648  -0.040  25.337  0.00  0.00    +0.117 C 
ATOM     12  C   UNL     1      -1.264   0.638  25.066  0.00  0.00    +0.114 C 
ATOM     13  C   UNL     1      -1.424   1.441  25.166  0.00  0.00    +0.117 C 
ATOM     14  N   UNL     1      -0.931   2.006  24.822  0.00  0.00    -0.152 NA
ATOM     15  C   UNL     1      -0.278   1.768  24.378  0.00  0.00    +0.117 C 
ATOM     16  C   UNL     1      -0.117   0.965  24.278  0.00  0.00    +0.114 C 
ATOM     17  N   UNL     1      -0.610   0.400  24.622  0.00  0.00    -0.261 N 
ENDROOT
BRANCH  14  18
ATOM     18  S   UNL     1      -1.091   2.809  24.922  0.00  0.00    +0.063 S 
ATOM     19  O   UNL     1      -0.668   2.806  25.629  0.00  0.00    -0.153 OA
ATOM     20  O   UNL     1      -1.516   2.812  24.214  0.00  0.00    -0.153 OA
BRANCH  18  21
ATOM     21  C   UNL     1      -1.252   3.612  25.020  0.00  0.00    +0.122 A 
ATOM     22  C   UNL     1      -0.690   4.176  24.803  0.00  0.00    +0.020 A 
ATOM     23  C   UNL     1      -0.852   4.979  24.902  0.00  0.00    +0.001 A 
ATOM     24  C   UNL     1      -1.575   5.218  25.218  0.00  0.00    +0.000 A 
ATOM     25  C   UNL     1      -2.137   4.655  25.436  0.00  0.00    +0.001 A 
ATOM     26  C   UNL     1      -1.976   3.852  25.337  0.00  0.00    +0.020 A 
ENDBRANCH  18  21
ENDBRANCH  14  18
BRANCH   3   4
ATOM      4  C   UNL     1      -1.424  -1.487  25.201  0.00  0.00    +0.123 C 
BRANCH   4   5
ATOM      5  C   UNL     1      -2.180  -1.766  25.025  0.00  0.00    +0.017 A 
ATOM      6  C   UNL     1      -2.787  -1.687  25.579  0.00  0.00    +0.001 A 
ATOM      7  C   UNL     1      -3.543  -1.967  25.403  0.00  0.00    +0.020 A 
ATOM      8  C   UNL     1      -3.692  -2.323  24.674  0.00  0.00    +0.099 A 
ATOM      9  N   UNL     1      -3.086  -2.401  24.122  0.00  0.00    -0.243 NA
ATOM     10  C   UNL     1      -2.329  -2.122  24.297  0.00  0.00    +0.096 A 
ENDBRANCH   4   5
ENDBRANCH   3   4
TORSDOF 4
ENDMDL
