REMARK  Name = 
REMARK  10 active torsions:
REMARK  status: ('A' for Active; 'I' for Inactive)
REMARK    1  A    between atoms: C_2  and  C_5
REMARK    2  A    between atoms: C_5  and  C_6
REMARK    3  A    between atoms: C_11  and  N_12
REMARK    4  A    between atoms: N_15  and  C_16
REMARK    5  A    between atoms: C_16  and  C_17
REMARK    6  A    between atoms: C_19  and  C_20
REMARK    7  A    between atoms: N_22  and  C_23
REMARK    8  A    between atoms: C_23  and  C_24
REMARK    9  A    between atoms: C_23  and  C_30
REMARK   10  A    between atoms: C_24  and  C_25
REMARK                            x       y       z     vdW  Elec       q    Type
REMARK                         _______ _______ _______ _____ _____    ______ ____
ROOT
ATOM      6  C   UNL     1      -0.987  -3.015   0.000  0.00  0.00    +0.226 C 
ATOM      7  O   UNL     1      -1.472  -2.348   0.000  0.00  0.00    -0.275 OA
ATOM      8  N   UNL     1      -0.167  -2.929   0.000  0.00  0.00    -0.272 N 
ATOM      9  C   UNL     1       0.246  -2.215   0.000  0.00  0.00    +0.096 C 
ATOM     10  C   UNL     1       1.053  -2.386   0.000  0.00  0.00    +0.045 C 
ATOM     11  C   UNL     1       1.139  -3.207   0.000  0.00  0.00    +0.126 C 
ATOM     19  C   UNL     1       0.385  -3.542   0.000  0.00  0.00    +0.174 C 
ENDROOT
BRANCH  11  12
ATOM     12  N   UNL     1       1.853  -3.619   0.000  0.00  0.00    -0.187 NA
ATOM     13  C   UNL     1       2.568  -3.207   0.000  0.00  0.00    +0.340 C 
ATOM     14  O   UNL     1       2.568  -2.382   0.000  0.00  0.00    -0.249 OA
ATOM     15  N   UNL     1       3.282  -3.619   0.000  0.00  0.00    -0.182 NA
BRANCH  15  16
ATOM     16  C   UNL     1       3.997  -3.207   0.000  0.00  0.00    +0.143 C 
BRANCH  16  17
ATOM     17  C   UNL     1       4.711  -3.619   0.000  0.00  0.00    -0.003 C 
ATOM     18  C   UNL     1       5.426  -3.207   0.000  0.00  0.00    -0.003 C 
ENDBRANCH  16  17
ENDBRANCH  15  16
ENDBRANCH  11  12
BRANCH  19  20
ATOM     20  C   UNL     1       0.214  -4.349   0.000  0.00  0.00    +0.262 C 
ATOM     21  O   UNL     1      -0.571  -4.604   0.000  0.00  0.00    -0.271 OA
ATOM     22  N   UNL     1       0.827  -4.901   0.000  0.00  0.00    -0.196 NA
BRANCH  22  23
ATOM     23  C   UNL     1       0.655  -5.708   0.000  0.00  0.00    +0.179 C 
BRANCH  23  30
ATOM     30  C   UNL     1      -0.129  -5.963   0.000  0.00  0.00    +0.281 C 
ATOM     31  N   UNL     1      -0.301  -6.770   0.000  0.00  0.00    -0.086 NA
ATOM     32  O   UNL     1      -0.742  -5.411   0.000  0.00  0.00    -0.270 OA
ENDBRANCH  23  30
BRANCH  23  24
ATOM     24  C   UNL     1       1.268  -6.260   0.000  0.00  0.00    +0.064 C 
BRANCH  24  25
ATOM     25  C   UNL     1       1.097  -7.067   0.000  0.00  0.00    +0.010 A 
ATOM     26  C   UNL     1       1.649  -7.680   0.000  0.00  0.00    +0.003 A 
ATOM     27  C   UNL     1       1.236  -8.395   0.000  0.00  0.00    +0.007 A 
ATOM     28  C   UNL     1       0.429  -8.223   0.000  0.00  0.00    +0.035 A 
ATOM     29  S   UNL     1       0.343  -7.403   0.000  0.00  0.00    -0.091 S 
ENDBRANCH  24  25
ENDBRANCH  23  24
ENDBRANCH  22  23
ENDBRANCH  19  20
BRANCH   6   5
ATOM      5  C   UNL     1      -1.323  -3.769   0.000  0.00  0.00    +0.085 C 
BRANCH   5   2
ATOM      1  C   UNL     1      -2.964  -3.942   0.000  0.00  0.00    +0.000 C 
ATOM      2  C   UNL     1      -2.143  -3.855   0.000  0.00  0.00    +0.009 C 
ATOM      3  C   UNL     1      -2.229  -3.035   0.000  0.00  0.00    +0.000 C 
ATOM      4  C   UNL     1      -2.057  -4.676   0.000  0.00  0.00    +0.000 C 
ENDBRANCH   5   2
ENDBRANCH   6   5
TORSDOF 10
