MODEL 1
REMARK VINA RESULT:     -10.4      0.000      0.000
REMARK  Name = 
REMARK  4 active torsions:
REMARK  status: ('A' for Active; 'I' for Inactive)
REMARK    1  A    between atoms: O_2  and  C_3
REMARK    2  A    between atoms: C_8  and  N_9
REMARK    3  A    between atoms: C_15  and  C_17
REMARK    4  A    between atoms: C_20  and  C_22
REMARK                            x       y       z     vdW  Elec       q    Type
REMARK                         _______ _______ _______ _____ _____    ______ ____
ROOT
ATOM      9  N   UNL     1      -2.607  -1.280  24.832  0.00  0.00    -0.159 NA
ATOM     10  C   UNL     1      -2.586  -0.466  24.689  0.00  0.00    +0.328 C 
ATOM     11  O   UNL     1      -3.152  -0.120  24.200  0.00  0.00    -0.250 OA
ATOM     12  N   UNL     1      -2.000  -0.001  25.037  0.00  0.00    -0.262 N 
ATOM     13  C   UNL     1      -1.401  -0.271  25.536  0.00  0.00    +0.096 C 
ATOM     14  C   UNL     1      -0.940   0.378  25.754  0.00  0.00    +0.033 C 
ATOM     15  C   UNL     1      -1.255   1.048  25.389  0.00  0.00    +0.100 C 
ATOM     16  C   UNL     1      -1.910   0.813  24.946  0.00  0.00    +0.104 C 
ENDROOT
BRANCH   9   8
ATOM      3  C   UNL     1      -3.027  -2.523  24.268  0.00  0.00    +0.154 A 
ATOM      4  C   UNL     1      -3.614  -2.989  23.920  0.00  0.00    +0.038 A 
ATOM      5  C   UNL     1      -4.366  -2.674  23.790  0.00  0.00    +0.003 A 
ATOM      6  C   UNL     1      -4.531  -1.896  24.006  0.00  0.00    +0.002 A 
ATOM      7  C   UNL     1      -3.944  -1.431  24.353  0.00  0.00    +0.020 A 
ATOM      8  C   UNL     1      -3.193  -1.744  24.484  0.00  0.00    +0.109 A 
BRANCH   3   2
ATOM      1  C   UNL     1      -1.993  -3.445  23.919  0.00  0.00    +0.253 C 
ATOM      2  O   UNL     1      -2.276  -2.837  24.399  0.00  0.00    -0.470 OA
ENDBRANCH   3   2
ENDBRANCH   9   8
BRANCH  15  17
ATOM     17  C   UNL     1      -0.966   1.818  25.455  0.00  0.00    +0.228 A 
ATOM     18  N   UNL     1      -0.227   2.034  25.753  0.00  0.00    -0.111 NA
ATOM     19  N   UNL     1      -0.169   2.856  25.718  0.00  0.00    -0.107 NA
ATOM     20  C   UNL     1      -0.872   3.148  25.398  0.00  0.00    +0.250 A 
ATOM     21  O   UNL     1      -1.365   2.506  25.236  0.00  0.00    -0.419 OA
BRANCH  20  22
ATOM     22  C   UNL     1      -1.051   3.943  25.265  0.00  0.00    +0.055 A 
ATOM     23  C   UNL     1      -1.776   4.249  25.512  0.00  0.00    +0.004 A 
ATOM     24  C   UNL     1      -1.955   5.044  25.379  0.00  0.00    -0.004 A 
ATOM     25  C   UNL     1      -1.410   5.531  24.997  0.00  0.00    -0.022 A 
ATOM     26  C   UNL     1      -1.589   6.325  24.864  0.00  0.00    +0.031 C 
ATOM     27  C   UNL     1      -0.685   5.224  24.750  0.00  0.00    -0.004 A 
ATOM     28  C   UNL     1      -0.506   4.430  24.883  0.00  0.00    +0.004 A 
ENDBRANCH  20  22
ENDBRANCH  15  17
TORSDOF 4
ENDMDL
MODEL 2
REMARK VINA RESULT:     -10.3      1.673      2.091
REMARK  Name = 
REMARK  4 active torsions:
REMARK  status: ('A' for Active; 'I' for Inactive)
REMARK    1  A    between atoms: O_2  and  C_3
REMARK    2  A    between atoms: C_8  and  N_9
REMARK    3  A    between atoms: C_15  and  C_17
REMARK    4  A    between atoms: C_20  and  C_22
REMARK                            x       y       z     vdW  Elec       q    Type
REMARK                         _______ _______ _______ _____ _____    ______ ____
ROOT
ATOM      9  N   UNL     1      -4.043  -0.985  24.881  0.00  0.00    -0.159 NA
ATOM     10  C   UNL     1      -3.521  -0.356  24.997  0.00  0.00    +0.328 C 
ATOM     11  O   UNL     1      -2.718  -0.505  25.113  0.00  0.00    -0.250 OA
ATOM     12  N   UNL     1      -3.802   0.419  24.997  0.00  0.00    -0.262 N 
ATOM     13  C   UNL     1      -4.587   0.650  24.889  0.00  0.00    +0.096 C 
ATOM     14  C   UNL     1      -4.618   1.473  24.931  0.00  0.00    +0.033 C 
ATOM     15  C   UNL     1      -3.852   1.751  25.065  0.00  0.00    +0.100 C 
ATOM     16  C   UNL     1      -3.348   1.099  25.106  0.00  0.00    +0.104 C 
ENDROOT
BRANCH   9   8
ATOM      3  C   UNL     1      -3.949  -2.267  24.256  0.00  0.00    +0.154 A 
ATOM      4  C   UNL     1      -3.668  -3.043  24.256  0.00  0.00    +0.038 A 
ATOM      5  C   UNL     1      -3.200  -3.312  24.880  0.00  0.00    +0.003 A 
ATOM      6  C   UNL     1      -3.013  -2.806  25.504  0.00  0.00    +0.002 A 
ATOM      7  C   UNL     1      -3.295  -2.030  25.504  0.00  0.00    +0.020 A 
ATOM      8  C   UNL     1      -3.762  -1.761  24.881  0.00  0.00    +0.109 A 
BRANCH   3   2
ATOM      1  C   UNL     1      -4.733  -2.535  23.093  0.00  0.00    +0.253 C 
ATOM      2  O   UNL     1      -4.417  -1.998  23.633  0.00  0.00    -0.470 OA
ENDBRANCH   3   2
ENDBRANCH   9   8
BRANCH  15  17
ATOM     17  C   UNL     1      -3.630   2.541  25.144  0.00  0.00    +0.228 A 
ATOM     18  N   UNL     1      -4.122   3.163  25.373  0.00  0.00    -0.111 NA
ATOM     19  N   UNL     1      -3.673   3.855  25.378  0.00  0.00    -0.107 NA
ATOM     20  C   UNL     1      -2.903   3.661  25.153  0.00  0.00    +0.250 A 
ATOM     21  O   UNL     1      -2.877   2.849  25.008  0.00  0.00    -0.419 OA
BRANCH  20  22
ATOM     22  C   UNL     1      -2.271   4.187  25.084  0.00  0.00    +0.055 A 
ATOM     23  C   UNL     1      -2.394   4.996  25.188  0.00  0.00    +0.004 A 
ATOM     24  C   UNL     1      -1.762   5.521  25.119  0.00  0.00    -0.004 A 
ATOM     25  C   UNL     1      -1.006   5.238  24.947  0.00  0.00    -0.022 A 
ATOM     26  C   UNL     1      -0.375   5.763  24.878  0.00  0.00    +0.031 C 
ATOM     27  C   UNL     1      -0.884   4.429  24.843  0.00  0.00    -0.004 A 
ATOM     28  C   UNL     1      -1.515   3.903  24.912  0.00  0.00    +0.004 A 
ENDBRANCH  20  22
ENDBRANCH  15  17
TORSDOF 4
ENDMDL
MODEL 3
REMARK VINA RESULT:     -10.2      3.736      4.806
REMARK  Name = 
REMARK  4 active torsions:
REMARK  status: ('A' for Active; 'I' for Inactive)
REMARK    1  A    between atoms: O_2  and  C_3
REMARK    2  A    between atoms: C_8  and  N_9
REMARK    3  A    between atoms: C_15  and  C_17
REMARK    4  A    between atoms: C_20  and  C_22
REMARK                            x       y       z     vdW  Elec       q    Type
REMARK                         _______ _______ _______ _____ _____    ______ ____
ROOT
ATOM      9  N   UNL     1      -1.951   0.102  24.650  0.00  0.00    -0.159 NA
ATOM     10  C   UNL     1      -1.305  -0.335  24.377  0.00  0.00    +0.328 C 
ATOM     11  O   UNL     1      -1.297  -1.155  24.465  0.00  0.00    -0.250 OA
ATOM     12  N   UNL     1      -0.670   0.049  24.018  0.00  0.00    -0.262 N 
ATOM     13  C   UNL     1      -0.603   0.862  23.893  0.00  0.00    +0.096 C 
ATOM     14  C   UNL     1       0.119   1.003  23.518  0.00  0.00    +0.033 C 
ATOM     15  C   UNL     1       0.496   0.277  23.411  0.00  0.00    +0.100 C 
ATOM     16  C   UNL     1       0.008  -0.312  23.720  0.00  0.00    +0.104 C 
ENDROOT
BRANCH   9   8
ATOM      3  C   UNL     1      -3.347   0.032  24.946  0.00  0.00    +0.154 A 
ATOM      4  C   UNL     1      -3.983  -0.352  25.306  0.00  0.00    +0.038 A 
ATOM      5  C   UNL     1      -3.857  -1.049  25.730  0.00  0.00    +0.003 A 
ATOM      6  C   UNL     1      -3.097  -1.362  25.794  0.00  0.00    +0.002 A 
ATOM      7  C   UNL     1      -2.461  -0.978  25.434  0.00  0.00    +0.020 A 
ATOM      8  C   UNL     1      -2.586  -0.282  25.010  0.00  0.00    +0.109 A 
BRANCH   3   2
ATOM      1  C   UNL     1      -4.213   1.090  24.533  0.00  0.00    +0.253 C 
ATOM      2  O   UNL     1      -3.472   0.728  24.522  0.00  0.00    -0.470 OA
ENDBRANCH   3   2
ENDBRANCH   9   8
BRANCH  15  17
ATOM     17  C   UNL     1       1.232   0.161  23.057  0.00  0.00    +0.228 A 
ATOM     18  N   UNL     1       1.363  -0.074  22.276  0.00  0.00    -0.111 NA
ATOM     19  N   UNL     1       2.178  -0.121  22.157  0.00  0.00    -0.107 NA
ATOM     20  C   UNL     1       2.551   0.084  22.864  0.00  0.00    +0.250 A 
ATOM     21  O   UNL     1       1.966   0.259  23.420  0.00  0.00    -0.419 OA
BRANCH  20  22
ATOM     22  C   UNL     1       3.366   0.111  22.993  0.00  0.00    +0.055 A 
ATOM     23  C   UNL     1       3.752  -0.539  23.322  0.00  0.00    +0.004 A 
ATOM     24  C   UNL     1       4.567  -0.512  23.451  0.00  0.00    -0.004 A 
ATOM     25  C   UNL     1       4.995   0.164  23.251  0.00  0.00    -0.022 A 
ATOM     26  C   UNL     1       5.808   0.191  23.380  0.00  0.00    +0.031 C 
ATOM     27  C   UNL     1       4.607   0.814  22.922  0.00  0.00    -0.004 A 
ATOM     28  C   UNL     1       3.793   0.788  22.793  0.00  0.00    +0.004 A 
ENDBRANCH  20  22
ENDBRANCH  15  17
TORSDOF 4
ENDMDL
MODEL 4
REMARK VINA RESULT:      -9.9      0.900      6.099
REMARK  Name = 
REMARK  4 active torsions:
REMARK  status: ('A' for Active; 'I' for Inactive)
REMARK    1  A    between atoms: O_2  and  C_3
REMARK    2  A    between atoms: C_8  and  N_9
REMARK    3  A    between atoms: C_15  and  C_17
REMARK    4  A    between atoms: C_20  and  C_22
REMARK                            x       y       z     vdW  Elec       q    Type
REMARK                         _______ _______ _______ _____ _____    ______ ____
ROOT
ATOM      9  N   UNL     1      -1.216   3.301  25.409  0.00  0.00    -0.159 NA
ATOM     10  C   UNL     1      -1.734   2.677  25.254  0.00  0.00    +0.328 C 
ATOM     11  O   UNL     1      -2.521   2.833  25.061  0.00  0.00    -0.250 OA
ATOM     12  N   UNL     1      -1.465   1.898  25.293  0.00  0.00    -0.262 N 
ATOM     13  C   UNL     1      -0.697   1.660  25.478  0.00  0.00    +0.096 C 
ATOM     14  C   UNL     1      -0.673   0.835  25.453  0.00  0.00    +0.033 C 
ATOM     15  C   UNL     1      -1.427   0.565  25.252  0.00  0.00    +0.100 C 
ATOM     16  C   UNL     1      -1.916   1.222  25.153  0.00  0.00    +0.104 C 
ENDROOT
BRANCH   9   8
ATOM      3  C   UNL     1      -1.043   4.649  24.968  0.00  0.00    +0.154 A 
ATOM      4  C   UNL     1      -1.313   5.429  24.929  0.00  0.00    +0.038 A 
ATOM      5  C   UNL     1      -2.024   5.637  25.293  0.00  0.00    +0.003 A 
ATOM      6  C   UNL     1      -2.465   5.068  25.695  0.00  0.00    +0.002 A 
ATOM      7  C   UNL     1      -2.195   4.289  25.733  0.00  0.00    +0.020 A 
ATOM      8  C   UNL     1      -1.485   4.080  25.370  0.00  0.00    +0.109 A 
BRANCH   3   2
ATOM      1  C   UNL     1       0.024   4.956  24.070  0.00  0.00    +0.253 C 
ATOM      2  O   UNL     1      -0.334   4.440  24.605  0.00  0.00    -0.470 OA
ENDBRANCH   3   2
ENDBRANCH   9   8
BRANCH  15  17
ATOM     17  C   UNL     1      -1.652  -0.224  25.165  0.00  0.00    +0.228 A 
ATOM     18  N   UNL     1      -1.223  -0.881  25.420  0.00  0.00    -0.111 NA
ATOM     19  N   UNL     1      -1.651  -1.558  25.221  0.00  0.00    -0.107 NA
ATOM     20  C   UNL     1      -2.344  -1.319  24.843  0.00  0.00    +0.250 A 
ATOM     21  O   UNL     1      -2.345  -0.494  24.808  0.00  0.00    -0.419 OA
BRANCH  20  22
ATOM     22  C   UNL     1      -2.934  -1.817  24.550  0.00  0.00    +0.055 A 
ATOM     23  C   UNL     1      -3.555  -1.504  24.107  0.00  0.00    +0.004 A 
ATOM     24  C   UNL     1      -4.145  -2.002  23.814  0.00  0.00    -0.004 A 
ATOM     25  C   UNL     1      -4.113  -2.812  23.966  0.00  0.00    -0.022 A 
ATOM     26  C   UNL     1      -4.702  -3.309  23.673  0.00  0.00    +0.031 C 
ATOM     27  C   UNL     1      -3.492  -3.124  24.410  0.00  0.00    -0.004 A 
ATOM     28  C   UNL     1      -2.902  -2.627  24.702  0.00  0.00    +0.004 A 
ENDBRANCH  20  22
ENDBRANCH  15  17
TORSDOF 4
ENDMDL
MODEL 5
REMARK VINA RESULT:      -9.8      3.691      5.029
REMARK  Name = 
REMARK  4 active torsions:
REMARK  status: ('A' for Active; 'I' for Inactive)
REMARK    1  A    between atoms: O_2  and  C_3
REMARK    2  A    between atoms: C_8  and  N_9
REMARK    3  A    between atoms: C_15  and  C_17
REMARK    4  A    between atoms: C_20  and  C_22
REMARK                            x       y       z     vdW  Elec       q    Type
REMARK                         _______ _______ _______ _____ _____    ______ ____
ROOT
ATOM      9  N   UNL     1      -2.207   1.248  24.376  0.00  0.00    -0.159 NA
ATOM     10  C   UNL     1      -1.570   1.419  23.879  0.00  0.00    +0.328 C 
ATOM     11  O   UNL     1      -1.564   2.118  23.442  0.00  0.00    -0.250 OA
ATOM     12  N   UNL     1      -0.939   0.889  23.820  0.00  0.00    -0.262 N 
ATOM     13  C   UNL     1      -0.870   0.172  24.223  0.00  0.00    +0.096 C 
ATOM     14  C   UNL     1      -0.156  -0.176  24.000  0.00  0.00    +0.033 C 
ATOM     15  C   UNL     1       0.215   0.326  23.460  0.00  0.00    +0.100 C 
ATOM     16  C   UNL     1      -0.270   0.985  23.350  0.00  0.00    +0.104 C 
ENDROOT
BRANCH   9   8
ATOM      3  C   UNL     1      -3.602   1.495  24.560  0.00  0.00    +0.154 A 
ATOM      4  C   UNL     1      -4.233   2.025  24.619  0.00  0.00    +0.038 A 
ATOM      5  C   UNL     1      -4.097   2.836  24.554  0.00  0.00    +0.003 A 
ATOM      6  C   UNL     1      -3.333   3.118  24.429  0.00  0.00    +0.002 A 
ATOM      7  C   UNL     1      -2.702   2.588  24.370  0.00  0.00    +0.020 A 
ATOM      8  C   UNL     1      -2.837   1.778  24.436  0.00  0.00    +0.109 A 
BRANCH   3   2
ATOM      1  C   UNL     1      -4.488   0.406  24.821  0.00  0.00    +0.253 C 
ATOM      2  O   UNL     1      -3.737   0.684  24.625  0.00  0.00    -0.470 OA
ENDBRANCH   3   2
ENDBRANCH   9   8
BRANCH  15  17
ATOM     17  C   UNL     1       0.943   0.193  23.095  0.00  0.00    +0.228 A 
ATOM     18  N   UNL     1       1.056  -0.102  22.333  0.00  0.00    -0.111 NA
ATOM     19  N   UNL     1       1.868  -0.146  22.195  0.00  0.00    -0.107 NA
ATOM     20  C   UNL     1       2.257   0.124  22.871  0.00  0.00    +0.250 A 
ATOM     21  O   UNL     1       1.685   0.333  23.428  0.00  0.00    -0.419 OA
BRANCH  20  22
ATOM     22  C   UNL     1       3.075   0.174  22.973  0.00  0.00    +0.055 A 
ATOM     23  C   UNL     1       3.492  -0.467  23.282  0.00  0.00    +0.004 A 
ATOM     24  C   UNL     1       4.309  -0.416  23.384  0.00  0.00    -0.004 A 
ATOM     25  C   UNL     1       4.709   0.275  23.178  0.00  0.00    -0.022 A 
ATOM     26  C   UNL     1       5.525   0.326  23.280  0.00  0.00    +0.031 C 
ATOM     27  C   UNL     1       4.290   0.916  22.869  0.00  0.00    -0.004 A 
ATOM     28  C   UNL     1       3.474   0.866  22.767  0.00  0.00    +0.004 A 
ENDBRANCH  20  22
ENDBRANCH  15  17
TORSDOF 4
ENDMDL
MODEL 6
REMARK VINA RESULT:      -9.4      3.204      4.686
REMARK  Name = 
REMARK  4 active torsions:
REMARK  status: ('A' for Active; 'I' for Inactive)
REMARK    1  A    between atoms: O_2  and  C_3
REMARK    2  A    between atoms: C_8  and  N_9
REMARK    3  A    between atoms: C_15  and  C_17
REMARK    4  A    between atoms: C_20  and  C_22
REMARK                            x       y       z     vdW  Elec       q    Type
REMARK                         _______ _______ _______ _____ _____    ______ ____
ROOT
ATOM      9  N   UNL     1      -3.438   1.816  25.025  0.00  0.00    -0.159 NA
ATOM     10  C   UNL     1      -3.055   1.247  24.565  0.00  0.00    +0.328 C 
ATOM     11  O   UNL     1      -3.497   0.719  24.111  0.00  0.00    -0.250 OA
ATOM     12  N   UNL     1      -2.231   1.207  24.560  0.00  0.00    -0.262 N 
ATOM     13  C   UNL     1      -1.720   1.697  24.984  0.00  0.00    +0.096 C 
ATOM     14  C   UNL     1      -0.947   1.463  24.817  0.00  0.00    +0.033 C 
ATOM     15  C   UNL     1      -0.981   0.829  24.289  0.00  0.00    +0.100 C 
ATOM     16  C   UNL     1      -1.775   0.672  24.131  0.00  0.00    +0.104 C 
ENDROOT
BRANCH   9   8
ATOM      3  C   UNL     1      -4.639   2.586  25.112  0.00  0.00    +0.154 A 
ATOM      4  C   UNL     1      -5.464   2.626  25.117  0.00  0.00    +0.038 A 
ATOM      5  C   UNL     1      -5.910   1.936  25.039  0.00  0.00    +0.003 A 
ATOM      6  C   UNL     1      -5.534   1.208  24.957  0.00  0.00    +0.002 A 
ATOM      7  C   UNL     1      -4.709   1.168  24.952  0.00  0.00    +0.020 A 
ATOM      8  C   UNL     1      -4.262   1.856  25.029  0.00  0.00    +0.109 A 
BRANCH   3   2
ATOM      1  C   UNL     1      -4.559   3.983  25.397  0.00  0.00    +0.253 C 
ATOM      2  O   UNL     1      -4.192   3.275  25.190  0.00  0.00    -0.470 OA
ENDBRANCH   3   2
ENDBRANCH   9   8
BRANCH  15  17
ATOM     17  C   UNL     1      -0.334   0.425  23.975  0.00  0.00    +0.228 A 
ATOM     18  N   UNL     1      -0.260  -0.395  23.911  0.00  0.00    -0.111 NA
ATOM     19  N   UNL     1       0.471  -0.558  23.566  0.00  0.00    -0.107 NA
ATOM     20  C   UNL     1       0.849   0.160  23.417  0.00  0.00    +0.250 A 
ATOM     21  O   UNL     1       0.351   0.768  23.669  0.00  0.00    -0.419 OA
BRANCH  20  22
ATOM     22  C   UNL     1       1.594   0.254  23.074  0.00  0.00    +0.055 A 
ATOM     23  C   UNL     1       2.145   0.763  23.419  0.00  0.00    +0.004 A 
ATOM     24  C   UNL     1       2.890   0.858  23.077  0.00  0.00    -0.004 A 
ATOM     25  C   UNL     1       3.084   0.443  22.391  0.00  0.00    -0.022 A 
ATOM     26  C   UNL     1       3.828   0.538  22.049  0.00  0.00    +0.031 C 
ATOM     27  C   UNL     1       2.533  -0.066  22.047  0.00  0.00    -0.004 A 
ATOM     28  C   UNL     1       1.789  -0.160  22.388  0.00  0.00    +0.004 A 
ENDBRANCH  20  22
ENDBRANCH  15  17
TORSDOF 4
ENDMDL
MODEL 7
REMARK VINA RESULT:      -9.3      1.616      6.439
REMARK  Name = 
REMARK  4 active torsions:
REMARK  status: ('A' for Active; 'I' for Inactive)
REMARK    1  A    between atoms: O_2  and  C_3
REMARK    2  A    between atoms: C_8  and  N_9
REMARK    3  A    between atoms: C_15  and  C_17
REMARK    4  A    between atoms: C_20  and  C_22
REMARK                            x       y       z     vdW  Elec       q    Type
REMARK                         _______ _______ _______ _____ _____    ______ ____
ROOT
ATOM      9  N   UNL     1      -2.207   3.759  24.687  0.00  0.00    -0.159 NA
ATOM     10  C   UNL     1      -2.189   2.934  24.704  0.00  0.00    +0.328 C 
ATOM     11  O   UNL     1      -1.465   2.538  24.723  0.00  0.00    -0.250 OA
ATOM     12  N   UNL     1      -2.894   2.505  24.703  0.00  0.00    -0.262 N 
ATOM     13  C   UNL     1      -3.654   2.825  24.686  0.00  0.00    +0.096 C 
ATOM     14  C   UNL     1      -4.192   2.199  24.691  0.00  0.00    +0.033 C 
ATOM     15  C   UNL     1      -3.764   1.494  24.712  0.00  0.00    +0.100 C 
ATOM     16  C   UNL     1      -2.961   1.684  24.719  0.00  0.00    +0.104 C 
ENDROOT
BRANCH   9   8
ATOM      3  C   UNL     1      -1.476   4.938  25.030  0.00  0.00    +0.154 A 
ATOM      4  C   UNL     1      -0.771   5.367  25.031  0.00  0.00    +0.038 A 
ATOM      5  C   UNL     1      -0.092   5.045  24.691  0.00  0.00    +0.003 A 
ATOM      6  C   UNL     1      -0.118   4.295  24.349  0.00  0.00    +0.002 A 
ATOM      7  C   UNL     1      -0.824   3.866  24.348  0.00  0.00    +0.020 A 
ATOM      8  C   UNL     1      -1.502   4.188  24.688  0.00  0.00    +0.109 A 
BRANCH   3   2
ATOM      1  C   UNL     1      -2.278   6.075  25.354  0.00  0.00    +0.253 C 
ATOM      2  O   UNL     1      -2.155   5.260  25.371  0.00  0.00    -0.470 OA
ENDBRANCH   3   2
ENDBRANCH   9   8
BRANCH  15  17
ATOM     17  C   UNL     1      -4.082   0.734  24.723  0.00  0.00    +0.228 A 
ATOM     18  N   UNL     1      -4.870   0.540  24.874  0.00  0.00    -0.111 NA
ATOM     19  N   UNL     1      -4.944  -0.280  24.830  0.00  0.00    -0.107 NA
ATOM     20  C   UNL     1      -4.202  -0.594  24.651  0.00  0.00    +0.250 A 
ATOM     21  O   UNL     1      -3.669   0.033  24.585  0.00  0.00    -0.419 OA
BRANCH  20  22
ATOM     22  C   UNL     1      -4.024  -1.394  24.554  0.00  0.00    +0.055 A 
ATOM     23  C   UNL     1      -3.579  -1.789  25.127  0.00  0.00    +0.004 A 
ATOM     24  C   UNL     1      -3.401  -2.589  25.030  0.00  0.00    -0.004 A 
ATOM     25  C   UNL     1      -3.667  -2.993  24.362  0.00  0.00    -0.022 A 
ATOM     26  C   UNL     1      -3.488  -3.793  24.267  0.00  0.00    +0.031 C 
ATOM     27  C   UNL     1      -4.111  -2.598  23.791  0.00  0.00    -0.004 A 
ATOM     28  C   UNL     1      -4.289  -1.799  23.886  0.00  0.00    +0.004 A 
ENDBRANCH  20  22
ENDBRANCH  15  17
TORSDOF 4
ENDMDL
