MODEL 1
REMARK VINA RESULT:     -12.4      0.000      0.000
REMARK  Name = 
REMARK  5 active torsions:
REMARK  status: ('A' for Active; 'I' for Inactive)
REMARK    1  A    between atoms: C_2  and  C_5
REMARK    2  A    between atoms: C_8  and  O_9
REMARK    3  A    between atoms: O_9  and  C_10
REMARK    4  A    between atoms: C_17  and  C_19
REMARK    5  A    between atoms: C_22  and  C_25
REMARK                            x       y       z     vdW  Elec       q    Type
REMARK                         _______ _______ _______ _____ _____    ______ ____
ROOT
ATOM     10  C   UNL     1      -2.096   0.659  25.055  0.00  0.00    +0.217 C 
ATOM     11  C   UNL     1      -1.453   0.159  24.923  0.00  0.00    +0.187 C 
ATOM     12  O   UNL     1      -0.722   0.340  24.587  0.00  0.00    -0.348 OA
ATOM     13  C   UNL     1      -0.452   1.065  24.299  0.00  0.00    +0.164 C 
ATOM     14  C   UNL     1      -0.849   1.788  24.278  0.00  0.00    +0.126 C 
ATOM     15  N   UNL     1      -1.612   1.965  24.538  0.00  0.00    -0.270 N 
ATOM     16  C   UNL     1      -2.166   1.462  24.883  0.00  0.00    +0.140 C 
ATOM     17  C   UNL     1      -1.851   2.749  24.439  0.00  0.00    +0.249 C 
ATOM     18  O   UNL     1      -1.337   3.297  24.098  0.00  0.00    -0.270 OA
ENDROOT
BRANCH  17  19
ATOM     19  C   UNL     1      -2.604   2.983  24.680  0.00  0.00    +0.054 A 
ATOM     20  C   UNL     1      -3.231   2.972  24.143  0.00  0.00    +0.005 A 
ATOM     21  C   UNL     1      -3.984   3.207  24.386  0.00  0.00    +0.010 A 
ATOM     22  C   UNL     1      -4.111   3.452  25.163  0.00  0.00    +0.068 A 
ATOM     23  C   UNL     1      -3.484   3.463  25.699  0.00  0.00    +0.010 A 
ATOM     24  C   UNL     1      -2.730   3.229  25.457  0.00  0.00    +0.005 A 
BRANCH  22  25
ATOM     25  C   UNL     1      -4.864   3.687  25.404  0.00  0.00    +0.100 C 
ATOM     26  N   UNL     1      -5.617   3.921  25.645  0.00  0.00    -0.191 NA
ENDBRANCH  22  25
ENDBRANCH  17  19
BRANCH  10   9
ATOM      9  O   UNL     1      -2.755   0.308  25.405  0.00  0.00    -0.460 OA
BRANCH   9   8
ATOM      5  C   UNL     1      -3.827  -1.652  24.339  0.00  0.00    +0.091 A 
ATOM      6  C   UNL     1      -3.423  -1.739  25.053  0.00  0.00    +0.010 A 
ATOM      7  C   UNL     1      -3.067  -1.087  25.408  0.00  0.00    +0.058 A 
ATOM      8  C   UNL     1      -3.113  -0.345  25.050  0.00  0.00    +0.225 A 
ATOM     27  N   UNL     1      -3.517  -0.257  24.335  0.00  0.00    -0.210 NA
ATOM     28  C   UNL     1      -3.873  -0.910  23.980  0.00  0.00    +0.106 A 
BRANCH   5   2
ATOM      1  F   UNL     1      -4.542  -2.959  23.629  0.00  0.00    -0.166 F 
ATOM      2  C   UNL     1      -4.184  -2.305  23.984  0.00  0.00    +0.420 C 
ATOM      3  F   UNL     1      -4.874  -1.867  23.871  0.00  0.00    -0.166 F 
ATOM      4  F   UNL     1      -3.495  -2.744  24.098  0.00  0.00    -0.166 F 
ENDBRANCH   5   2
ENDBRANCH   9   8
ENDBRANCH  10   9
TORSDOF 5
ENDMDL
MODEL 2
REMARK VINA RESULT:     -12.2      1.621      2.895
REMARK  Name = 
REMARK  5 active torsions:
REMARK  status: ('A' for Active; 'I' for Inactive)
REMARK    1  A    between atoms: C_2  and  C_5
REMARK    2  A    between atoms: C_8  and  O_9
REMARK    3  A    between atoms: O_9  and  C_10
REMARK    4  A    between atoms: C_17  and  C_19
REMARK    5  A    between atoms: C_22  and  C_25
REMARK                            x       y       z     vdW  Elec       q    Type
REMARK                         _______ _______ _______ _____ _____    ______ ____
ROOT
ATOM     10  C   UNL     1      -4.455   1.477  24.710  0.00  0.00    +0.217 C 
ATOM     11  C   UNL     1      -5.189   1.101  24.708  0.00  0.00    +0.187 C 
ATOM     12  O   UNL     1      -5.915   1.387  24.975  0.00  0.00    -0.348 OA
ATOM     13  C   UNL     1      -6.086   2.121  25.311  0.00  0.00    +0.164 C 
ATOM     14  C   UNL     1      -5.573   2.749  25.462  0.00  0.00    +0.126 C 
ATOM     15  N   UNL     1      -4.763   2.799  25.314  0.00  0.00    -0.270 N 
ATOM     16  C   UNL     1      -4.266   2.233  24.980  0.00  0.00    +0.140 C 
ATOM     17  C   UNL     1      -4.403   3.510  25.531  0.00  0.00    +0.249 C 
ATOM     18  O   UNL     1      -4.851   4.112  25.870  0.00  0.00    -0.270 OA
ENDROOT
BRANCH  17  19
ATOM     19  C   UNL     1      -3.595   3.616  25.407  0.00  0.00    +0.054 A 
ATOM     20  C   UNL     1      -3.061   3.473  26.020  0.00  0.00    +0.005 A 
ATOM     21  C   UNL     1      -2.252   3.580  25.896  0.00  0.00    +0.010 A 
ATOM     22  C   UNL     1      -1.977   3.829  25.159  0.00  0.00    +0.068 A 
ATOM     23  C   UNL     1      -2.510   3.972  24.546  0.00  0.00    +0.010 A 
ATOM     24  C   UNL     1      -3.319   3.865  24.671  0.00  0.00    +0.005 A 
BRANCH  22  25
ATOM     25  C   UNL     1      -1.168   3.935  25.036  0.00  0.00    +0.100 C 
ATOM     26  N   UNL     1      -0.360   4.041  24.913  0.00  0.00    -0.191 NA
ENDBRANCH  22  25
ENDBRANCH  17  19
BRANCH  10   9
ATOM      9  O   UNL     1      -3.828   1.039  24.401  0.00  0.00    -0.460 OA
BRANCH   9   8
ATOM      5  C   UNL     1      -3.603  -1.363  24.952  0.00  0.00    +0.091 A 
ATOM      6  C   UNL     1      -3.918  -1.134  24.225  0.00  0.00    +0.010 A 
ATOM      7  C   UNL     1      -3.992  -0.334  24.041  0.00  0.00    +0.058 A 
ATOM      8  C   UNL     1      -3.753   0.239  24.584  0.00  0.00    +0.225 A 
ATOM     27  N   UNL     1      -3.438   0.010  25.313  0.00  0.00    -0.210 NA
ATOM     28  C   UNL     1      -3.364  -0.790  25.496  0.00  0.00    +0.106 A 
BRANCH   5   2
ATOM      1  F   UNL     1      -3.454  -2.965  25.319  0.00  0.00    -0.166 F 
ATOM      2  C   UNL     1      -3.528  -2.164  25.136  0.00  0.00    +0.420 C 
ATOM      3  F   UNL     1      -3.637  -1.990  25.935  0.00  0.00    -0.166 F 
ATOM      4  F   UNL     1      -3.420  -2.337  24.336  0.00  0.00    -0.166 F 
ENDBRANCH   5   2
ENDBRANCH   9   8
ENDBRANCH  10   9
TORSDOF 5
ENDMDL
MODEL 3
REMARK VINA RESULT:     -11.8      2.714      4.804
REMARK  Name = 
REMARK  5 active torsions:
REMARK  status: ('A' for Active; 'I' for Inactive)
REMARK    1  A    between atoms: C_2  and  C_5
REMARK    2  A    between atoms: C_8  and  O_9
REMARK    3  A    between atoms: O_9  and  C_10
REMARK    4  A    between atoms: C_17  and  C_19
REMARK    5  A    between atoms: C_22  and  C_25
REMARK                            x       y       z     vdW  Elec       q    Type
REMARK                         _______ _______ _______ _____ _____    ______ ____
ROOT
ATOM     10  C   UNL     1      -3.037   2.048  24.349  0.00  0.00    +0.217 C 
ATOM     11  C   UNL     1      -3.149   2.865  24.337  0.00  0.00    +0.187 C 
ATOM     12  O   UNL     1      -3.841   3.292  24.477  0.00  0.00    -0.348 OA
ATOM     13  C   UNL     1      -4.593   3.007  24.664  0.00  0.00    +0.164 C 
ATOM     14  C   UNL     1      -4.837   2.225  24.756  0.00  0.00    +0.126 C 
ATOM     15  N   UNL     1      -4.391   1.534  24.685  0.00  0.00    -0.270 N 
ATOM     16  C   UNL     1      -3.590   1.456  24.504  0.00  0.00    +0.140 C 
ATOM     17  C   UNL     1      -4.801   0.829  24.813  0.00  0.00    +0.249 C 
ATOM     18  O   UNL     1      -5.604   0.847  24.997  0.00  0.00    -0.270 OA
ENDROOT
BRANCH  17  19
ATOM     19  C   UNL     1      -4.406   0.107  24.755  0.00  0.00    +0.054 A 
ATOM     20  C   UNL     1      -4.110  -0.256  25.435  0.00  0.00    +0.005 A 
ATOM     21  C   UNL     1      -3.715  -0.979  25.377  0.00  0.00    +0.010 A 
ATOM     22  C   UNL     1      -3.615  -1.337  24.640  0.00  0.00    +0.068 A 
ATOM     23  C   UNL     1      -3.910  -0.973  23.961  0.00  0.00    +0.010 A 
ATOM     24  C   UNL     1      -4.306  -0.251  24.019  0.00  0.00    +0.005 A 
BRANCH  22  25
ATOM     25  C   UNL     1      -3.220  -2.058  24.584  0.00  0.00    +0.100 C 
ATOM     26  N   UNL     1      -2.825  -2.780  24.527  0.00  0.00    -0.191 NA
ENDBRANCH  22  25
ENDBRANCH  17  19
BRANCH  10   9
ATOM      9  O   UNL     1      -2.272   1.789  24.185  0.00  0.00    -0.460 OA
BRANCH   9   8
ATOM      5  C   UNL     1      -0.420   2.331  25.735  0.00  0.00    +0.091 A 
ATOM      6  C   UNL     1      -0.653   2.878  25.163  0.00  0.00    +0.010 A 
ATOM      7  C   UNL     1      -1.270   2.697  24.647  0.00  0.00    +0.058 A 
ATOM      8  C   UNL     1      -1.655   1.970  24.702  0.00  0.00    +0.225 A 
ATOM     27  N   UNL     1      -1.422   1.422  25.274  0.00  0.00    -0.210 NA
ATOM     28  C   UNL     1      -0.805   1.603  25.790  0.00  0.00    +0.106 A 
BRANCH   5   2
ATOM      1  F   UNL     1       0.814   2.693  26.769  0.00  0.00    -0.166 F 
ATOM      2  C   UNL     1       0.197   2.512  26.252  0.00  0.00    +0.420 C 
ATOM      3  F   UNL     1       0.744   2.275  25.682  0.00  0.00    -0.166 F 
ATOM      4  F   UNL     1      -0.350   2.750  26.822  0.00  0.00    -0.166 F 
ENDBRANCH   5   2
ENDBRANCH   9   8
ENDBRANCH  10   9
TORSDOF 5
ENDMDL
MODEL 4
REMARK VINA RESULT:     -11.5      2.278      4.370
REMARK  Name = 
REMARK  5 active torsions:
REMARK  status: ('A' for Active; 'I' for Inactive)
REMARK    1  A    between atoms: C_2  and  C_5
REMARK    2  A    between atoms: C_8  and  O_9
REMARK    3  A    between atoms: O_9  and  C_10
REMARK    4  A    between atoms: C_17  and  C_19
REMARK    5  A    between atoms: C_22  and  C_25
REMARK                            x       y       z     vdW  Elec       q    Type
REMARK                         _______ _______ _______ _____ _____    ______ ____
ROOT
ATOM     10  C   UNL     1      -2.270   1.439  24.740  0.00  0.00    +0.217 C 
ATOM     11  C   UNL     1      -1.845   2.125  24.910  0.00  0.00    +0.187 C 
ATOM     12  O   UNL     1      -1.149   2.204  25.345  0.00  0.00    -0.348 OA
ATOM     13  C   UNL     1      -0.706   1.616  25.719  0.00  0.00    +0.164 C 
ATOM     14  C   UNL     1      -0.850   0.805  25.748  0.00  0.00    +0.126 C 
ATOM     15  N   UNL     1      -1.473   0.380  25.412  0.00  0.00    -0.270 N 
ATOM     16  C   UNL     1      -2.104   0.663  24.963  0.00  0.00    +0.140 C 
ATOM     17  C   UNL     1      -1.462  -0.435  25.542  0.00  0.00    +0.249 C 
ATOM     18  O   UNL     1      -0.854  -0.773  25.984  0.00  0.00    -0.270 OA
ENDROOT
BRANCH  17  19
ATOM     19  C   UNL     1      -2.059  -0.910  25.229  0.00  0.00    +0.054 A 
ATOM     20  C   UNL     1      -1.989  -1.210  24.464  0.00  0.00    +0.005 A 
ATOM     21  C   UNL     1      -2.587  -1.685  24.151  0.00  0.00    +0.010 A 
ATOM     22  C   UNL     1      -3.254  -1.860  24.603  0.00  0.00    +0.068 A 
ATOM     23  C   UNL     1      -3.324  -1.560  25.368  0.00  0.00    +0.010 A 
ATOM     24  C   UNL     1      -2.726  -1.085  25.681  0.00  0.00    +0.005 A 
BRANCH  22  25
ATOM     25  C   UNL     1      -3.851  -2.335  24.290  0.00  0.00    +0.100 C 
ATOM     26  N   UNL     1      -4.448  -2.810  23.977  0.00  0.00    -0.191 NA
ENDBRANCH  22  25
ENDBRANCH  17  19
BRANCH  10   9
ATOM      9  O   UNL     1      -2.951   1.544  24.286  0.00  0.00    -0.460 OA
BRANCH   9   8
ATOM      5  C   UNL     1      -4.756   3.036  25.088  0.00  0.00    +0.091 A 
ATOM      6  C   UNL     1      -4.226   3.300  24.514  0.00  0.00    +0.010 A 
ATOM      7  C   UNL     1      -3.625   2.804  24.248  0.00  0.00    +0.058 A 
ATOM      8  C   UNL     1      -3.553   2.041  24.553  0.00  0.00    +0.225 A 
ATOM     27  N   UNL     1      -4.084   1.776  25.127  0.00  0.00    -0.210 NA
ATOM     28  C   UNL     1      -4.684   2.272  25.394  0.00  0.00    +0.106 A 
BRANCH   5   2
ATOM      1  F   UNL     1      -5.959   4.030  25.623  0.00  0.00    -0.166 F 
ATOM      2  C   UNL     1      -5.358   3.533  25.355  0.00  0.00    +0.420 C 
ATOM      3  F   UNL     1      -5.922   2.992  25.090  0.00  0.00    -0.166 F 
ATOM      4  F   UNL     1      -4.794   4.073  25.620  0.00  0.00    -0.166 F 
ENDBRANCH   5   2
ENDBRANCH   9   8
ENDBRANCH  10   9
TORSDOF 5
ENDMDL
MODEL 5
REMARK VINA RESULT:     -11.1      2.284      3.963
REMARK  Name = 
REMARK  5 active torsions:
REMARK  status: ('A' for Active; 'I' for Inactive)
REMARK    1  A    between atoms: C_2  and  C_5
REMARK    2  A    between atoms: C_8  and  O_9
REMARK    3  A    between atoms: O_9  and  C_10
REMARK    4  A    between atoms: C_17  and  C_19
REMARK    5  A    between atoms: C_22  and  C_25
REMARK                            x       y       z     vdW  Elec       q    Type
REMARK                         _______ _______ _______ _____ _____    ______ ____
ROOT
ATOM     10  C   UNL     1      -2.392   2.582  24.540  0.00  0.00    +0.217 C 
ATOM     11  C   UNL     1      -2.537   3.391  24.609  0.00  0.00    +0.187 C 
ATOM     12  O   UNL     1      -2.082   3.965  24.988  0.00  0.00    -0.348 OA
ATOM     13  C   UNL     1      -1.368   3.872  25.392  0.00  0.00    +0.164 C 
ATOM     14  C   UNL     1      -0.935   3.181  25.516  0.00  0.00    +0.126 C 
ATOM     15  N   UNL     1      -1.107   2.413  25.267  0.00  0.00    -0.270 N 
ATOM     16  C   UNL     1      -1.755   2.147  24.833  0.00  0.00    +0.140 C 
ATOM     17  C   UNL     1      -0.557   1.836  25.481  0.00  0.00    +0.249 C 
ATOM     18  O   UNL     1       0.111   2.044  25.916  0.00  0.00    -0.270 OA
ENDROOT
BRANCH  17  19
ATOM     19  C   UNL     1      -0.677   1.051  25.259  0.00  0.00    +0.054 A 
ATOM     20  C   UNL     1      -1.036   0.524  25.785  0.00  0.00    +0.005 A 
ATOM     21  C   UNL     1      -1.156  -0.262  25.563  0.00  0.00    +0.010 A 
ATOM     22  C   UNL     1      -0.919  -0.521  24.816  0.00  0.00    +0.068 A 
ATOM     23  C   UNL     1      -0.561   0.005  24.292  0.00  0.00    +0.010 A 
ATOM     24  C   UNL     1      -0.440   0.791  24.514  0.00  0.00    +0.005 A 
BRANCH  22  25
ATOM     25  C   UNL     1      -1.039  -1.306  24.595  0.00  0.00    +0.100 C 
ATOM     26  N   UNL     1      -1.160  -2.092  24.375  0.00  0.00    -0.191 NA
ENDBRANCH  22  25
ENDBRANCH  17  19
BRANCH  10   9
ATOM      9  O   UNL     1      -2.958   2.151  24.122  0.00  0.00    -0.460 OA
BRANCH   9   8
ATOM      5  C   UNL     1      -5.272   1.986  24.985  0.00  0.00    +0.091 A 
ATOM      6  C   UNL     1      -5.055   2.619  24.503  0.00  0.00    +0.010 A 
ATOM      7  C   UNL     1      -4.285   2.675  24.216  0.00  0.00    +0.058 A 
ATOM      8  C   UNL     1      -3.730   2.096  24.410  0.00  0.00    +0.225 A 
ATOM     27  N   UNL     1      -3.946   1.462  24.892  0.00  0.00    -0.210 NA
ATOM     28  C   UNL     1      -4.717   1.407  25.179  0.00  0.00    +0.106 A 
BRANCH   5   2
ATOM      1  F   UNL     1      -6.815   1.876  25.559  0.00  0.00    -0.166 F 
ATOM      2  C   UNL     1      -6.044   1.931  25.272  0.00  0.00    +0.420 C 
ATOM      3  F   UNL     1      -5.799   2.256  25.990  0.00  0.00    -0.166 F 
ATOM      4  F   UNL     1      -6.288   1.605  24.554  0.00  0.00    -0.166 F 
ENDBRANCH   5   2
ENDBRANCH   9   8
ENDBRANCH  10   9
TORSDOF 5
ENDMDL
