REMARK  Name = 
REMARK  4 active torsions:
REMARK  status: ('A' for Active; 'I' for Inactive)
REMARK    1  A    between atoms: C_6  and  C_7
REMARK    2  A    between atoms: C_7  and  N_8
REMARK    3  A    between atoms: N_14  and  C_15
REMARK    4  A    between atoms: C_15  and  C_16
REMARK                            x       y       z     vdW  Elec       q    Type
REMARK                         _______ _______ _______ _____ _____    ______ ____
ROOT
ATOM      8  N   UNL     1       3.352   1.935   0.000  0.00  0.00    -0.265 NA
ATOM      9  C   UNL     1       3.352   1.110   0.000  0.00  0.00    +0.094 C 
ATOM     10  C   UNL     1       2.638   0.698   0.000  0.00  0.00    +0.112 C 
ATOM     11  N   UNL     1       1.923   1.110   0.000  0.00  0.00    -0.261 N 
ATOM     12  C   UNL     1       1.923   1.935   0.000  0.00  0.00    +0.113 C 
ATOM     13  C   UNL     1       1.139   2.190   0.000  0.00  0.00    +0.116 C 
ATOM     14  N   UNL     1       0.654   1.523   0.000  0.00  0.00    -0.258 N 
ATOM     23  C   UNL     1       1.139   0.856   0.000  0.00  0.00    +0.308 C 
ATOM     24  O   UNL     1       0.884   0.071   0.000  0.00  0.00    -0.252 OA
ATOM     25  C   UNL     1       2.638   2.348   0.000  0.00  0.00    +0.094 C 
ENDROOT
BRANCH   8   7
ATOM      7  C   UNL     1       4.067   2.348   0.000  0.00  0.00    +0.119 C 
BRANCH   7   6
ATOM      1  C   UNL     1       6.925   2.348   0.000  0.00  0.00    +0.052 C 
ATOM      2  C   UNL     1       6.210   1.935   0.000  0.00  0.00    +0.059 A 
ATOM      3  C   UNL     1       6.210   1.110   0.000  0.00  0.00    +0.015 A 
ATOM      4  C   UNL     1       5.496   0.698   0.000  0.00  0.00    +0.002 A 
ATOM      5  C   UNL     1       4.781   1.110   0.000  0.00  0.00    +0.016 A 
ATOM      6  C   UNL     1       4.781   1.935   0.000  0.00  0.00    +0.075 A 
ATOM     26  N   UNL     1       5.496   2.348   0.000  0.00  0.00    -0.253 NA
ENDBRANCH   7   6
ENDBRANCH   8   7
BRANCH  14  15
ATOM     15  C   UNL     1      -0.171   1.523   0.000  0.00  0.00    +0.122 C 
BRANCH  15  16
ATOM     16  C   UNL     1      -0.584   2.237   0.000  0.00  0.00    -0.002 A 
ATOM     17  C   UNL     1      -1.409   2.237   0.000  0.00  0.00    -0.000 A 
ATOM     18  C   UNL     1      -1.821   2.952   0.000  0.00  0.00    +0.029 A 
ATOM     19  C   UNL     1      -1.409   3.666   0.000  0.00  0.00    +0.140 A 
ATOM     20  F   UNL     1      -1.821   4.381   0.000  0.00  0.00    -0.204 F 
ATOM     21  C   UNL     1      -0.584   3.666   0.000  0.00  0.00    +0.029 A 
ATOM     22  C   UNL     1      -0.171   2.952   0.000  0.00  0.00    -0.000 A 
ENDBRANCH  15  16
ENDBRANCH  14  15
TORSDOF 4
