MODEL 1
REMARK VINA RESULT:     -11.0      0.000      0.000
REMARK  Name = 
REMARK  10 active torsions:
REMARK  status: ('A' for Active; 'I' for Inactive)
REMARK    1  A    between atoms: O_2  and  C_3
REMARK    2  A    between atoms: C_6  and  C_7
REMARK    3  A    between atoms: C_7  and  N_8
REMARK    4  A    between atoms: N_8  and  C_9
REMARK    5  A    between atoms: C_9  and  C_10
REMARK    6  A    between atoms: C_12  and  C_13
REMARK    7  A    between atoms: C_13  and  C_14
REMARK    8  A    between atoms: C_17  and  C_18
REMARK    9  A    between atoms: C_18  and  O_19
REMARK   10  A    between atoms: O_19  and  C_20
REMARK                            x       y       z     vdW  Elec       q    Type
REMARK                         _______ _______ _______ _____ _____    ______ ____
ROOT
ATOM     10  C   UNL     1      -2.407   3.529  24.993  0.00  0.00    +0.163 C 
ATOM     11  O   UNL     1      -3.092   3.171  24.707  0.00  0.00    -0.354 OA
ATOM     12  C   UNL     1      -3.832   3.440  24.953  0.00  0.00    +0.121 C 
ATOM     27  C   UNL     1      -3.887   4.069  25.486  0.00  0.00    +0.033 C 
ATOM     28  C   UNL     1      -3.201   4.427  25.772  0.00  0.00    +0.038 C 
ATOM     29  C   UNL     1      -2.461   4.158  25.527  0.00  0.00    +0.180 C 
ATOM     30  O   UNL     1      -1.775   4.516  25.813  0.00  0.00    -0.220 OA
ENDROOT
BRANCH  10   9
ATOM      9  C   UNL     1      -1.666   3.260  24.748  0.00  0.00    +0.121 C 
BRANCH   9   8
ATOM      8  N   UNL     1      -1.486   2.457  24.782  0.00  0.00    -0.211 NA
BRANCH   8   7
ATOM      7  C   UNL     1      -0.797   2.172  24.429  0.00  0.00    +0.115 C 
BRANCH   7   6
ATOM      3  C   UNL     1      -0.383  -0.265  24.309  0.00  0.00    +0.139 A 
ATOM      4  C   UNL     1      -0.444   0.178  23.614  0.00  0.00    +0.037 A 
ATOM      5  C   UNL     1      -0.582   0.990  23.655  0.00  0.00    +0.000 A 
ATOM      6  C   UNL     1      -0.659   1.360  24.388  0.00  0.00    -0.005 A 
ATOM     31  C   UNL     1      -0.597   0.917  25.083  0.00  0.00    +0.000 A 
ATOM     32  C   UNL     1      -0.459   0.104  25.042  0.00  0.00    +0.037 A 
BRANCH   3   2
ATOM      1  C   UNL     1      -0.218  -1.527  24.959  0.00  0.00    +0.252 C 
ATOM      2  O   UNL     1      -0.244  -1.078  24.268  0.00  0.00    -0.471 OA
ENDBRANCH   3   2
ENDBRANCH   7   6
ENDBRANCH   8   7
ENDBRANCH   9   8
ENDBRANCH  10   9
BRANCH  12  13
ATOM     13  C   UNL     1      -4.517   3.082  24.667  0.00  0.00    +0.079 C 
BRANCH  13  14
ATOM     14  C   UNL     1      -4.720   2.321  24.914  0.00  0.00    +0.103 A 
ATOM     15  N   UNL     1      -5.180   2.132  25.572  0.00  0.00    -0.082 NA
ATOM     16  O   UNL     1      -5.242   1.311  25.611  0.00  0.00    -0.354 OA
ATOM     17  C   UNL     1      -4.819   0.992  24.979  0.00  0.00    +0.198 A 
ATOM     26  C   UNL     1      -4.496   1.617  24.547  0.00  0.00    +0.057 A 
BRANCH  17  18
ATOM     18  C   UNL     1      -4.734   0.189  24.807  0.00  0.00    +0.272 C 
BRANCH  18  19
ATOM     19  O   UNL     1      -4.012  -0.187  24.939  0.00  0.00    -0.467 OA
BRANCH  19  20
ATOM     20  C   UNL     1      -3.927  -0.989  24.766  0.00  0.00    +0.139 A 
ATOM     21  C   UNL     1      -3.670  -1.512  25.350  0.00  0.00    +0.037 A 
ATOM     22  C   UNL     1      -3.585  -2.314  25.176  0.00  0.00    +0.003 A 
ATOM     23  C   UNL     1      -3.757  -2.593  24.419  0.00  0.00    +0.000 A 
ATOM     24  C   UNL     1      -4.014  -2.069  23.835  0.00  0.00    +0.003 A 
ATOM     25  C   UNL     1      -4.099  -1.268  24.009  0.00  0.00    +0.037 A 
ENDBRANCH  19  20
ENDBRANCH  18  19
ENDBRANCH  17  18
ENDBRANCH  13  14
ENDBRANCH  12  13
TORSDOF 10
ENDMDL
MODEL 2
REMARK VINA RESULT:     -10.9      1.358      5.525
REMARK  Name = 
REMARK  10 active torsions:
REMARK  status: ('A' for Active; 'I' for Inactive)
REMARK    1  A    between atoms: O_2  and  C_3
REMARK    2  A    between atoms: C_6  and  C_7
REMARK    3  A    between atoms: C_7  and  N_8
REMARK    4  A    between atoms: N_8  and  C_9
REMARK    5  A    between atoms: C_9  and  C_10
REMARK    6  A    between atoms: C_12  and  C_13
REMARK    7  A    between atoms: C_13  and  C_14
REMARK    8  A    between atoms: C_17  and  C_18
REMARK    9  A    between atoms: C_18  and  O_19
REMARK   10  A    between atoms: O_19  and  C_20
REMARK                            x       y       z     vdW  Elec       q    Type
REMARK                         _______ _______ _______ _____ _____    ______ ____
ROOT
ATOM     10  C   UNL     1      -3.128  -1.353  24.847  0.00  0.00    +0.163 C 
ATOM     11  O   UNL     1      -2.494  -0.958  25.197  0.00  0.00    -0.354 OA
ATOM     12  C   UNL     1      -1.741  -1.296  25.187  0.00  0.00    +0.121 C 
ATOM     27  C   UNL     1      -1.623  -2.030  24.827  0.00  0.00    +0.033 C 
ATOM     28  C   UNL     1      -2.258  -2.424  24.477  0.00  0.00    +0.038 C 
ATOM     29  C   UNL     1      -3.010  -2.087  24.487  0.00  0.00    +0.180 C 
ATOM     30  O   UNL     1      -3.644  -2.481  24.137  0.00  0.00    -0.220 OA
ENDROOT
BRANCH  10   9
ATOM      9  C   UNL     1      -3.881  -1.015  24.856  0.00  0.00    +0.121 C 
BRANCH   9   8
ATOM      8  N   UNL     1      -3.966  -0.195  24.865  0.00  0.00    -0.211 NA
BRANCH   8   7
ATOM      7  C   UNL     1      -4.715   0.144  24.803  0.00  0.00    +0.115 C 
BRANCH   7   6
ATOM      3  C   UNL     1      -4.979   2.602  24.915  0.00  0.00    +0.139 A 
ATOM      4  C   UNL     1      -4.541   2.261  24.303  0.00  0.00    +0.037 A 
ATOM      5  C   UNL     1      -4.454   1.442  24.266  0.00  0.00    +0.000 A 
ATOM      6  C   UNL     1      -4.803   0.963  24.840  0.00  0.00    -0.005 A 
ATOM     31  C   UNL     1      -5.240   1.304  25.452  0.00  0.00    +0.000 A 
ATOM     32  C   UNL     1      -5.328   2.124  25.488  0.00  0.00    +0.037 A 
BRANCH   3   2
ATOM      1  C   UNL     1      -5.230   3.787  25.672  0.00  0.00    +0.252 C 
ATOM      2  O   UNL     1      -5.066   3.422  24.951  0.00  0.00    -0.471 OA
ENDBRANCH   3   2
ENDBRANCH   7   6
ENDBRANCH   8   7
ENDBRANCH   9   8
ENDBRANCH  10   9
BRANCH  12  13
ATOM     13  C   UNL     1      -1.107  -0.902  25.537  0.00  0.00    +0.079 C 
BRANCH  13  14
ATOM     14  C   UNL     1      -0.824  -0.202  25.205  0.00  0.00    +0.103 A 
ATOM     15  N   UNL     1      -0.374  -0.139  24.516  0.00  0.00    -0.082 NA
ATOM     16  O   UNL     1      -0.212   0.659  24.390  0.00  0.00    -0.354 OA
ATOM     17  C   UNL     1      -0.562   1.091  25.000  0.00  0.00    +0.198 A 
ATOM     26  C   UNL     1      -0.940   0.559  25.504  0.00  0.00    +0.057 A 
BRANCH  17  18
ATOM     18  C   UNL     1      -0.537   1.911  25.090  0.00  0.00    +0.272 C 
BRANCH  18  19
ATOM     19  O   UNL     1      -1.122   2.381  24.746  0.00  0.00    -0.467 OA
BRANCH  19  20
ATOM     20  C   UNL     1      -1.122   3.196  24.873  0.00  0.00    +0.139 A 
ATOM     21  C   UNL     1      -1.566   3.516  25.492  0.00  0.00    +0.037 A 
ATOM     22  C   UNL     1      -1.566   4.331  25.620  0.00  0.00    +0.003 A 
ATOM     23  C   UNL     1      -1.125   4.826  25.129  0.00  0.00    +0.000 A 
ATOM     24  C   UNL     1      -0.682   4.506  24.511  0.00  0.00    +0.003 A 
ATOM     25  C   UNL     1      -0.681   3.691  24.384  0.00  0.00    +0.037 A 
ENDBRANCH  19  20
ENDBRANCH  18  19
ENDBRANCH  17  18
ENDBRANCH  13  14
ENDBRANCH  12  13
TORSDOF 10
ENDMDL
MODEL 3
REMARK VINA RESULT:     -10.9      1.202      3.687
REMARK  Name = 
REMARK  10 active torsions:
REMARK  status: ('A' for Active; 'I' for Inactive)
REMARK    1  A    between atoms: O_2  and  C_3
REMARK    2  A    between atoms: C_6  and  C_7
REMARK    3  A    between atoms: C_7  and  N_8
REMARK    4  A    between atoms: N_8  and  C_9
REMARK    5  A    between atoms: C_9  and  C_10
REMARK    6  A    between atoms: C_12  and  C_13
REMARK    7  A    between atoms: C_13  and  C_14
REMARK    8  A    between atoms: C_17  and  C_18
REMARK    9  A    between atoms: C_18  and  O_19
REMARK   10  A    between atoms: O_19  and  C_20
REMARK                            x       y       z     vdW  Elec       q    Type
REMARK                         _______ _______ _______ _____ _____    ______ ____
ROOT
ATOM     10  C   UNL     1      -1.567   3.797  25.473  0.00  0.00    +0.163 C 
ATOM     11  O   UNL     1      -1.398   3.024  25.704  0.00  0.00    -0.354 OA
ATOM     12  C   UNL     1      -0.628   2.733  25.643  0.00  0.00    +0.121 C 
ATOM     27  C   UNL     1      -0.027   3.217  25.349  0.00  0.00    +0.033 C 
ATOM     28  C   UNL     1      -0.196   3.991  25.118  0.00  0.00    +0.038 C 
ATOM     29  C   UNL     1      -0.966   4.281  25.180  0.00  0.00    +0.180 C 
ATOM     30  O   UNL     1      -1.135   5.055  24.949  0.00  0.00    -0.220 OA
ENDROOT
BRANCH  10   9
ATOM      9  C   UNL     1      -2.337   4.087  25.535  0.00  0.00    +0.121 C 
BRANCH   9   8
ATOM      8  N   UNL     1      -2.979   3.575  25.467  0.00  0.00    -0.211 NA
BRANCH   8   7
ATOM      7  C   UNL     1      -3.730   3.873  25.302  0.00  0.00    +0.115 C 
BRANCH   7   6
ATOM      3  C   UNL     1      -5.645   2.328  25.032  0.00  0.00    +0.139 A 
ATOM      4  C   UNL     1      -5.054   2.358  24.456  0.00  0.00    +0.037 A 
ATOM      5  C   UNL     1      -4.417   2.873  24.546  0.00  0.00    +0.000 A 
ATOM      6  C   UNL     1      -4.368   3.358  25.211  0.00  0.00    -0.005 A 
ATOM     31  C   UNL     1      -4.959   3.328  25.788  0.00  0.00    +0.000 A 
ATOM     32  C   UNL     1      -5.597   2.813  25.697  0.00  0.00    +0.037 A 
BRANCH   3   2
ATOM      1  C   UNL     1      -6.321   1.121  25.389  0.00  0.00    +0.252 C 
ATOM      2  O   UNL     1      -6.283   1.813  24.941  0.00  0.00    -0.471 OA
ENDBRANCH   3   2
ENDBRANCH   7   6
ENDBRANCH   8   7
ENDBRANCH   9   8
ENDBRANCH  10   9
BRANCH  12  13
ATOM     13  C   UNL     1      -0.459   1.960  25.873  0.00  0.00    +0.079 C 
BRANCH  13  14
ATOM     14  C   UNL     1      -0.674   1.328  25.388  0.00  0.00    +0.103 A 
ATOM     15  N   UNL     1      -0.363   1.162  24.642  0.00  0.00    -0.082 NA
ATOM     16  O   UNL     1      -0.734   0.484  24.357  0.00  0.00    -0.354 OA
ATOM     17  C   UNL     1      -1.274   0.229  24.926  0.00  0.00    +0.198 A 
ATOM     26  C   UNL     1      -1.237   0.751  25.564  0.00  0.00    +0.057 A 
BRANCH  17  18
ATOM     18  C   UNL     1      -1.765  -0.431  24.868  0.00  0.00    +0.272 C 
BRANCH  18  19
ATOM     19  O   UNL     1      -2.585  -0.339  24.881  0.00  0.00    -0.467 OA
BRANCH  19  20
ATOM     20  C   UNL     1      -3.075  -0.969  24.673  0.00  0.00    +0.139 A 
ATOM     21  C   UNL     1      -2.996  -1.696  25.056  0.00  0.00    +0.037 A 
ATOM     22  C   UNL     1      -3.485  -2.326  24.849  0.00  0.00    +0.003 A 
ATOM     23  C   UNL     1      -4.054  -2.231  24.258  0.00  0.00    +0.000 A 
ATOM     24  C   UNL     1      -4.132  -1.504  23.875  0.00  0.00    +0.003 A 
ATOM     25  C   UNL     1      -3.643  -0.873  24.083  0.00  0.00    +0.037 A 
ENDBRANCH  19  20
ENDBRANCH  18  19
ENDBRANCH  17  18
ENDBRANCH  13  14
ENDBRANCH  12  13
TORSDOF 10
ENDMDL
MODEL 4
REMARK VINA RESULT:     -10.5      1.270      4.297
REMARK  Name = 
REMARK  10 active torsions:
REMARK  status: ('A' for Active; 'I' for Inactive)
REMARK    1  A    between atoms: O_2  and  C_3
REMARK    2  A    between atoms: C_6  and  C_7
REMARK    3  A    between atoms: C_7  and  N_8
REMARK    4  A    between atoms: N_8  and  C_9
REMARK    5  A    between atoms: C_9  and  C_10
REMARK    6  A    between atoms: C_12  and  C_13
REMARK    7  A    between atoms: C_13  and  C_14
REMARK    8  A    between atoms: C_17  and  C_18
REMARK    9  A    between atoms: C_18  and  O_19
REMARK   10  A    between atoms: O_19  and  C_20
REMARK                            x       y       z     vdW  Elec       q    Type
REMARK                         _______ _______ _______ _____ _____    ______ ____
ROOT
ATOM     10  C   UNL     1      -1.024  -0.672  24.950  0.00  0.00    +0.163 C 
ATOM     11  O   UNL     1      -1.781  -0.696  25.274  0.00  0.00    -0.354 OA
ATOM     12  C   UNL     1      -2.276  -1.339  25.122  0.00  0.00    +0.121 C 
ATOM     27  C   UNL     1      -2.011  -1.959  24.645  0.00  0.00    +0.033 C 
ATOM     28  C   UNL     1      -1.252  -1.935  24.321  0.00  0.00    +0.038 C 
ATOM     29  C   UNL     1      -0.759  -1.292  24.473  0.00  0.00    +0.180 C 
ATOM     30  O   UNL     1      -0.001  -1.267  24.148  0.00  0.00    -0.220 OA
ENDROOT
BRANCH  10   9
ATOM      9  C   UNL     1      -0.530  -0.028  25.101  0.00  0.00    +0.121 C 
BRANCH   9   8
ATOM      8  N   UNL     1      -0.837   0.736  25.106  0.00  0.00    -0.211 NA
BRANCH   8   7
ATOM      7  C   UNL     1      -0.341   1.380  25.250  0.00  0.00    +0.115 C 
BRANCH   7   6
ATOM      3  C   UNL     1      -1.278   3.669  25.342  0.00  0.00    +0.139 A 
ATOM      4  C   UNL     1      -0.971   3.376  24.633  0.00  0.00    +0.037 A 
ATOM      5  C   UNL     1      -0.659   2.614  24.603  0.00  0.00    +0.000 A 
ATOM      6  C   UNL     1      -0.653   2.143  25.280  0.00  0.00    -0.005 A 
ATOM     31  C   UNL     1      -0.960   2.436  25.989  0.00  0.00    +0.000 A 
ATOM     32  C   UNL     1      -1.272   3.199  26.019  0.00  0.00    +0.037 A 
BRANCH   3   2
ATOM      1  C   UNL     1      -1.180   5.059  25.023  0.00  0.00    +0.252 C 
ATOM      2  O   UNL     1      -1.590   4.433  25.372  0.00  0.00    -0.471 OA
ENDBRANCH   3   2
ENDBRANCH   7   6
ENDBRANCH   8   7
ENDBRANCH   9   8
ENDBRANCH  10   9
BRANCH  12  13
ATOM     13  C   UNL     1      -3.033  -1.363  25.447  0.00  0.00    +0.079 C 
BRANCH  13  14
ATOM     14  C   UNL     1      -3.626  -0.874  25.146  0.00  0.00    +0.103 A 
ATOM     15  N   UNL     1      -4.095  -1.030  24.486  0.00  0.00    -0.082 NA
ATOM     16  O   UNL     1      -4.612  -0.396  24.386  0.00  0.00    -0.354 OA
ATOM     17  C   UNL     1      -4.463   0.152  24.984  0.00  0.00    +0.198 A 
ATOM     26  C   UNL     1      -3.854  -0.143  25.454  0.00  0.00    +0.057 A 
BRANCH  17  18
ATOM     18  C   UNL     1      -4.855   0.871  25.093  0.00  0.00    +0.272 C 
BRANCH  18  19
ATOM     19  O   UNL     1      -4.673   1.517  24.613  0.00  0.00    -0.467 OA
BRANCH  19  20
ATOM     20  C   UNL     1      -4.855   2.281  24.865  0.00  0.00    +0.139 A 
ATOM     21  C   UNL     1      -4.591   2.932  24.432  0.00  0.00    +0.037 A 
ATOM     22  C   UNL     1      -4.773   3.696  24.684  0.00  0.00    +0.003 A 
ATOM     23  C   UNL     1      -5.219   3.810  25.369  0.00  0.00    +0.000 A 
ATOM     24  C   UNL     1      -5.482   3.159  25.802  0.00  0.00    +0.003 A 
ATOM     25  C   UNL     1      -5.300   2.395  25.550  0.00  0.00    +0.037 A 
ENDBRANCH  19  20
ENDBRANCH  18  19
ENDBRANCH  17  18
ENDBRANCH  13  14
ENDBRANCH  12  13
TORSDOF 10
ENDMDL
MODEL 5
REMARK VINA RESULT:     -10.1      1.001      3.550
REMARK  Name = 
REMARK  10 active torsions:
REMARK  status: ('A' for Active; 'I' for Inactive)
REMARK    1  A    between atoms: O_2  and  C_3
REMARK    2  A    between atoms: C_6  and  C_7
REMARK    3  A    between atoms: C_7  and  N_8
REMARK    4  A    between atoms: N_8  and  C_9
REMARK    5  A    between atoms: C_9  and  C_10
REMARK    6  A    between atoms: C_12  and  C_13
REMARK    7  A    between atoms: C_13  and  C_14
REMARK    8  A    between atoms: C_17  and  C_18
REMARK    9  A    between atoms: C_18  and  O_19
REMARK   10  A    between atoms: O_19  and  C_20
REMARK                            x       y       z     vdW  Elec       q    Type
REMARK                         _______ _______ _______ _____ _____    ______ ____
ROOT
ATOM     10  C   UNL     1      -4.569   2.640  25.247  0.00  0.00    +0.163 C 
ATOM     11  O   UNL     1      -3.821   2.856  24.976  0.00  0.00    -0.354 OA
ATOM     12  C   UNL     1      -3.474   3.558  25.238  0.00  0.00    +0.121 C 
ATOM     27  C   UNL     1      -3.877   4.043  25.772  0.00  0.00    +0.033 C 
ATOM     28  C   UNL     1      -4.626   3.826  26.042  0.00  0.00    +0.038 C 
ATOM     29  C   UNL     1      -4.972   3.125  25.780  0.00  0.00    +0.180 C 
ATOM     30  O   UNL     1      -5.721   2.908  26.050  0.00  0.00    -0.220 OA
ENDROOT
BRANCH  10   9
ATOM      9  C   UNL     1      -4.916   1.938  24.985  0.00  0.00    +0.121 C 
BRANCH   9   8
ATOM      8  N   UNL     1      -4.506   1.226  25.049  0.00  0.00    -0.211 NA
BRANCH   8   7
ATOM      7  C   UNL     1      -4.766   0.561  24.635  0.00  0.00    +0.115 C 
BRANCH   7   6
ATOM      3  C   UNL     1      -3.582  -1.598  24.886  0.00  0.00    +0.139 A 
ATOM      4  C   UNL     1      -3.685  -1.105  25.540  0.00  0.00    +0.037 A 
ATOM      5  C   UNL     1      -4.080  -0.386  25.457  0.00  0.00    +0.000 A 
ATOM      6  C   UNL     1      -4.372  -0.158  24.719  0.00  0.00    -0.005 A 
ATOM     31  C   UNL     1      -4.268  -0.651  24.064  0.00  0.00    +0.000 A 
ATOM     32  C   UNL     1      -3.873  -1.370  24.149  0.00  0.00    +0.037 A 
BRANCH   3   2
ATOM      1  C   UNL     1      -3.409  -2.966  24.511  0.00  0.00    +0.252 C 
ATOM      2  O   UNL     1      -3.187  -2.317  24.970  0.00  0.00    -0.471 OA
ENDBRANCH   3   2
ENDBRANCH   7   6
ENDBRANCH   8   7
ENDBRANCH   9   8
ENDBRANCH  10   9
BRANCH  12  13
ATOM     13  C   UNL     1      -2.726   3.774  24.968  0.00  0.00    +0.079 C 
BRANCH  13  14
ATOM     14  C   UNL     1      -2.071   3.308  25.151  0.00  0.00    +0.103 A 
ATOM     15  N   UNL     1      -1.619   3.356  25.839  0.00  0.00    -0.082 NA
ATOM     16  O   UNL     1      -1.021   2.790  25.792  0.00  0.00    -0.354 OA
ATOM     17  C   UNL     1      -1.103   2.392  25.074  0.00  0.00    +0.198 A 
ATOM     26  C   UNL     1      -1.752   2.712  24.678  0.00  0.00    +0.057 A 
BRANCH  17  18
ATOM     18  C   UNL     1      -0.621   1.781  24.800  0.00  0.00    +0.272 C 
BRANCH  18  19
ATOM     19  O   UNL     1      -0.959   1.083  24.518  0.00  0.00    -0.467 OA
BRANCH  19  20
ATOM     20  C   UNL     1      -0.477   0.475  24.239  0.00  0.00    +0.139 A 
ATOM     21  C   UNL     1      -0.438  -0.241  24.648  0.00  0.00    +0.037 A 
ATOM     22  C   UNL     1       0.045  -0.849  24.369  0.00  0.00    +0.003 A 
ATOM     23  C   UNL     1       0.488  -0.742  23.681  0.00  0.00    +0.000 A 
ATOM     24  C   UNL     1       0.448  -0.026  23.273  0.00  0.00    +0.003 A 
ATOM     25  C   UNL     1      -0.034   0.582  23.552  0.00  0.00    +0.037 A 
ENDBRANCH  19  20
ENDBRANCH  18  19
ENDBRANCH  17  18
ENDBRANCH  13  14
ENDBRANCH  12  13
TORSDOF 10
ENDMDL
MODEL 6
REMARK VINA RESULT:     -10.1      1.338      3.842
REMARK  Name = 
REMARK  10 active torsions:
REMARK  status: ('A' for Active; 'I' for Inactive)
REMARK    1  A    between atoms: O_2  and  C_3
REMARK    2  A    between atoms: C_6  and  C_7
REMARK    3  A    between atoms: C_7  and  N_8
REMARK    4  A    between atoms: N_8  and  C_9
REMARK    5  A    between atoms: C_9  and  C_10
REMARK    6  A    between atoms: C_12  and  C_13
REMARK    7  A    between atoms: C_13  and  C_14
REMARK    8  A    between atoms: C_17  and  C_18
REMARK    9  A    between atoms: C_18  and  O_19
REMARK   10  A    between atoms: O_19  and  C_20
REMARK                            x       y       z     vdW  Elec       q    Type
REMARK                         _______ _______ _______ _____ _____    ______ ____
ROOT
ATOM     10  C   UNL     1      -0.285   1.160  24.932  0.00  0.00    +0.163 C 
ATOM     11  O   UNL     1      -0.587   1.742  25.431  0.00  0.00    -0.354 OA
ATOM     12  C   UNL     1      -0.433   2.538  25.279  0.00  0.00    +0.121 C 
ATOM     27  C   UNL     1       0.024   2.753  24.626  0.00  0.00    +0.033 C 
ATOM     28  C   UNL     1       0.327   2.170  24.126  0.00  0.00    +0.038 C 
ATOM     29  C   UNL     1       0.173   1.374  24.279  0.00  0.00    +0.180 C 
ATOM     30  O   UNL     1       0.476   0.792  23.779  0.00  0.00    -0.220 OA
ENDROOT
BRANCH  10   9
ATOM      9  C   UNL     1      -0.438   0.364  25.084  0.00  0.00    +0.121 C 
BRANCH   9   8
ATOM      8  N   UNL     1      -1.216   0.096  25.133  0.00  0.00    -0.211 NA
BRANCH   8   7
ATOM      7  C   UNL     1      -1.385  -0.615  25.517  0.00  0.00    +0.115 C 
BRANCH   7   6
ATOM      3  C   UNL     1      -3.330  -1.973  24.812  0.00  0.00    +0.139 A 
ATOM      4  C   UNL     1      -2.569  -2.184  24.569  0.00  0.00    +0.037 A 
ATOM      5  C   UNL     1      -1.922  -1.731  24.804  0.00  0.00    +0.000 A 
ATOM      6  C   UNL     1      -2.033  -1.068  25.282  0.00  0.00    -0.005 A 
ATOM     31  C   UNL     1      -2.794  -0.857  25.525  0.00  0.00    +0.000 A 
ATOM     32  C   UNL     1      -3.442  -1.310  25.289  0.00  0.00    +0.037 A 
BRANCH   3   2
ATOM      1  C   UNL     1      -4.332  -2.290  23.843  0.00  0.00    +0.252 C 
ATOM      2  O   UNL     1      -3.978  -2.426  24.576  0.00  0.00    -0.471 OA
ENDBRANCH   3   2
ENDBRANCH   7   6
ENDBRANCH   8   7
ENDBRANCH   9   8
ENDBRANCH  10   9
BRANCH  12  13
ATOM     13  C   UNL     1      -0.736   3.120  25.779  0.00  0.00    +0.079 C 
BRANCH  13  14
ATOM     14  C   UNL     1      -1.461   3.475  25.607  0.00  0.00    +0.103 A 
ATOM     15  N   UNL     1      -1.568   4.198  25.224  0.00  0.00    -0.082 NA
ATOM     16  O   UNL     1      -2.378   4.339  25.168  0.00  0.00    -0.354 OA
ATOM     17  C   UNL     1      -2.773   3.703  25.516  0.00  0.00    +0.198 A 
ATOM     26  C   UNL     1      -2.206   3.169  25.787  0.00  0.00    +0.057 A 
BRANCH  17  18
ATOM     18  C   UNL     1      -3.591   3.617  25.580  0.00  0.00    +0.272 C 
BRANCH  18  19
ATOM     19  O   UNL     1      -4.027   3.329  24.942  0.00  0.00    -0.467 OA
BRANCH  19  20
ATOM     20  C   UNL     1      -4.713   2.890  25.075  0.00  0.00    +0.139 A 
ATOM     21  C   UNL     1      -4.821   2.167  24.691  0.00  0.00    +0.037 A 
ATOM     22  C   UNL     1      -5.507   1.728  24.825  0.00  0.00    +0.003 A 
ATOM     23  C   UNL     1      -6.084   2.012  25.343  0.00  0.00    +0.000 A 
ATOM     24  C   UNL     1      -5.975   2.734  25.726  0.00  0.00    +0.003 A 
ATOM     25  C   UNL     1      -5.289   3.173  25.592  0.00  0.00    +0.037 A 
ENDBRANCH  19  20
ENDBRANCH  18  19
ENDBRANCH  17  18
ENDBRANCH  13  14
ENDBRANCH  12  13
TORSDOF 10
ENDMDL
