MODEL 1
REMARK VINA RESULT:     -10.1      0.000      0.000
REMARK  Name = 
REMARK  7 active torsions:
REMARK  status: ('A' for Active; 'I' for Inactive)
REMARK    1  A    between atoms: O_2  and  C_3
REMARK    2  A    between atoms: C_8  and  N_9
REMARK    3  A    between atoms: C_15  and  C_17
REMARK    4  A    between atoms: C_17  and  C_18
REMARK    5  A    between atoms: C_20  and  C_21
REMARK    6  A    between atoms: C_21  and  N_22
REMARK    7  A    between atoms: N_25  and  C_26
REMARK                            x       y       z     vdW  Elec       q    Type
REMARK                         _______ _______ _______ _____ _____    ______ ____
ROOT
ATOM      9  N   UNL     1      -3.555  -1.131  24.569  0.00  0.00    -0.302 N 
ATOM     10  C   UNL     1      -3.841  -0.814  25.275  0.00  0.00    +0.112 C 
ATOM     11  C   UNL     1      -4.235  -0.089  25.271  0.00  0.00    +0.115 C 
ATOM     12  N   UNL     1      -4.344   0.318  24.562  0.00  0.00    -0.276 N 
ATOM     13  C   UNL     1      -4.058   0.001  23.856  0.00  0.00    +0.115 C 
ATOM     14  C   UNL     1      -3.663  -0.724  23.860  0.00  0.00    +0.112 C 
ATOM     15  C   UNL     1      -4.739   1.043  24.559  0.00  0.00    +0.228 C 
ATOM     16  O   UNL     1      -4.847   1.449  23.850  0.00  0.00    -0.275 OA
ENDROOT
BRANCH   9   8
ATOM      3  C   UNL     1      -2.337  -1.876  24.624  0.00  0.00    +0.152 A 
ATOM      4  C   UNL     1      -1.942  -2.601  24.628  0.00  0.00    +0.038 A 
ATOM      5  C   UNL     1      -2.369  -3.305  24.581  0.00  0.00    +0.003 A 
ATOM      6  C   UNL     1      -3.193  -3.283  24.530  0.00  0.00    +0.001 A 
ATOM      7  C   UNL     1      -3.589  -2.560  24.526  0.00  0.00    +0.018 A 
ATOM      8  C   UNL     1      -3.160  -1.856  24.573  0.00  0.00    +0.082 A 
BRANCH   3   2
ATOM      1  C   UNL     1      -1.088  -1.194  24.751  0.00  0.00    +0.253 C 
ATOM      2  O   UNL     1      -1.908  -1.173  24.671  0.00  0.00    -0.470 OA
ENDBRANCH   3   2
ENDBRANCH   9   8
BRANCH  15  17
ATOM     17  C   UNL     1      -5.024   1.360  25.264  0.00  0.00    +0.117 C 
BRANCH  17  18
ATOM     18  C   UNL     1      -4.924   2.163  25.426  0.00  0.00    +0.157 C 
ATOM     19  O   UNL     1      -4.218   2.585  25.369  0.00  0.00    -0.351 OA
ATOM     20  C   UNL     1      -4.371   3.368  25.581  0.00  0.00    +0.170 C 
ATOM     29  C   UNL     1      -5.172   3.428  25.769  0.00  0.00    +0.213 C 
ATOM     30  O   UNL     1      -5.562   4.114  26.011  0.00  0.00    -0.218 OA
ATOM     31  C   UNL     1      -5.514   2.684  25.674  0.00  0.00    +0.212 C 
ATOM     32  O   UNL     1      -6.306   2.494  25.803  0.00  0.00    -0.218 OA
BRANCH  20  21
ATOM     21  C   UNL     1      -3.819   3.981  25.601  0.00  0.00    +0.149 C 
BRANCH  21  22
ATOM     22  N   UNL     1      -3.193   3.991  25.064  0.00  0.00    -0.185 NA
ATOM     23  C   UNL     1      -2.464   4.305  25.286  0.00  0.00    +0.339 C 
ATOM     24  O   UNL     1      -2.361   4.610  26.046  0.00  0.00    -0.249 OA
ATOM     25  N   UNL     1      -1.838   4.316  24.750  0.00  0.00    -0.189 NA
BRANCH  25  26
ATOM     26  C   UNL     1      -1.109   4.630  24.972  0.00  0.00    +0.097 C 
ATOM     27  C   UNL     1      -0.511   4.133  25.248  0.00  0.00    +0.023 C 
ATOM     28  C   UNL     1      -0.977   5.443  24.918  0.00  0.00    +0.023 C 
ENDBRANCH  25  26
ENDBRANCH  21  22
ENDBRANCH  20  21
ENDBRANCH  17  18
ENDBRANCH  15  17
TORSDOF 7
ENDMDL
MODEL 2
REMARK VINA RESULT:      -9.2      1.563      3.380
REMARK  Name = 
REMARK  7 active torsions:
REMARK  status: ('A' for Active; 'I' for Inactive)
REMARK    1  A    between atoms: O_2  and  C_3
REMARK    2  A    between atoms: C_8  and  N_9
REMARK    3  A    between atoms: C_15  and  C_17
REMARK    4  A    between atoms: C_17  and  C_18
REMARK    5  A    between atoms: C_20  and  C_21
REMARK    6  A    between atoms: C_21  and  N_22
REMARK    7  A    between atoms: N_25  and  C_26
REMARK                            x       y       z     vdW  Elec       q    Type
REMARK                         _______ _______ _______ _____ _____    ______ ____
ROOT
ATOM      9  N   UNL     1      -1.838  -0.826  24.867  0.00  0.00    -0.302 N 
ATOM     10  C   UNL     1      -1.717  -0.257  24.281  0.00  0.00    +0.112 C 
ATOM     11  C   UNL     1      -1.343   0.454  24.468  0.00  0.00    +0.115 C 
ATOM     12  N   UNL     1      -1.091   0.597  25.240  0.00  0.00    -0.276 N 
ATOM     13  C   UNL     1      -1.211   0.028  25.825  0.00  0.00    +0.115 C 
ATOM     14  C   UNL     1      -1.585  -0.683  25.639  0.00  0.00    +0.112 C 
ATOM     15  C   UNL     1      -0.717   1.308  25.427  0.00  0.00    +0.228 C 
ATOM     16  O   UNL     1      -0.464   1.451  26.199  0.00  0.00    -0.275 OA
ENDROOT
BRANCH   9   8
ATOM      3  C   UNL     1      -3.031  -1.558  24.582  0.00  0.00    +0.152 A 
ATOM      4  C   UNL     1      -3.405  -2.270  24.394  0.00  0.00    +0.038 A 
ATOM      5  C   UNL     1      -2.962  -2.959  24.305  0.00  0.00    +0.003 A 
ATOM      6  C   UNL     1      -2.142  -2.937  24.403  0.00  0.00    +0.001 A 
ATOM      7  C   UNL     1      -1.767  -2.227  24.590  0.00  0.00    +0.018 A 
ATOM      8  C   UNL     1      -2.212  -1.537  24.680  0.00  0.00    +0.082 A 
BRANCH   3   2
ATOM      1  C   UNL     1      -4.286  -0.879  24.519  0.00  0.00    +0.253 C 
ATOM      2  O   UNL     1      -3.476  -0.869  24.671  0.00  0.00    -0.470 OA
ENDBRANCH   3   2
ENDBRANCH   9   8
BRANCH  15  17
ATOM     17  C   UNL     1      -0.596   1.877  24.842  0.00  0.00    +0.117 C 
BRANCH  17  18
ATOM     18  C   UNL     1      -0.938   2.624  24.916  0.00  0.00    +0.157 C 
ATOM     19  O   UNL     1      -1.723   2.781  25.111  0.00  0.00    -0.351 OA
ATOM     20  C   UNL     1      -1.824   3.600  25.123  0.00  0.00    +0.170 C 
ATOM     29  C   UNL     1      -1.100   3.949  24.935  0.00  0.00    +0.213 C 
ATOM     30  O   UNL     1      -0.952   4.758  24.884  0.00  0.00    -0.218 OA
ATOM     31  C   UNL     1      -0.552   3.346  24.806  0.00  0.00    +0.212 C 
ATOM     32  O   UNL     1       0.241   3.446  24.604  0.00  0.00    -0.218 OA
BRANCH  20  21
ATOM     21  C   UNL     1      -2.526   3.999  25.294  0.00  0.00    +0.149 C 
BRANCH  21  22
ATOM     22  N   UNL     1      -3.235   3.750  24.957  0.00  0.00    -0.185 NA
ATOM     23  C   UNL     1      -3.927   3.749  25.405  0.00  0.00    +0.339 C 
ATOM     24  O   UNL     1      -3.910   3.998  26.191  0.00  0.00    -0.249 OA
ATOM     25  N   UNL     1      -4.638   3.499  25.068  0.00  0.00    -0.189 NA
BRANCH  25  26
ATOM     26  C   UNL     1      -5.330   3.499  25.516  0.00  0.00    +0.097 C 
ATOM     27  C   UNL     1      -5.773   4.190  25.593  0.00  0.00    +0.023 C 
ATOM     28  C   UNL     1      -5.579   2.806  25.887  0.00  0.00    +0.023 C 
ENDBRANCH  25  26
ENDBRANCH  21  22
ENDBRANCH  20  21
ENDBRANCH  17  18
ENDBRANCH  15  17
TORSDOF 7
ENDMDL
MODEL 3
REMARK VINA RESULT:      -8.9      1.767      5.837
REMARK  Name = 
REMARK  7 active torsions:
REMARK  status: ('A' for Active; 'I' for Inactive)
REMARK    1  A    between atoms: O_2  and  C_3
REMARK    2  A    between atoms: C_8  and  N_9
REMARK    3  A    between atoms: C_15  and  C_17
REMARK    4  A    between atoms: C_17  and  C_18
REMARK    5  A    between atoms: C_20  and  C_21
REMARK    6  A    between atoms: C_21  and  N_22
REMARK    7  A    between atoms: N_25  and  C_26
REMARK                            x       y       z     vdW  Elec       q    Type
REMARK                         _______ _______ _______ _____ _____    ______ ____
ROOT
ATOM      9  N   UNL     1      -3.725   2.914  24.598  0.00  0.00    -0.302 N 
ATOM     10  C   UNL     1      -3.064   2.725  25.054  0.00  0.00    +0.112 C 
ATOM     11  C   UNL     1      -2.395   2.401  24.695  0.00  0.00    +0.115 C 
ATOM     12  N   UNL     1      -2.388   2.267  23.881  0.00  0.00    -0.276 N 
ATOM     13  C   UNL     1      -3.049   2.456  23.426  0.00  0.00    +0.115 C 
ATOM     14  C   UNL     1      -3.719   2.780  23.784  0.00  0.00    +0.112 C 
ATOM     15  C   UNL     1      -1.719   1.943  23.522  0.00  0.00    +0.228 C 
ATOM     16  O   UNL     1      -1.712   1.808  22.709  0.00  0.00    -0.275 OA
ENDROOT
BRANCH   9   8
ATOM      3  C   UNL     1      -5.006   2.745  25.208  0.00  0.00    +0.152 A 
ATOM      4  C   UNL     1      -5.675   3.069  25.568  0.00  0.00    +0.038 A 
ATOM      5  C   UNL     1      -5.732   3.884  25.676  0.00  0.00    +0.003 A 
ATOM      6  C   UNL     1      -5.119   4.377  25.425  0.00  0.00    +0.001 A 
ATOM      7  C   UNL     1      -4.451   4.054  25.066  0.00  0.00    +0.018 A 
ATOM      8  C   UNL     1      -4.394   3.238  24.957  0.00  0.00    +0.082 A 
BRANCH   3   2
ATOM      1  C   UNL     1      -5.567   1.438  25.341  0.00  0.00    +0.253 C 
ATOM      2  O   UNL     1      -4.950   1.929  25.100  0.00  0.00    -0.470 OA
ENDBRANCH   3   2
ENDBRANCH   9   8
BRANCH  15  17
ATOM     17  C   UNL     1      -1.058   1.753  23.978  0.00  0.00    +0.117 C 
BRANCH  17  18
ATOM     18  C   UNL     1      -0.814   0.968  24.045  0.00  0.00    +0.157 C 
ATOM     19  O   UNL     1      -1.299   0.323  24.220  0.00  0.00    -0.351 OA
ATOM     20  C   UNL     1      -0.826  -0.354  24.232  0.00  0.00    +0.170 C 
ATOM     29  C   UNL     1      -0.051  -0.127  24.064  0.00  0.00    +0.213 C 
ATOM     30  O   UNL     1       0.601  -0.629  24.020  0.00  0.00    -0.218 OA
ATOM     31  C   UNL     1      -0.044   0.690  23.948  0.00  0.00    +0.212 C 
ATOM     32  O   UNL     1       0.618   1.148  23.768  0.00  0.00    -0.218 OA
BRANCH  20  21
ATOM     21  C   UNL     1      -1.085  -1.122  24.386  0.00  0.00    +0.149 C 
BRANCH  21  22
ATOM     22  N   UNL     1      -1.826  -1.248  24.725  0.00  0.00    -0.185 NA
ATOM     23  C   UNL     1      -2.256  -1.926  24.537  0.00  0.00    +0.339 C 
ATOM     24  O   UNL     1      -1.945  -2.478  24.009  0.00  0.00    -0.249 OA
ATOM     25  N   UNL     1      -2.997  -2.053  24.877  0.00  0.00    -0.189 NA
BRANCH  25  26
ATOM     26  C   UNL     1      -3.427  -2.731  24.689  0.00  0.00    +0.097 C 
ATOM     27  C   UNL     1      -3.298  -3.431  25.107  0.00  0.00    +0.023 C 
ATOM     28  C   UNL     1      -3.986  -2.709  24.083  0.00  0.00    +0.023 C 
ENDBRANCH  25  26
ENDBRANCH  21  22
ENDBRANCH  20  21
ENDBRANCH  17  18
ENDBRANCH  15  17
TORSDOF 7
ENDMDL
MODEL 4
REMARK VINA RESULT:      -8.4      3.126      5.754
REMARK  Name = 
REMARK  7 active torsions:
REMARK  status: ('A' for Active; 'I' for Inactive)
REMARK    1  A    between atoms: O_2  and  C_3
REMARK    2  A    between atoms: C_8  and  N_9
REMARK    3  A    between atoms: C_15  and  C_17
REMARK    4  A    between atoms: C_17  and  C_18
REMARK    5  A    between atoms: C_20  and  C_21
REMARK    6  A    between atoms: C_21  and  N_22
REMARK    7  A    between atoms: N_25  and  C_26
REMARK                            x       y       z     vdW  Elec       q    Type
REMARK                         _______ _______ _______ _____ _____    ______ ____
ROOT
ATOM      9  N   UNL     1      -3.689   2.603  24.744  0.00  0.00    -0.302 N 
ATOM     10  C   UNL     1      -3.217   2.169  25.264  0.00  0.00    +0.112 C 
ATOM     11  C   UNL     1      -2.562   1.756  24.979  0.00  0.00    +0.115 C 
ATOM     12  N   UNL     1      -2.380   1.777  24.174  0.00  0.00    -0.276 N 
ATOM     13  C   UNL     1      -2.851   2.210  23.655  0.00  0.00    +0.115 C 
ATOM     14  C   UNL     1      -3.506   2.624  23.940  0.00  0.00    +0.112 C 
ATOM     15  C   UNL     1      -1.725   1.363  23.890  0.00  0.00    +0.228 C 
ATOM     16  O   UNL     1      -1.542   1.384  23.086  0.00  0.00    -0.275 OA
ENDROOT
BRANCH   9   8
ATOM      3  C   UNL     1      -5.066   2.629  25.124  0.00  0.00    +0.152 A 
ATOM      4  C   UNL     1      -5.721   3.042  25.410  0.00  0.00    +0.038 A 
ATOM      5  C   UNL     1      -5.654   3.842  25.601  0.00  0.00    +0.003 A 
ATOM      6  C   UNL     1      -4.931   4.228  25.507  0.00  0.00    +0.001 A 
ATOM      7  C   UNL     1      -4.276   3.817  25.221  0.00  0.00    +0.018 A 
ATOM      8  C   UNL     1      -4.343   3.016  25.030  0.00  0.00    +0.082 A 
BRANCH   3   2
ATOM      1  C   UNL     1      -5.855   1.442  25.031  0.00  0.00    +0.253 C 
ATOM      2  O   UNL     1      -5.134   1.830  24.933  0.00  0.00    -0.470 OA
ENDBRANCH   3   2
ENDBRANCH   9   8
BRANCH  15  17
ATOM     17  C   UNL     1      -1.253   0.930  24.409  0.00  0.00    +0.117 C 
BRANCH  17  18
ATOM     18  C   UNL     1      -0.648   0.451  24.115  0.00  0.00    +0.157 C 
ATOM     19  O   UNL     1      -0.006   0.704  23.663  0.00  0.00    -0.351 OA
ATOM     20  C   UNL     1       0.459   0.044  23.491  0.00  0.00    +0.170 C 
ATOM     29  C   UNL     1       0.104  -0.615  23.837  0.00  0.00    +0.213 C 
ATOM     30  O   UNL     1       0.385  -1.390  23.802  0.00  0.00    -0.218 OA
ATOM     31  C   UNL     1      -0.580  -0.364  24.223  0.00  0.00    +0.212 C 
ATOM     32  O   UNL     1      -1.104  -0.843  24.642  0.00  0.00    -0.218 OA
BRANCH  20  21
ATOM     21  C   UNL     1       1.157   0.046  23.050  0.00  0.00    +0.149 C 
BRANCH  21  22
ATOM     22  N   UNL     1       1.796   0.508  23.289  0.00  0.00    -0.185 NA
ATOM     23  C   UNL     1       2.528   0.424  22.920  0.00  0.00    +0.339 C 
ATOM     24  O   UNL     1       2.621  -0.124  22.310  0.00  0.00    -0.249 OA
ATOM     25  N   UNL     1       3.168   0.886  23.159  0.00  0.00    -0.189 NA
BRANCH  25  26
ATOM     26  C   UNL     1       3.900   0.802  22.790  0.00  0.00    +0.097 C 
ATOM     27  C   UNL     1       4.020   1.111  22.034  0.00  0.00    +0.023 C 
ATOM     28  C   UNL     1       4.513   0.407  23.175  0.00  0.00    +0.023 C 
ENDBRANCH  25  26
ENDBRANCH  21  22
ENDBRANCH  20  21
ENDBRANCH  17  18
ENDBRANCH  15  17
TORSDOF 7
ENDMDL
MODEL 5
REMARK VINA RESULT:      -8.2      1.787      5.166
REMARK  Name = 
REMARK  7 active torsions:
REMARK  status: ('A' for Active; 'I' for Inactive)
REMARK    1  A    between atoms: O_2  and  C_3
REMARK    2  A    between atoms: C_8  and  N_9
REMARK    3  A    between atoms: C_15  and  C_17
REMARK    4  A    between atoms: C_17  and  C_18
REMARK    5  A    between atoms: C_20  and  C_21
REMARK    6  A    between atoms: C_21  and  N_22
REMARK    7  A    between atoms: N_25  and  C_26
REMARK                            x       y       z     vdW  Elec       q    Type
REMARK                         _______ _______ _______ _____ _____    ______ ____
ROOT
ATOM      9  N   UNL     1      -4.622   1.829  24.951  0.00  0.00    -0.302 N 
ATOM     10  C   UNL     1      -4.355   1.288  25.514  0.00  0.00    +0.112 C 
ATOM     11  C   UNL     1      -4.092   0.543  25.276  0.00  0.00    +0.115 C 
ATOM     12  N   UNL     1      -4.096   0.339  24.477  0.00  0.00    -0.276 N 
ATOM     13  C   UNL     1      -4.362   0.881  23.915  0.00  0.00    +0.115 C 
ATOM     14  C   UNL     1      -4.625   1.626  24.152  0.00  0.00    +0.112 C 
ATOM     15  C   UNL     1      -3.832  -0.406  24.240  0.00  0.00    +0.228 C 
ATOM     16  O   UNL     1      -3.835  -0.609  23.441  0.00  0.00    -0.275 OA
ENDROOT
BRANCH   9   8
ATOM      3  C   UNL     1      -4.359   3.210  25.211  0.00  0.00    +0.152 A 
ATOM      4  C   UNL     1      -4.622   3.954  25.448  0.00  0.00    +0.038 A 
ATOM      5  C   UNL     1      -5.410   4.065  25.664  0.00  0.00    +0.003 A 
ATOM      6  C   UNL     1      -5.936   3.429  25.642  0.00  0.00    +0.001 A 
ATOM      7  C   UNL     1      -5.674   2.685  25.405  0.00  0.00    +0.018 A 
ATOM      8  C   UNL     1      -4.885   2.574  25.189  0.00  0.00    +0.082 A 
BRANCH   3   2
ATOM      1  C   UNL     1      -3.042   3.732  25.028  0.00  0.00    +0.253 C 
ATOM      2  O   UNL     1      -3.570   3.100  24.995  0.00  0.00    -0.470 OA
ENDBRANCH   3   2
ENDBRANCH   9   8
BRANCH  15  17
ATOM     17  C   UNL     1      -3.566  -0.947  24.802  0.00  0.00    +0.117 C 
BRANCH  17  18
ATOM     18  C   UNL     1      -2.823  -1.297  24.720  0.00  0.00    +0.157 C 
ATOM     19  O   UNL     1      -2.122  -0.906  24.527  0.00  0.00    -0.351 OA
ATOM     20  C   UNL     1      -1.516  -1.466  24.503  0.00  0.00    +0.170 C 
ATOM     29  C   UNL     1      -1.844  -2.203  24.681  0.00  0.00    +0.213 C 
ATOM     30  O   UNL     1      -1.434  -2.918  24.719  0.00  0.00    -0.218 OA
ATOM     31  C   UNL     1      -2.651  -2.098  24.815  0.00  0.00    +0.212 C 
ATOM     32  O   UNL     1      -3.191  -2.690  25.010  0.00  0.00    -0.218 OA
BRANCH  20  21
ATOM     21  C   UNL     1      -0.724  -1.316  24.331  0.00  0.00    +0.149 C 
BRANCH  21  22
ATOM     22  N   UNL     1      -0.521  -0.702  23.820  0.00  0.00    -0.185 NA
ATOM     23  C   UNL     1       0.271  -0.517  23.690  0.00  0.00    +0.339 C 
ATOM     24  O   UNL     1       0.863  -0.947  24.072  0.00  0.00    -0.249 OA
ATOM     25  N   UNL     1       0.474   0.098  23.178  0.00  0.00    -0.189 NA
BRANCH  25  26
ATOM     26  C   UNL     1       1.267   0.283  23.048  0.00  0.00    +0.097 C 
ATOM     27  C   UNL     1       1.699  -0.129  22.478  0.00  0.00    +0.023 C 
ATOM     28  C   UNL     1       1.629   0.879  23.489  0.00  0.00    +0.023 C 
ENDBRANCH  25  26
ENDBRANCH  21  22
ENDBRANCH  20  21
ENDBRANCH  17  18
ENDBRANCH  15  17
TORSDOF 7
ENDMDL
