MODEL 1
REMARK VINA RESULT:      -9.8      0.000      0.000
REMARK  Name = 
REMARK  7 active torsions:
REMARK  status: ('A' for Active; 'I' for Inactive)
REMARK    1  A    between atoms: N_2  and  C_4
REMARK    2  A    between atoms: C_7  and  C_10
REMARK    3  A    between atoms: C_14  and  C_16
REMARK    4  A    between atoms: C_23  and  C_24
REMARK    5  A    between atoms: C_24  and  N_25
REMARK    6  A    between atoms: N_25  and  C_26
REMARK    7  A    between atoms: C_26  and  C_27
REMARK                            x       y       z     vdW  Elec       q    Type
REMARK                         _______ _______ _______ _____ _____    ______ ____
ROOT
ATOM     16  C   UNL     1      -0.417   1.044  24.022  0.00  0.00    +0.056 C 
ATOM     17  C   UNL     1       0.026   1.516  23.591  0.00  0.00    +0.078 C 
ATOM     18  N   UNL     1       0.089   0.694  23.635  0.00  0.00    -0.272 NA
ATOM     19  C   UNL     1      -0.650   0.362  24.300  0.00  0.00    +0.072 C 
ATOM     20  C   UNL     1      -0.955  -0.122  24.615  0.00  0.00    +0.018 C 
ATOM     21  C   UNL     1      -0.349   0.238  24.060  0.00  0.00    +0.010 C 
ATOM     22  C   UNL     1       0.196  -0.326  23.666  0.00  0.00    +0.018 C 
ATOM     23  C   UNL     1       0.652   0.102  23.229  0.00  0.00    +0.075 C 
ENDROOT
BRANCH  16  14
ATOM     10  C   UNL     1      -2.200   1.810  24.914  0.00  0.00    +0.102 A 
ATOM     11  N   UNL     1      -1.631   2.057  25.457  0.00  0.00    -0.170 NA
ATOM     12  N   UNL     1      -0.895   1.800  25.190  0.00  0.00    -0.253 N 
ATOM     13  C   UNL     1      -0.171   1.927  25.565  0.00  0.00    +0.153 C 
ATOM     14  C   UNL     1      -1.008   1.395  24.481  0.00  0.00    +0.058 A 
ATOM     15  C   UNL     1      -1.815   1.400  24.309  0.00  0.00    +0.035 A 
BRANCH  10   7
ATOM      4  C   UNL     1      -4.635   2.227  25.066  0.00  0.00    +0.048 A 
ATOM      5  C   UNL     1      -4.345   1.456  25.115  0.00  0.00    +0.015 A 
ATOM      6  C   UNL     1      -3.533   1.317  25.064  0.00  0.00    +0.003 A 
ATOM      7  C   UNL     1      -3.012   1.949  24.965  0.00  0.00    +0.019 A 
ATOM      8  C   UNL     1      -3.302   2.719  24.916  0.00  0.00    +0.003 A 
ATOM      9  C   UNL     1      -4.115   2.858  24.967  0.00  0.00    +0.015 A 
BRANCH   4   2
ATOM      1  C   UNL     1      -5.975   1.874  24.716  0.00  0.00    +0.112 C 
ATOM      2  N   UNL     1      -5.447   2.365  25.117  0.00  0.00    -0.304 N 
ATOM      3  C   UNL     1      -5.731   2.994  25.570  0.00  0.00    +0.112 C 
ENDBRANCH   4   2
ENDBRANCH  10   7
ENDBRANCH  16  14
BRANCH  23  24
ATOM     24  C   UNL     1       1.283   0.056  22.700  0.00  0.00    +0.105 C 
BRANCH  24  25
ATOM     25  N   UNL     1       2.059   0.070  22.981  0.00  0.00    -0.209 NA
BRANCH  25  26
ATOM     26  C   UNL     1       2.689   0.097  22.449  0.00  0.00    +0.153 C 
BRANCH  26  27
ATOM     27  C   UNL     1       3.457   0.215  22.726  0.00  0.00    +0.141 A 
ATOM     28  C   UNL     1       3.880   0.923  22.697  0.00  0.00    +0.038 A 
ATOM     29  C   UNL     1       4.621   0.792  23.034  0.00  0.00    +0.043 A 
ATOM     30  C   UNL     1       4.657   0.003  23.272  0.00  0.00    +0.179 A 
ATOM     31  O   UNL     1       3.937  -0.353  23.082  0.00  0.00    -0.453 OA
ENDBRANCH  26  27
ENDBRANCH  25  26
ENDBRANCH  24  25
ENDBRANCH  23  24
TORSDOF 7
ENDMDL
