REMARK  Name = 
REMARK  8 active torsions:
REMARK  status: ('A' for Active; 'I' for Inactive)
REMARK    1  A    between atoms: C_3  and  C_4
REMARK    2  A    between atoms: C_4  and  N_5
REMARK    3  A    between atoms: N_5  and  C_6
REMARK    4  A    between atoms: C_6  and  C_7
REMARK    5  A    between atoms: C_7  and  C_8
REMARK    6  A    between atoms: C_11  and  C_12
REMARK    7  A    between atoms: C_12  and  O_13
REMARK    8  A    between atoms: O_13  and  C_14
REMARK                            x       y       z     vdW  Elec       q    Type
REMARK                         _______ _______ _______ _____ _____    ______ ____
ROOT
ATOM      7  C   UNL     1       0.863  -4.208   0.000  0.00  0.00    +0.070 C 
ENDROOT
BRANCH   7   8
ATOM      8  C   UNL     1       0.066  -4.421   0.000  0.00  0.00    +0.102 A 
ATOM      9  N   UNL     1      -0.230  -5.192   0.000  0.00  0.00    -0.082 NA
ATOM     10  O   UNL     1      -1.054  -5.149   0.000  0.00  0.00    -0.354 OA
ATOM     11  C   UNL     1      -1.267  -4.352   0.000  0.00  0.00    +0.198 A 
ATOM     20  C   UNL     1      -0.575  -3.902   0.000  0.00  0.00    +0.057 A 
BRANCH  11  12
ATOM     12  C   UNL     1      -2.037  -4.056   0.000  0.00  0.00    +0.272 C 
BRANCH  12  13
ATOM     13  O   UNL     1      -2.679  -4.575   0.000  0.00  0.00    -0.467 OA
BRANCH  13  14
ATOM     14  C   UNL     1      -3.449  -4.279   0.000  0.00  0.00    +0.139 A 
ATOM     15  C   UNL     1      -4.090  -4.799   0.000  0.00  0.00    +0.037 A 
ATOM     16  C   UNL     1      -4.860  -4.503   0.000  0.00  0.00    +0.003 A 
ATOM     17  C   UNL     1      -4.989  -3.688   0.000  0.00  0.00    +0.000 A 
ATOM     18  C   UNL     1      -4.348  -3.169   0.000  0.00  0.00    +0.003 A 
ATOM     19  C   UNL     1      -3.578  -3.465   0.000  0.00  0.00    +0.037 A 
ENDBRANCH  13  14
ENDBRANCH  12  13
ENDBRANCH  11  12
ENDBRANCH   7   8
BRANCH   7   6
ATOM      6  C   UNL     1       1.446  -4.791   0.000  0.00  0.00    +0.120 C 
ATOM     21  C   UNL     1       2.030  -5.375   0.000  0.00  0.00    +0.161 C 
ATOM     22  O   UNL     1       1.446  -5.958   0.000  0.00  0.00    -0.351 OA
ATOM     23  C   UNL     1       0.863  -5.375   0.000  0.00  0.00    +0.161 C 
BRANCH   6   5
ATOM      5  N   UNL     1       2.030  -4.208   0.000  0.00  0.00    -0.211 NA
BRANCH   5   4
ATOM      4  C   UNL     1       1.816  -3.411   0.000  0.00  0.00    +0.118 C 
BRANCH   4   3
ATOM      1  O   UNL     1       3.410  -3.838   0.000  0.00  0.00    -0.287 OA
ATOM      2  C   UNL     1       3.196  -3.041   0.000  0.00  0.00    +0.193 A 
ATOM      3  C   UNL     1       2.399  -2.828   0.000  0.00  0.00    +0.034 A 
ATOM     24  C   UNL     1       2.186  -2.031   0.000  0.00  0.00    +0.000 A 
ATOM     25  C   UNL     1       2.769  -1.448   0.000  0.00  0.00    -0.000 A 
ATOM     26  C   UNL     1       3.566  -1.661   0.000  0.00  0.00    +0.003 A 
ATOM     27  C   UNL     1       3.780  -2.458   0.000  0.00  0.00    +0.042 A 
ENDBRANCH   4   3
ENDBRANCH   5   4
ENDBRANCH   6   5
ENDBRANCH   7   6
TORSDOF 8
