REMARK  Name = 
REMARK  7 active torsions:
REMARK  status: ('A' for Active; 'I' for Inactive)
REMARK    1  A    between atoms: O_2  and  C_3
REMARK    2  A    between atoms: C_3  and  C_5
REMARK    3  A    between atoms: C_18  and  N_29
REMARK    4  A    between atoms: C_20  and  C_22
REMARK    5  A    between atoms: N_29  and  C_30
REMARK    6  A    between atoms: C_30  and  C_31
REMARK    7  A    between atoms: C_31  and  N_32
REMARK                            x       y       z     vdW  Elec       q    Type
REMARK                         _______ _______ _______ _____ _____    ______ ____
ROOT
ATOM      5  C   UNL     1       1.620   1.792   0.000  0.00  0.00    +0.162 C 
ATOM      6  C   UNL     1       2.443   1.745   0.000  0.00  0.00    +0.055 C 
ATOM      7  C   UNL     1       2.814   1.008   0.000  0.00  0.00    -0.004 A 
ATOM      8  C   UNL     1       2.362   0.318   0.000  0.00  0.00    +0.070 A 
ATOM      9  N   UNL     1       2.878  -0.325   0.000  0.00  0.00    -0.249 NA
ATOM     10  C   UNL     1       3.650  -0.034   0.000  0.00  0.00    +0.081 A 
ATOM     11  C   UNL     1       3.610   0.791   0.000  0.00  0.00    +0.015 A 
ATOM     12  C   UNL     1       4.304   1.237   0.000  0.00  0.00    +0.001 A 
ATOM     13  C   UNL     1       5.038   0.859   0.000  0.00  0.00    +0.000 A 
ATOM     14  C   UNL     1       5.077   0.034   0.000  0.00  0.00    +0.002 A 
ATOM     15  C   UNL     1       4.383  -0.412   0.000  0.00  0.00    +0.019 A 
ATOM     16  C   UNL     1       1.538   0.365   0.000  0.00  0.00    +0.100 C 
ATOM     17  C   UNL     1       1.085  -0.324   0.000  0.00  0.00    +0.040 C 
ATOM     18  C   UNL     1       0.262  -0.277   0.000  0.00  0.00    +0.076 C 
ATOM     19  C   UNL     1      -0.109   0.460   0.000  0.00  0.00    +0.038 C 
ATOM     20  C   UNL     1       0.344   1.149   0.000  0.00  0.00    +0.084 C 
ATOM     21  N   UNL     1       1.167   1.102   0.000  0.00  0.00    -0.258 NA
ENDROOT
BRANCH  20  22
ATOM     22  C   UNL     1      -0.028   1.886   0.000  0.00  0.00    +0.020 A 
ATOM     23  C   UNL     1      -0.851   1.933   0.000  0.00  0.00    -0.001 A 
ATOM     24  C   UNL     1      -1.222   2.670   0.000  0.00  0.00    -0.000 A 
ATOM     25  C   UNL     1      -0.769   3.360   0.000  0.00  0.00    +0.002 A 
ATOM     26  C   UNL     1       0.054   3.313   0.000  0.00  0.00    +0.029 A 
ATOM     27  C   UNL     1       0.425   2.576   0.000  0.00  0.00    +0.137 A 
ATOM     28  F   UNL     1       1.196   3.102   0.000  0.00  0.00    -0.204 F 
ENDBRANCH  20  22
BRANCH   5   3
ATOM      3  C   UNL     1       1.423   2.664   0.000  0.00  0.00    +0.332 C 
ATOM      4  O   UNL     1       0.744   3.385   0.000  0.00  0.00    -0.249 OA
BRANCH   3   2
ATOM      1  C   UNL     1       2.723   3.757   0.000  0.00  0.00    +0.256 C 
ATOM      2  O   UNL     1       1.877   3.497   0.000  0.00  0.00    -0.443 OA
ENDBRANCH   3   2
ENDBRANCH   5   3
BRANCH  18  29
ATOM     29  N   UNL     1      -0.246  -0.971   0.000  0.00  0.00    -0.217 NA
BRANCH  29  30
ATOM     30  C   UNL     1       0.093  -1.760   0.000  0.00  0.00    +0.112 C 
BRANCH  30  31
ATOM     31  C   UNL     1      -0.317  -2.498   0.000  0.00  0.00    +0.134 C 
BRANCH  31  32
ATOM     32  N   UNL     1       0.094  -3.248   0.000  0.00  0.00    -0.204 NA
ATOM     33  C   UNL     1      -0.403  -3.945   0.000  0.00  0.00    +0.242 C 
ATOM     34  C   UNL     1      -0.003  -4.687   0.000  0.00  0.00    +0.096 C 
ATOM     35  O   UNL     1      -1.252  -3.944   0.000  0.00  0.00    -0.273 OA
ENDBRANCH  31  32
ENDBRANCH  30  31
ENDBRANCH  29  30
ENDBRANCH  18  29
TORSDOF 7
