MODEL 1
REMARK VINA RESULT:     -10.8      0.000      0.000
REMARK  Name = 
REMARK  6 active torsions:
REMARK  status: ('A' for Active; 'I' for Inactive)
REMARK    1  A    between atoms: C_3  and  N_18
REMARK    2  A    between atoms: C_6  and  C_7
REMARK    3  A    between atoms: C_7  and  N_8
REMARK    4  A    between atoms: C_9  and  C_11
REMARK    5  A    between atoms: N_18  and  C_19
REMARK    6  A    between atoms: C_19  and  C_20
REMARK                            x       y       z     vdW  Elec       q    Type
REMARK                         _______ _______ _______ _____ _____    ______ ____
ROOT
ATOM      1  O   UNL     1      -4.210   1.057  25.434  0.00  0.00    -0.219 OA
ATOM      2  C   UNL     1      -3.835   1.155  24.706  0.00  0.00    +0.199 C 
ATOM      3  C   UNL     1      -3.705   0.566  24.143  0.00  0.00    +0.135 C 
ATOM      4  C   UNL     1      -3.315   0.907  23.502  0.00  0.00    +0.162 C 
ATOM      5  O   UNL     1      -3.202   1.707  23.668  0.00  0.00    -0.350 OA
ATOM      6  C   UNL     1      -3.524   1.861  24.412  0.00  0.00    +0.169 C 
ENDROOT
BRANCH   6   7
ATOM      7  C   UNL     1      -3.533   2.591  24.795  0.00  0.00    +0.148 C 
BRANCH   7   8
ATOM      8  N   UNL     1      -2.890   3.103  24.721  0.00  0.00    -0.199 NA
ATOM      9  C   UNL     1      -2.814   3.746  25.233  0.00  0.00    +0.265 C 
ATOM     10  O   UNL     1      -3.381   3.877  25.818  0.00  0.00    -0.268 OA
BRANCH   9  11
ATOM     11  C   UNL     1      -2.172   4.259  25.159  0.00  0.00    +0.055 A 
ATOM     12  C   UNL     1      -2.295   5.074  25.144  0.00  0.00    +0.007 A 
ATOM     13  C   UNL     1      -1.652   5.586  25.071  0.00  0.00    +0.030 A 
ATOM     14  C   UNL     1      -0.887   5.283  25.011  0.00  0.00    +0.140 A 
ATOM     15  F   UNL     1      -0.244   5.795  24.938  0.00  0.00    -0.204 F 
ATOM     16  C   UNL     1      -0.764   4.467  25.026  0.00  0.00    +0.030 A 
ATOM     17  C   UNL     1      -1.407   3.955  25.100  0.00  0.00    +0.007 A 
ENDBRANCH   9  11
ENDBRANCH   7   8
ENDBRANCH   6   7
BRANCH   3  18
ATOM     18  N   UNL     1      -3.928  -0.226  24.211  0.00  0.00    -0.209 NA
BRANCH  18  19
ATOM     19  C   UNL     1      -3.352  -0.815  24.249  0.00  0.00    +0.118 C 
BRANCH  19  20
ATOM     20  C   UNL     1      -3.572  -1.609  24.235  0.00  0.00    +0.034 A 
ATOM     21  C   UNL     1      -3.104  -2.174  24.613  0.00  0.00    +0.193 A 
ATOM     22  O   UNL     1      -2.416  -1.944  25.005  0.00  0.00    -0.287 OA
ATOM     23  C   UNL     1      -3.324  -2.969  24.600  0.00  0.00    +0.042 A 
ATOM     24  C   UNL     1      -4.013  -3.199  24.209  0.00  0.00    +0.003 A 
ATOM     25  C   UNL     1      -4.481  -2.635  23.830  0.00  0.00    -0.000 A 
ATOM     26  C   UNL     1      -4.260  -1.840  23.844  0.00  0.00    +0.000 A 
ENDBRANCH  19  20
ENDBRANCH  18  19
ENDBRANCH   3  18
TORSDOF 6
ENDMDL
MODEL 2
REMARK VINA RESULT:     -10.7      1.754      2.042
REMARK  Name = 
REMARK  6 active torsions:
REMARK  status: ('A' for Active; 'I' for Inactive)
REMARK    1  A    between atoms: C_3  and  N_18
REMARK    2  A    between atoms: C_6  and  C_7
REMARK    3  A    between atoms: C_7  and  N_8
REMARK    4  A    between atoms: C_9  and  C_11
REMARK    5  A    between atoms: N_18  and  C_19
REMARK    6  A    between atoms: C_19  and  C_20
REMARK                            x       y       z     vdW  Elec       q    Type
REMARK                         _______ _______ _______ _____ _____    ______ ____
ROOT
ATOM      1  O   UNL     1      -1.659   0.186  26.052  0.00  0.00    -0.219 OA
ATOM      2  C   UNL     1      -1.361   0.243  25.285  0.00  0.00    +0.199 C 
ATOM      3  C   UNL     1      -1.489  -0.294  24.673  0.00  0.00    +0.135 C 
ATOM      4  C   UNL     1      -1.089  -0.022  24.006  0.00  0.00    +0.162 C 
ATOM      5  O   UNL     1      -0.712   0.685  24.205  0.00  0.00    -0.350 OA
ATOM      6  C   UNL     1      -0.880   0.849  24.996  0.00  0.00    +0.169 C 
ENDROOT
BRANCH   6   7
ATOM      7  C   UNL     1      -0.615   1.503  25.422  0.00  0.00    +0.148 C 
BRANCH   7   8
ATOM      8  N   UNL     1      -0.894   2.256  25.237  0.00  0.00    -0.199 NA
ATOM      9  C   UNL     1      -0.589   2.917  25.627  0.00  0.00    +0.265 C 
ATOM     10  O   UNL     1      -0.005   2.822  26.202  0.00  0.00    -0.268 OA
BRANCH   9  11
ATOM     11  C   UNL     1      -0.869   3.671  25.443  0.00  0.00    +0.055 A 
ATOM     12  C   UNL     1      -0.406   4.183  24.991  0.00  0.00    +0.007 A 
ATOM     13  C   UNL     1      -0.685   4.937  24.807  0.00  0.00    +0.030 A 
ATOM     14  C   UNL     1      -1.428   5.178  25.073  0.00  0.00    +0.140 A 
ATOM     15  F   UNL     1      -1.708   5.932  24.888  0.00  0.00    -0.204 F 
ATOM     16  C   UNL     1      -1.891   4.666  25.524  0.00  0.00    +0.030 A 
ATOM     17  C   UNL     1      -1.612   3.912  25.709  0.00  0.00    +0.007 A 
ENDBRANCH   9  11
ENDBRANCH   7   8
ENDBRANCH   6   7
BRANCH   3  18
ATOM     18  N   UNL     1      -1.940  -0.984  24.720  0.00  0.00    -0.209 NA
BRANCH  18  19
ATOM     19  C   UNL     1      -2.643  -1.048  24.294  0.00  0.00    +0.118 C 
BRANCH  19  20
ATOM     20  C   UNL     1      -3.074  -1.751  24.310  0.00  0.00    +0.034 A 
ATOM     21  C   UNL     1      -3.844  -1.771  24.016  0.00  0.00    +0.193 A 
ATOM     22  O   UNL     1      -4.184  -1.086  23.706  0.00  0.00    -0.287 OA
ATOM     23  C   UNL     1      -4.275  -2.473  24.033  0.00  0.00    +0.042 A 
ATOM     24  C   UNL     1      -3.935  -3.158  24.344  0.00  0.00    +0.003 A 
ATOM     25  C   UNL     1      -3.164  -3.139  24.638  0.00  0.00    -0.000 A 
ATOM     26  C   UNL     1      -2.734  -2.436  24.621  0.00  0.00    +0.000 A 
ENDBRANCH  19  20
ENDBRANCH  18  19
ENDBRANCH   3  18
TORSDOF 6
ENDMDL
MODEL 3
REMARK VINA RESULT:     -10.5      2.489      6.267
REMARK  Name = 
REMARK  6 active torsions:
REMARK  status: ('A' for Active; 'I' for Inactive)
REMARK    1  A    between atoms: C_3  and  N_18
REMARK    2  A    between atoms: C_6  and  C_7
REMARK    3  A    between atoms: C_7  and  N_8
REMARK    4  A    between atoms: C_9  and  C_11
REMARK    5  A    between atoms: N_18  and  C_19
REMARK    6  A    between atoms: C_19  and  C_20
REMARK                            x       y       z     vdW  Elec       q    Type
REMARK                         _______ _______ _______ _____ _____    ______ ____
ROOT
ATOM      1  O   UNL     1      -0.987   1.227  23.867  0.00  0.00    -0.219 OA
ATOM      2  C   UNL     1      -0.984   1.120  24.685  0.00  0.00    +0.199 C 
ATOM      3  C   UNL     1      -0.922   1.717  25.251  0.00  0.00    +0.135 C 
ATOM      4  C   UNL     1      -0.942   1.363  25.996  0.00  0.00    +0.162 C 
ATOM      5  O   UNL     1      -1.016   0.549  25.890  0.00  0.00    -0.350 OA
ATOM      6  C   UNL     1      -1.042   0.398  25.080  0.00  0.00    +0.169 C 
ENDROOT
BRANCH   6   7
ATOM      7  C   UNL     1      -1.113  -0.343  24.726  0.00  0.00    +0.148 C 
BRANCH   7   8
ATOM      8  N   UNL     1      -1.858  -0.683  24.628  0.00  0.00    -0.199 NA
ATOM      9  C   UNL     1      -1.925  -1.476  24.409  0.00  0.00    +0.265 C 
ATOM     10  O   UNL     1      -1.245  -1.928  24.288  0.00  0.00    -0.268 OA
BRANCH   9  11
ATOM     11  C   UNL     1      -2.670  -1.816  24.311  0.00  0.00    +0.055 A 
ATOM     12  C   UNL     1      -2.809  -2.587  24.569  0.00  0.00    +0.007 A 
ATOM     13  C   UNL     1      -3.554  -2.927  24.471  0.00  0.00    +0.030 A 
ATOM     14  C   UNL     1      -4.160  -2.496  24.114  0.00  0.00    +0.140 A 
ATOM     15  F   UNL     1      -4.906  -2.836  24.016  0.00  0.00    -0.204 F 
ATOM     16  C   UNL     1      -4.022  -1.725  23.856  0.00  0.00    +0.030 A 
ATOM     17  C   UNL     1      -3.276  -1.385  23.954  0.00  0.00    +0.007 A 
ENDBRANCH   9  11
ENDBRANCH   7   8
ENDBRANCH   6   7
BRANCH   3  18
ATOM     18  N   UNL     1      -0.853   2.525  25.099  0.00  0.00    -0.209 NA
BRANCH  18  19
ATOM     19  C   UNL     1      -1.300   3.066  25.533  0.00  0.00    +0.118 C 
BRANCH  19  20
ATOM     20  C   UNL     1      -1.288   3.866  25.332  0.00  0.00    +0.034 A 
ATOM     21  C   UNL     1      -1.923   4.352  25.533  0.00  0.00    +0.193 A 
ATOM     22  O   UNL     1      -2.571   4.038  25.936  0.00  0.00    -0.287 OA
ATOM     23  C   UNL     1      -1.912   5.151  25.332  0.00  0.00    +0.042 A 
ATOM     24  C   UNL     1      -1.264   5.466  24.930  0.00  0.00    +0.003 A 
ATOM     25  C   UNL     1      -0.628   4.981  24.728  0.00  0.00    -0.000 A 
ATOM     26  C   UNL     1      -0.640   4.180  24.929  0.00  0.00    +0.000 A 
ENDBRANCH  19  20
ENDBRANCH  18  19
ENDBRANCH   3  18
TORSDOF 6
ENDMDL
MODEL 4
REMARK VINA RESULT:     -10.3      2.198      6.013
REMARK  Name = 
REMARK  6 active torsions:
REMARK  status: ('A' for Active; 'I' for Inactive)
REMARK    1  A    between atoms: C_3  and  N_18
REMARK    2  A    between atoms: C_6  and  C_7
REMARK    3  A    between atoms: C_7  and  N_8
REMARK    4  A    between atoms: C_9  and  C_11
REMARK    5  A    between atoms: N_18  and  C_19
REMARK    6  A    between atoms: C_19  and  C_20
REMARK                            x       y       z     vdW  Elec       q    Type
REMARK                         _______ _______ _______ _____ _____    ______ ____
ROOT
ATOM      1  O   UNL     1      -3.864   2.156  25.346  0.00  0.00    -0.219 OA
ATOM      2  C   UNL     1      -3.512   2.010  24.614  0.00  0.00    +0.199 C 
ATOM      3  C   UNL     1      -2.968   2.498  24.232  0.00  0.00    +0.135 C 
ATOM      4  C   UNL     1      -2.762   2.140  23.518  0.00  0.00    +0.162 C 
ATOM      5  O   UNL     1      -3.179   1.431  23.459  0.00  0.00    -0.350 OA
ATOM      6  C   UNL     1      -3.642   1.350  24.136  0.00  0.00    +0.169 C 
ENDROOT
BRANCH   6   7
ATOM      7  C   UNL     1      -4.147   0.721  24.306  0.00  0.00    +0.148 C 
BRANCH   7   8
ATOM      8  N   UNL     1      -3.854  -0.050  24.321  0.00  0.00    -0.199 NA
ATOM      9  C   UNL     1      -4.371  -0.686  24.425  0.00  0.00    +0.265 C 
ATOM     10  O   UNL     1      -5.179  -0.550  24.515  0.00  0.00    -0.268 OA
BRANCH   9  11
ATOM     11  C   UNL     1      -4.078  -1.457  24.440  0.00  0.00    +0.055 A 
ATOM     12  C   UNL     1      -4.224  -1.966  23.806  0.00  0.00    +0.007 A 
ATOM     13  C   UNL     1      -3.931  -2.737  23.821  0.00  0.00    +0.030 A 
ATOM     14  C   UNL     1      -3.492  -2.999  24.469  0.00  0.00    +0.140 A 
ATOM     15  F   UNL     1      -3.199  -3.770  24.484  0.00  0.00    -0.204 F 
ATOM     16  C   UNL     1      -3.346  -2.491  25.102  0.00  0.00    +0.030 A 
ATOM     17  C   UNL     1      -3.639  -1.720  25.088  0.00  0.00    +0.007 A 
ENDBRANCH   9  11
ENDBRANCH   7   8
ENDBRANCH   6   7
BRANCH   3  18
ATOM     18  N   UNL     1      -2.680   3.218  24.514  0.00  0.00    -0.209 NA
BRANCH  18  19
ATOM     19  C   UNL     1      -1.873   3.314  24.655  0.00  0.00    +0.118 C 
BRANCH  19  20
ATOM     20  C   UNL     1      -1.564   4.065  24.794  0.00  0.00    +0.034 A 
ATOM     21  C   UNL     1      -0.759   4.208  24.685  0.00  0.00    +0.193 A 
ATOM     22  O   UNL     1      -0.262   3.598  24.437  0.00  0.00    -0.287 OA
ATOM     23  C   UNL     1      -0.450   4.959  24.825  0.00  0.00    +0.042 A 
ATOM     24  C   UNL     1      -0.947   5.569  25.073  0.00  0.00    +0.003 A 
ATOM     25  C   UNL     1      -1.752   5.428  25.182  0.00  0.00    -0.000 A 
ATOM     26  C   UNL     1      -2.061   4.675  25.043  0.00  0.00    +0.000 A 
ENDBRANCH  19  20
ENDBRANCH  18  19
ENDBRANCH   3  18
TORSDOF 6
ENDMDL
MODEL 5
REMARK VINA RESULT:      -8.6      3.372      4.925
REMARK  Name = 
REMARK  6 active torsions:
REMARK  status: ('A' for Active; 'I' for Inactive)
REMARK    1  A    between atoms: C_3  and  N_18
REMARK    2  A    between atoms: C_6  and  C_7
REMARK    3  A    between atoms: C_7  and  N_8
REMARK    4  A    between atoms: C_9  and  C_11
REMARK    5  A    between atoms: N_18  and  C_19
REMARK    6  A    between atoms: C_19  and  C_20
REMARK                            x       y       z     vdW  Elec       q    Type
REMARK                         _______ _______ _______ _____ _____    ______ ____
ROOT
ATOM      1  O   UNL     1      -2.322   0.271  24.996  0.00  0.00    -0.219 OA
ATOM      2  C   UNL     1      -2.163   0.806  24.388  0.00  0.00    +0.199 C 
ATOM      3  C   UNL     1      -2.646   1.433  24.156  0.00  0.00    +0.135 C 
ATOM      4  C   UNL     1      -2.275   1.822  23.531  0.00  0.00    +0.162 C 
ATOM      5  O   UNL     1      -1.563   1.436  23.377  0.00  0.00    -0.350 OA
ATOM      6  C   UNL     1      -1.493   0.808  23.906  0.00  0.00    +0.169 C 
ENDROOT
BRANCH   6   7
ATOM      7  C   UNL     1      -0.865   0.275  23.947  0.00  0.00    +0.148 C 
BRANCH   7   8
ATOM      8  N   UNL     1      -0.154   0.446  23.565  0.00  0.00    -0.199 NA
ATOM      9  C   UNL     1       0.449  -0.117  23.544  0.00  0.00    +0.265 C 
ATOM     10  O   UNL     1       0.340  -0.851  23.906  0.00  0.00    -0.268 OA
BRANCH   9  11
ATOM     11  C   UNL     1       1.160   0.054  23.163  0.00  0.00    +0.055 A 
ATOM     12  C   UNL     1       1.684   0.598  23.493  0.00  0.00    +0.007 A 
ATOM     13  C   UNL     1       2.395   0.769  23.111  0.00  0.00    +0.030 A 
ATOM     14  C   UNL     1       2.582   0.395  22.399  0.00  0.00    +0.140 A 
ATOM     15  F   UNL     1       3.293   0.566  22.017  0.00  0.00    -0.204 F 
ATOM     16  C   UNL     1       2.057  -0.150  22.069  0.00  0.00    +0.030 A 
ATOM     17  C   UNL     1       1.346  -0.320  22.451  0.00  0.00    +0.007 A 
ENDBRANCH   9  11
ENDBRANCH   7   8
ENDBRANCH   6   7
BRANCH   3  18
ATOM     18  N   UNL     1      -3.373   1.636  24.491  0.00  0.00    -0.209 NA
BRANCH  18  19
ATOM     19  C   UNL     1      -3.599   2.427  24.538  0.00  0.00    +0.118 C 
BRANCH  19  20
ATOM     20  C   UNL     1      -4.322   2.630  24.878  0.00  0.00    +0.034 A 
ATOM     21  C   UNL     1      -4.400   3.340  25.292  0.00  0.00    +0.193 A 
ATOM     22  O   UNL     1      -3.753   3.847  25.366  0.00  0.00    -0.287 OA
ATOM     23  C   UNL     1      -5.123   3.543  25.633  0.00  0.00    +0.042 A 
ATOM     24  C   UNL     1      -5.769   3.036  25.559  0.00  0.00    +0.003 A 
ATOM     25  C   UNL     1      -5.693   2.326  25.146  0.00  0.00    -0.000 A 
ATOM     26  C   UNL     1      -4.969   2.124  24.805  0.00  0.00    +0.000 A 
ENDBRANCH  19  20
ENDBRANCH  18  19
ENDBRANCH   3  18
TORSDOF 6
ENDMDL
MODEL 6
REMARK VINA RESULT:      -7.6     14.598     16.751
REMARK  Name = 
REMARK  6 active torsions:
REMARK  status: ('A' for Active; 'I' for Inactive)
REMARK    1  A    between atoms: C_3  and  N_18
REMARK    2  A    between atoms: C_6  and  C_7
REMARK    3  A    between atoms: C_7  and  N_8
REMARK    4  A    between atoms: C_9  and  C_11
REMARK    5  A    between atoms: N_18  and  C_19
REMARK    6  A    between atoms: C_19  and  C_20
REMARK                            x       y       z     vdW  Elec       q    Type
REMARK                         _______ _______ _______ _____ _____    ______ ____
ROOT
ATOM      1  O   UNL     1      -3.033 -10.781  14.520  0.00  0.00    -0.219 OA
ATOM      2  C   UNL     1      -3.798 -10.635  14.249  0.00  0.00    +0.199 C 
ATOM      3  C   UNL     1      -4.469 -10.540  14.719  0.00  0.00    +0.135 C 
ATOM      4  C   UNL     1      -5.112 -10.404  14.220  0.00  0.00    +0.162 C 
ATOM      5  O   UNL     1      -4.838 -10.415  13.442  0.00  0.00    -0.350 OA
ATOM      6  C   UNL     1      -4.026 -10.557  13.459  0.00  0.00    +0.169 C 
ENDROOT
BRANCH   6   7
ATOM      7  C   UNL     1      -3.529 -10.613  12.804  0.00  0.00    +0.148 C 
BRANCH   7   8
ATOM      8  N   UNL     1      -3.762 -10.289  12.082  0.00  0.00    -0.199 NA
ATOM      9  C   UNL     1      -3.275 -10.363  11.420  0.00  0.00    +0.265 C 
ATOM     10  O   UNL     1      -2.555 -10.761  11.481  0.00  0.00    -0.268 OA
BRANCH   9  11
ATOM     11  C   UNL     1      -3.507 -10.039  10.698  0.00  0.00    +0.055 A 
ATOM     12  C   UNL     1      -3.940 -10.494  10.162  0.00  0.00    +0.007 A 
ATOM     13  C   UNL     1      -4.172 -10.170   9.440  0.00  0.00    +0.030 A 
ATOM     14  C   UNL     1      -3.973  -9.391   9.254  0.00  0.00    +0.140 A 
ATOM     15  F   UNL     1      -4.205  -9.067   8.532  0.00  0.00    -0.204 F 
ATOM     16  C   UNL     1      -3.540  -8.936   9.789  0.00  0.00    +0.030 A 
ATOM     17  C   UNL     1      -3.307  -9.260  10.511  0.00  0.00    +0.007 A 
ENDBRANCH   9  11
ENDBRANCH   7   8
ENDBRANCH   6   7
BRANCH   3  18
ATOM     18  N   UNL     1      -4.493 -10.575  15.543  0.00  0.00    -0.209 NA
BRANCH  18  19
ATOM     19  C   UNL     1      -5.180 -10.359  15.945  0.00  0.00    +0.118 C 
BRANCH  19  20
ATOM     20  C   UNL     1      -5.228 -10.456  16.763  0.00  0.00    +0.034 A 
ATOM     21  C   UNL     1      -5.942 -10.325  17.154  0.00  0.00    +0.193 A 
ATOM     22  O   UNL     1      -6.610 -10.097  16.726  0.00  0.00    -0.287 OA
ATOM     23  C   UNL     1      -5.990 -10.422  17.971  0.00  0.00    +0.042 A 
ATOM     24  C   UNL     1      -5.322 -10.650  18.398  0.00  0.00    +0.003 A 
ATOM     25  C   UNL     1      -4.607 -10.781  18.008  0.00  0.00    -0.000 A 
ATOM     26  C   UNL     1      -4.560 -10.684  17.190  0.00  0.00    +0.000 A 
ENDBRANCH  19  20
ENDBRANCH  18  19
ENDBRANCH   3  18
TORSDOF 6
ENDMDL
MODEL 7
REMARK VINA RESULT:      -7.2     14.184     15.023
REMARK  Name = 
REMARK  6 active torsions:
REMARK  status: ('A' for Active; 'I' for Inactive)
REMARK    1  A    between atoms: C_3  and  N_18
REMARK    2  A    between atoms: C_6  and  C_7
REMARK    3  A    between atoms: C_7  and  N_8
REMARK    4  A    between atoms: C_9  and  C_11
REMARK    5  A    between atoms: N_18  and  C_19
REMARK    6  A    between atoms: C_19  and  C_20
REMARK                            x       y       z     vdW  Elec       q    Type
REMARK                         _______ _______ _______ _____ _____    ______ ____
ROOT
ATOM      1  O   UNL     1      -4.831 -10.451  17.946  0.00  0.00    -0.219 OA
ATOM      2  C   UNL     1      -5.145 -10.420  17.183  0.00  0.00    +0.199 C 
ATOM      3  C   UNL     1      -4.718 -10.471  16.480  0.00  0.00    +0.135 C 
ATOM      4  C   UNL     1      -5.250 -10.416  15.853  0.00  0.00    +0.162 C 
ATOM      5  O   UNL     1      -6.008 -10.331  16.169  0.00  0.00    -0.350 OA
ATOM      6  C   UNL     1      -5.943 -10.333  16.991  0.00  0.00    +0.169 C 
ENDROOT
BRANCH   6   7
ATOM      7  C   UNL     1      -6.566 -10.261  17.526  0.00  0.00    +0.148 C 
BRANCH   7   8
ATOM      8  N   UNL     1      -7.267  -9.892  17.296  0.00  0.00    -0.199 NA
ATOM      9  C   UNL     1      -7.910  -9.869  17.813  0.00  0.00    +0.265 C 
ATOM     10  O   UNL     1      -7.851 -10.215  18.560  0.00  0.00    -0.268 OA
BRANCH   9  11
ATOM     11  C   UNL     1      -8.611  -9.500  17.583  0.00  0.00    +0.055 A 
ATOM     12  C   UNL     1      -8.602  -8.708  17.349  0.00  0.00    +0.007 A 
ATOM     13  C   UNL     1      -9.303  -8.339  17.119  0.00  0.00    +0.030 A 
ATOM     14  C   UNL     1     -10.013  -8.761  17.123  0.00  0.00    +0.140 A 
ATOM     15  F   UNL     1     -10.714  -8.392  16.893  0.00  0.00    -0.204 F 
ATOM     16  C   UNL     1     -10.021  -9.552  17.357  0.00  0.00    +0.030 A 
ATOM     17  C   UNL     1      -9.320  -9.922  17.587  0.00  0.00    +0.007 A 
ENDBRANCH   9  11
ENDBRANCH   7   8
ENDBRANCH   6   7
BRANCH   3  18
ATOM     18  N   UNL     1      -3.900 -10.562  16.416  0.00  0.00    -0.209 NA
BRANCH  18  19
ATOM     19  C   UNL     1      -3.550 -10.639  15.672  0.00  0.00    +0.118 C 
BRANCH  19  20
ATOM     20  C   UNL     1      -2.729 -10.635  15.599  0.00  0.00    +0.034 A 
ATOM     21  C   UNL     1      -2.380 -10.611  14.852  0.00  0.00    +0.193 A 
ATOM     22  O   UNL     1      -2.854 -10.590  14.177  0.00  0.00    -0.287 OA
ATOM     23  C   UNL     1      -1.559 -10.607  14.779  0.00  0.00    +0.042 A 
ATOM     24  C   UNL     1      -1.086 -10.628  15.455  0.00  0.00    +0.003 A 
ATOM     25  C   UNL     1      -1.433 -10.652  16.202  0.00  0.00    -0.000 A 
ATOM     26  C   UNL     1      -2.256 -10.656  16.275  0.00  0.00    +0.000 A 
ENDBRANCH  19  20
ENDBRANCH  18  19
ENDBRANCH   3  18
TORSDOF 6
ENDMDL
MODEL 8
REMARK VINA RESULT:      -6.9     14.361     16.493
REMARK  Name = 
REMARK  6 active torsions:
REMARK  status: ('A' for Active; 'I' for Inactive)
REMARK    1  A    between atoms: C_3  and  N_18
REMARK    2  A    between atoms: C_6  and  C_7
REMARK    3  A    between atoms: C_7  and  N_8
REMARK    4  A    between atoms: C_9  and  C_11
REMARK    5  A    between atoms: N_18  and  C_19
REMARK    6  A    between atoms: C_19  and  C_20
REMARK                            x       y       z     vdW  Elec       q    Type
REMARK                         _______ _______ _______ _____ _____    ______ ____
ROOT
ATOM      1  O   UNL     1      -3.049 -10.409  13.401  0.00  0.00    -0.219 OA
ATOM      2  C   UNL     1      -3.873 -10.412  13.433  0.00  0.00    +0.199 C 
ATOM      3  C   UNL     1      -4.384 -10.280  12.799  0.00  0.00    +0.135 C 
ATOM      4  C   UNL     1      -5.157 -10.334  13.080  0.00  0.00    +0.162 C 
ATOM      5  O   UNL     1      -5.125 -10.501  13.887  0.00  0.00    -0.350 OA
ATOM      6  C   UNL     1      -4.331 -10.549  14.106  0.00  0.00    +0.169 C 
ENDROOT
BRANCH   6   7
ATOM      7  C   UNL     1      -4.046 -10.707  14.863  0.00  0.00    +0.148 C 
BRANCH   7   8
ATOM      8  N   UNL     1      -4.543 -10.627  15.516  0.00  0.00    -0.199 NA
ATOM      9  C   UNL     1      -4.227 -10.623  16.278  0.00  0.00    +0.265 C 
ATOM     10  O   UNL     1      -3.412 -10.698  16.386  0.00  0.00    -0.268 OA
BRANCH   9  11
ATOM     11  C   UNL     1      -4.724 -10.543  16.931  0.00  0.00    +0.055 A 
ATOM     12  C   UNL     1      -4.466 -10.781  17.678  0.00  0.00    +0.007 A 
ATOM     13  C   UNL     1      -4.963 -10.702  18.331  0.00  0.00    +0.030 A 
ATOM     14  C   UNL     1      -5.720 -10.384  18.237  0.00  0.00    +0.140 A 
ATOM     15  F   UNL     1      -6.217 -10.305  18.890  0.00  0.00    -0.204 F 
ATOM     16  C   UNL     1      -5.978 -10.146  17.491  0.00  0.00    +0.030 A 
ATOM     17  C   UNL     1      -5.480 -10.226  16.838  0.00  0.00    +0.007 A 
ENDBRANCH   9  11
ENDBRANCH   7   8
ENDBRANCH   6   7
BRANCH   3  18
ATOM     18  N   UNL     1      -4.160 -10.120  12.021  0.00  0.00    -0.209 NA
BRANCH  18  19
ATOM     19  C   UNL     1      -4.647  -9.663  11.537  0.00  0.00    +0.118 C 
BRANCH  19  20
ATOM     20  C   UNL     1      -4.397  -9.454  10.779  0.00  0.00    +0.034 A 
ATOM     21  C   UNL     1      -4.690  -8.771  10.421  0.00  0.00    +0.193 A 
ATOM     22  O   UNL     1      -5.234  -8.297  10.822  0.00  0.00    -0.287 OA
ATOM     23  C   UNL     1      -4.441  -8.562   9.664  0.00  0.00    +0.042 A 
ATOM     24  C   UNL     1      -3.897  -9.036   9.264  0.00  0.00    +0.003 A 
ATOM     25  C   UNL     1      -3.603  -9.719   9.621  0.00  0.00    -0.000 A 
ATOM     26  C   UNL     1      -3.854  -9.928  10.379  0.00  0.00    +0.000 A 
ENDBRANCH  19  20
ENDBRANCH  18  19
ENDBRANCH   3  18
TORSDOF 6
ENDMDL
MODEL 9
REMARK VINA RESULT:      -6.8     14.399     16.285
REMARK  Name = 
REMARK  6 active torsions:
REMARK  status: ('A' for Active; 'I' for Inactive)
REMARK    1  A    between atoms: C_3  and  N_18
REMARK    2  A    between atoms: C_6  and  C_7
REMARK    3  A    between atoms: C_7  and  N_8
REMARK    4  A    between atoms: C_9  and  C_11
REMARK    5  A    between atoms: N_18  and  C_19
REMARK    6  A    between atoms: C_19  and  C_20
REMARK                            x       y       z     vdW  Elec       q    Type
REMARK                         _______ _______ _______ _____ _____    ______ ____
ROOT
ATOM      1  O   UNL     1      -6.995  -9.841  14.490  0.00  0.00    -0.219 OA
ATOM      2  C   UNL     1      -6.190 -10.014  14.443  0.00  0.00    +0.199 C 
ATOM      3  C   UNL     1      -5.699 -10.211  15.076  0.00  0.00    +0.135 C 
ATOM      4  C   UNL     1      -4.940 -10.340  14.779  0.00  0.00    +0.162 C 
ATOM      5  O   UNL     1      -4.962 -10.222  13.963  0.00  0.00    -0.350 OA
ATOM      6  C   UNL     1      -5.734 -10.021  13.755  0.00  0.00    +0.169 C 
ENDROOT
BRANCH   6   7
ATOM      7  C   UNL     1      -6.004  -9.856  12.994  0.00  0.00    +0.148 C 
BRANCH   7   8
ATOM      8  N   UNL     1      -5.465  -9.674  12.396  0.00  0.00    -0.199 NA
ATOM      9  C   UNL     1      -5.731  -9.553  11.624  0.00  0.00    +0.265 C 
ATOM     10  O   UNL     1      -6.535  -9.616  11.450  0.00  0.00    -0.268 OA
BRANCH   9  11
ATOM     11  C   UNL     1      -5.192  -9.371  11.026  0.00  0.00    +0.055 A 
ATOM     12  C   UNL     1      -4.784  -9.976  10.641  0.00  0.00    +0.007 A 
ATOM     13  C   UNL     1      -4.245  -9.794  10.043  0.00  0.00    +0.030 A 
ATOM     14  C   UNL     1      -4.115  -9.007   9.831  0.00  0.00    +0.140 A 
ATOM     15  F   UNL     1      -3.577  -8.825   9.233  0.00  0.00    -0.204 F 
ATOM     16  C   UNL     1      -4.523  -8.402  10.216  0.00  0.00    +0.030 A 
ATOM     17  C   UNL     1      -5.062  -8.584  10.814  0.00  0.00    +0.007 A 
ENDBRANCH   9  11
ENDBRANCH   7   8
ENDBRANCH   6   7
BRANCH   3  18
ATOM     18  N   UNL     1      -5.927 -10.269  15.867  0.00  0.00    -0.209 NA
BRANCH  18  19
ATOM     19  C   UNL     1      -5.358 -10.390  16.453  0.00  0.00    +0.118 C 
BRANCH  19  20
ATOM     20  C   UNL     1      -5.585 -10.444  17.243  0.00  0.00    +0.034 A 
ATOM     21  C   UNL     1      -5.028 -10.638  17.821  0.00  0.00    +0.193 A 
ATOM     22  O   UNL     1      -4.244 -10.778  17.607  0.00  0.00    -0.287 OA
ATOM     23  C   UNL     1      -5.255 -10.692  18.612  0.00  0.00    +0.042 A 
ATOM     24  C   UNL     1      -6.040 -10.552  18.826  0.00  0.00    +0.003 A 
ATOM     25  C   UNL     1      -6.597 -10.358  18.249  0.00  0.00    -0.000 A 
ATOM     26  C   UNL     1      -6.369 -10.304  17.458  0.00  0.00    +0.000 A 
ENDBRANCH  19  20
ENDBRANCH  18  19
ENDBRANCH   3  18
TORSDOF 6
ENDMDL
