REMARK  Name = 
REMARK  5 active torsions:
REMARK  status: ('A' for Active; 'I' for Inactive)
REMARK    1  A    between atoms: C_5  and  N_6
REMARK    2  A    between atoms: N_9  and  C_10
REMARK    3  A    between atoms: C_12  and  C_18
REMARK    4  A    between atoms: N_20  and  C_21
REMARK    5  A    between atoms: C_21  and  C_22
REMARK                            x       y       z     vdW  Elec       q    Type
REMARK                         _______ _______ _______ _____ _____    ______ ____
ROOT
ATOM     10  C   UNL     1      -3.572   2.062   0.000  0.00  0.00    +0.152 C 
ATOM     11  C   UNL     1      -2.858   2.475   0.000  0.00  0.00    -0.002 C 
ATOM     12  C   UNL     1      -2.143   2.062   0.000  0.00  0.00    +0.033 C 
ATOM     13  C   UNL     1      -2.143   1.238   0.000  0.00  0.00    +0.066 C 
ATOM     14  C   UNL     1      -2.858   0.825   0.000  0.00  0.00    +0.189 C 
ATOM     15  O   UNL     1      -2.858   0.000   0.000  0.00  0.00    -0.220 OA
ATOM     16  C   UNL     1      -3.572   1.238   0.000  0.00  0.00    +0.206 C 
ATOM     17  O   UNL     1      -4.287   0.825   0.000  0.00  0.00    -0.218 OA
ENDROOT
BRANCH  10   9
ATOM      6  N   UNL     1      -5.716   2.475   0.000  0.00  0.00    -0.161 NA
ATOM      7  C   UNL     1      -5.001   2.062   0.000  0.00  0.00    +0.344 C 
ATOM      8  O   UNL     1      -5.001   1.238   0.000  0.00  0.00    -0.249 OA
ATOM      9  N   UNL     1      -4.287   2.475   0.000  0.00  0.00    -0.181 NA
BRANCH   6   5
ATOM      1  C   UNL     1      -8.574   0.825   0.000  0.00  0.00    +0.031 C 
ATOM      2  C   UNL     1      -7.859   1.238   0.000  0.00  0.00    -0.022 A 
ATOM      3  C   UNL     1      -7.859   2.062   0.000  0.00  0.00    -0.003 A 
ATOM      4  C   UNL     1      -7.145   2.475   0.000  0.00  0.00    +0.016 A 
ATOM      5  C   UNL     1      -6.430   2.062   0.000  0.00  0.00    +0.075 A 
ATOM     25  C   UNL     1      -6.430   1.238   0.000  0.00  0.00    +0.016 A 
ATOM     26  C   UNL     1      -7.145   0.825   0.000  0.00  0.00    -0.003 A 
ENDBRANCH   6   5
ENDBRANCH  10   9
BRANCH  12  18
ATOM     18  C   UNL     1      -1.429   2.475   0.000  0.00  0.00    +0.261 C 
ATOM     19  O   UNL     1      -1.429   3.300   0.000  0.00  0.00    -0.269 OA
ATOM     20  N   UNL     1      -0.715   2.062   0.000  0.00  0.00    -0.192 NA
BRANCH  20  21
ATOM     21  C   UNL     1       0.000   2.475   0.000  0.00  0.00    +0.203 C 
BRANCH  21  22
ATOM     22  C   UNL     1       0.715   2.062   0.000  0.00  0.00    +0.283 C 
ATOM     23  N   UNL     1       1.429   2.475   0.000  0.00  0.00    -0.086 NA
ATOM     24  O   UNL     1       0.715   1.238   0.000  0.00  0.00    -0.270 OA
ENDBRANCH  21  22
ENDBRANCH  20  21
ENDBRANCH  12  18
TORSDOF 5
