MODEL 1
REMARK VINA RESULT:     -12.3      0.000      0.000
REMARK  Name = 
REMARK  6 active torsions:
REMARK  status: ('A' for Active; 'I' for Inactive)
REMARK    1  A    between atoms: N_2  and  C_4
REMARK    2  A    between atoms: C_7  and  C_10
REMARK    3  A    between atoms: C_13  and  C_15
REMARK    4  A    between atoms: N_19  and  C_20
REMARK    5  A    between atoms: C_20  and  C_21
REMARK    6  A    between atoms: C_24  and  C_27
REMARK                            x       y       z     vdW  Elec       q    Type
REMARK                         _______ _______ _______ _____ _____    ______ ____
ROOT
ATOM     15  C   UNL     1      -4.810   2.418  25.412  0.00  0.00    +0.138 C 
ATOM     16  C   UNL     1      -5.421   2.788  25.826  0.00  0.00    +0.027 C 
ATOM     17  C   UNL     1      -5.160   3.536  26.053  0.00  0.00    +0.019 C 
ATOM     18  C   UNL     1      -4.386   3.630  25.780  0.00  0.00    +0.073 C 
ATOM     19  N   UNL     1      -4.171   2.938  25.384  0.00  0.00    -0.263 NA
ENDROOT
BRANCH  15  13
ATOM     10  C   UNL     1      -4.528   0.397  24.785  0.00  0.00    +0.205 A 
ATOM     11  N   UNL     1      -5.218   0.595  24.379  0.00  0.00    -0.056 NA
ATOM     12  O   UNL     1      -5.408   1.377  24.564  0.00  0.00    -0.336 OA
ATOM     13  C   UNL     1      -4.835   1.662  25.085  0.00  0.00    +0.251 A 
ATOM     14  N   UNL     1      -4.291   1.056  25.222  0.00  0.00    -0.190 NA
BRANCH  10   7
ATOM      4  C   UNL     1      -3.370  -1.789  24.708  0.00  0.00    +0.132 A 
ATOM      5  C   UNL     1      -3.436  -1.381  25.422  0.00  0.00    +0.034 A 
ATOM      6  C   UNL     1      -3.821  -0.653  25.448  0.00  0.00    +0.008 A 
ATOM      7  C   UNL     1      -4.142  -0.331  24.759  0.00  0.00    +0.058 A 
ATOM      8  C   UNL     1      -4.077  -0.738  24.044  0.00  0.00    +0.103 A 
ATOM      9  N   UNL     1      -3.692  -1.467  24.018  0.00  0.00    -0.229 NA
BRANCH   4   2
ATOM      1  C   UNL     1      -2.160  -2.547  24.658  0.00  0.00    +0.114 C 
ATOM      2  N   UNL     1      -2.985  -2.518  24.682  0.00  0.00    -0.290 N 
ATOM      3  C   UNL     1      -3.423  -3.216  24.680  0.00  0.00    +0.114 C 
ENDBRANCH   4   2
ENDBRANCH  10   7
ENDBRANCH  15  13
BRANCH  19  20
ATOM     20  C   UNL     1      -3.444   2.793  25.023  0.00  0.00    +0.099 C 
BRANCH  20  21
ATOM     21  C   UNL     1      -2.856   3.372  25.031  0.00  0.00    -0.006 A 
ATOM     22  C   UNL     1      -2.279   3.366  25.619  0.00  0.00    -0.003 A 
ATOM     23  C   UNL     1      -1.691   3.946  25.627  0.00  0.00    +0.004 A 
ATOM     24  C   UNL     1      -1.681   4.531  25.046  0.00  0.00    +0.071 A 
ATOM     25  C   UNL     1      -2.259   4.536  24.457  0.00  0.00    +0.004 A 
ATOM     26  C   UNL     1      -2.846   3.958  24.449  0.00  0.00    -0.003 A 
BRANCH  24  27
ATOM     27  C   UNL     1      -1.093   5.110  25.053  0.00  0.00    +0.419 C 
ATOM     28  F   UNL     1      -0.506   5.689  25.061  0.00  0.00    -0.166 F 
ATOM     29  F   UNL     1      -1.597   5.615  25.468  0.00  0.00    -0.166 F 
ATOM     30  F   UNL     1      -0.590   4.604  24.639  0.00  0.00    -0.166 F 
ENDBRANCH  24  27
ENDBRANCH  20  21
ENDBRANCH  19  20
TORSDOF 6
ENDMDL
MODEL 2
REMARK VINA RESULT:     -11.5      3.430      6.300
REMARK  Name = 
REMARK  6 active torsions:
REMARK  status: ('A' for Active; 'I' for Inactive)
REMARK    1  A    between atoms: N_2  and  C_4
REMARK    2  A    between atoms: C_7  and  C_10
REMARK    3  A    between atoms: C_13  and  C_15
REMARK    4  A    between atoms: N_19  and  C_20
REMARK    5  A    between atoms: C_20  and  C_21
REMARK    6  A    between atoms: C_24  and  C_27
REMARK                            x       y       z     vdW  Elec       q    Type
REMARK                         _______ _______ _______ _____ _____    ______ ____
ROOT
ATOM     15  C   UNL     1      -0.666  -0.048  24.790  0.00  0.00    +0.138 C 
ATOM     16  C   UNL     1      -0.014  -0.306  24.355  0.00  0.00    +0.027 C 
ATOM     17  C   UNL     1      -0.190  -1.050  24.047  0.00  0.00    +0.019 C 
ATOM     18  C   UNL     1      -0.951  -1.254  24.293  0.00  0.00    +0.073 C 
ATOM     19  N   UNL     1      -1.245  -0.634  24.752  0.00  0.00    -0.263 NA
ENDROOT
BRANCH  15  13
ATOM     10  C   UNL     1      -0.902   1.966  25.457  0.00  0.00    +0.205 A 
ATOM     11  N   UNL     1      -0.740   1.580  26.169  0.00  0.00    -0.056 NA
ATOM     12  O   UNL     1      -0.632   0.779  26.005  0.00  0.00    -0.336 OA
ATOM     13  C   UNL     1      -0.727   0.669  25.193  0.00  0.00    +0.251 A 
ATOM     14  N   UNL     1      -0.894   1.403  24.854  0.00  0.00    -0.190 NA
BRANCH  10   7
ATOM      4  C   UNL     1      -1.336   4.387  25.180  0.00  0.00    +0.132 A 
ATOM      5  C   UNL     1      -1.953   3.877  25.378  0.00  0.00    +0.034 A 
ATOM      6  C   UNL     1      -1.808   3.070  25.471  0.00  0.00    +0.008 A 
ATOM      7  C   UNL     1      -1.047   2.773  25.364  0.00  0.00    +0.058 A 
ATOM      8  C   UNL     1      -0.429   3.282  25.166  0.00  0.00    +0.103 A 
ATOM      9  N   UNL     1      -0.573   4.089  25.074  0.00  0.00    -0.229 NA
BRANCH   4   2
ATOM      1  C   UNL     1      -2.195   5.516  25.346  0.00  0.00    +0.114 C 
ATOM      2  N   UNL     1      -1.481   5.194  25.088  0.00  0.00    -0.290 N 
ATOM      3  C   UNL     1      -0.912   5.677  24.737  0.00  0.00    +0.114 C 
ENDBRANCH   4   2
ENDBRANCH  10   7
ENDBRANCH  15  13
BRANCH  19  20
ATOM     20  C   UNL     1      -1.988  -0.606  25.110  0.00  0.00    +0.099 C 
BRANCH  20  21
ATOM     21  C   UNL     1      -2.606  -1.063  24.813  0.00  0.00    -0.006 A 
ATOM     22  C   UNL     1      -3.120  -0.746  24.251  0.00  0.00    -0.003 A 
ATOM     23  C   UNL     1      -3.740  -1.203  23.953  0.00  0.00    +0.004 A 
ATOM     24  C   UNL     1      -3.845  -1.977  24.219  0.00  0.00    +0.071 A 
ATOM     25  C   UNL     1      -3.331  -2.294  24.781  0.00  0.00    +0.004 A 
ATOM     26  C   UNL     1      -2.712  -1.837  25.078  0.00  0.00    -0.003 A 
BRANCH  24  27
ATOM     27  C   UNL     1      -4.464  -2.434  23.921  0.00  0.00    +0.419 C 
ATOM     28  F   UNL     1      -5.083  -2.891  23.624  0.00  0.00    -0.166 F 
ATOM     29  F   UNL     1      -3.998  -3.111  23.990  0.00  0.00    -0.166 F 
ATOM     30  F   UNL     1      -4.931  -1.757  23.852  0.00  0.00    -0.166 F 
ENDBRANCH  24  27
ENDBRANCH  20  21
ENDBRANCH  19  20
TORSDOF 6
ENDMDL
MODEL 3
REMARK VINA RESULT:     -11.4      2.955      5.536
REMARK  Name = 
REMARK  6 active torsions:
REMARK  status: ('A' for Active; 'I' for Inactive)
REMARK    1  A    between atoms: N_2  and  C_4
REMARK    2  A    between atoms: C_7  and  C_10
REMARK    3  A    between atoms: C_13  and  C_15
REMARK    4  A    between atoms: N_19  and  C_20
REMARK    5  A    between atoms: C_20  and  C_21
REMARK    6  A    between atoms: C_24  and  C_27
REMARK                            x       y       z     vdW  Elec       q    Type
REMARK                         _______ _______ _______ _____ _____    ______ ____
ROOT
ATOM     15  C   UNL     1      -4.915   1.611  24.952  0.00  0.00    +0.138 C 
ATOM     16  C   UNL     1      -5.614   1.717  25.378  0.00  0.00    +0.027 C 
ATOM     17  C   UNL     1      -5.909   0.973  25.576  0.00  0.00    +0.019 C 
ATOM     18  C   UNL     1      -5.392   0.405  25.272  0.00  0.00    +0.073 C 
ATOM     19  N   UNL     1      -4.778   0.800  24.887  0.00  0.00    -0.263 NA
ENDROOT
BRANCH  15  13
ATOM     10  C   UNL     1      -3.439   3.081  24.488  0.00  0.00    +0.205 A 
ATOM     11  N   UNL     1      -3.968   3.183  23.862  0.00  0.00    -0.056 NA
ATOM     12  O   UNL     1      -4.586   2.644  23.960  0.00  0.00    -0.336 OA
ATOM     13  C   UNL     1      -4.438   2.210  24.646  0.00  0.00    +0.251 A 
ATOM     14  N   UNL     1      -3.730   2.480  24.972  0.00  0.00    -0.190 NA
BRANCH  10   7
ATOM      4  C   UNL     1      -1.349   4.356  24.847  0.00  0.00    +0.132 A 
ATOM      5  C   UNL     1      -2.059   4.631  25.162  0.00  0.00    +0.034 A 
ATOM      6  C   UNL     1      -2.756   4.206  25.042  0.00  0.00    +0.008 A 
ATOM      7  C   UNL     1      -2.742   3.506  24.607  0.00  0.00    +0.058 A 
ATOM      8  C   UNL     1      -2.032   3.230  24.292  0.00  0.00    +0.103 A 
ATOM      9  N   UNL     1      -1.335   3.655  24.411  0.00  0.00    -0.229 NA
BRANCH   4   2
ATOM      1  C   UNL     1      -0.652   5.603  24.889  0.00  0.00    +0.114 C 
ATOM      2  N   UNL     1      -0.652   4.781  24.967  0.00  0.00    -0.290 N 
ATOM      3  C   UNL     1       0.044   4.385  25.163  0.00  0.00    +0.114 C 
ENDBRANCH   4   2
ENDBRANCH  10   7
ENDBRANCH  15  13
BRANCH  19  20
ATOM     20  C   UNL     1      -4.139   0.445  24.504  0.00  0.00    +0.099 C 
BRANCH  20  21
ATOM     21  C   UNL     1      -4.029  -0.370  24.554  0.00  0.00    -0.006 A 
ATOM     22  C   UNL     1      -3.638  -0.695  25.203  0.00  0.00    -0.003 A 
ATOM     23  C   UNL     1      -3.527  -1.511  25.253  0.00  0.00    +0.004 A 
ATOM     24  C   UNL     1      -3.808  -2.002  24.653  0.00  0.00    +0.071 A 
ATOM     25  C   UNL     1      -4.199  -1.678  24.003  0.00  0.00    +0.004 A 
ATOM     26  C   UNL     1      -4.309  -0.862  23.953  0.00  0.00    -0.003 A 
BRANCH  24  27
ATOM     27  C   UNL     1      -3.697  -2.819  24.703  0.00  0.00    +0.419 C 
ATOM     28  F   UNL     1      -3.587  -3.634  24.753  0.00  0.00    -0.166 F 
ATOM     29  F   UNL     1      -3.763  -2.878  23.883  0.00  0.00    -0.166 F 
ATOM     30  F   UNL     1      -3.631  -2.760  25.523  0.00  0.00    -0.166 F 
ENDBRANCH  24  27
ENDBRANCH  20  21
ENDBRANCH  19  20
TORSDOF 6
ENDMDL
MODEL 4
REMARK VINA RESULT:     -11.1      2.232      3.131
REMARK  Name = 
REMARK  6 active torsions:
REMARK  status: ('A' for Active; 'I' for Inactive)
REMARK    1  A    between atoms: N_2  and  C_4
REMARK    2  A    between atoms: C_7  and  C_10
REMARK    3  A    between atoms: C_13  and  C_15
REMARK    4  A    between atoms: N_19  and  C_20
REMARK    5  A    between atoms: C_20  and  C_21
REMARK    6  A    between atoms: C_24  and  C_27
REMARK                            x       y       z     vdW  Elec       q    Type
REMARK                         _______ _______ _______ _____ _____    ______ ____
ROOT
ATOM     15  C   UNL     1      -0.184   0.927  24.570  0.00  0.00    +0.138 C 
ATOM     16  C   UNL     1       0.471   0.857  24.073  0.00  0.00    +0.027 C 
ATOM     17  C   UNL     1       0.765   1.614  23.929  0.00  0.00    +0.019 C 
ATOM     18  C   UNL     1       0.291   2.153  24.337  0.00  0.00    +0.073 C 
ATOM     19  N   UNL     1      -0.295   1.728  24.733  0.00  0.00    -0.263 NA
ENDROOT
BRANCH  15  13
ATOM     10  C   UNL     1      -1.553  -0.671  24.926  0.00  0.00    +0.205 A 
ATOM     11  N   UNL     1      -1.164  -0.630  25.652  0.00  0.00    -0.056 NA
ATOM     12  O   UNL     1      -0.603  -0.026  25.607  0.00  0.00    -0.336 OA
ATOM     13  C   UNL     1      -0.646   0.306  24.853  0.00  0.00    +0.251 A 
ATOM     14  N   UNL     1      -1.234  -0.093  24.432  0.00  0.00    -0.190 NA
BRANCH  10   7
ATOM      4  C   UNL     1      -3.363  -2.252  24.333  0.00  0.00    +0.132 A 
ATOM      5  C   UNL     1      -3.540  -1.461  24.487  0.00  0.00    +0.034 A 
ATOM      6  C   UNL     1      -2.936  -0.934  24.685  0.00  0.00    +0.008 A 
ATOM      7  C   UNL     1      -2.157  -1.198  24.728  0.00  0.00    +0.058 A 
ATOM      8  C   UNL     1      -1.979  -1.989  24.574  0.00  0.00    +0.103 A 
ATOM      9  N   UNL     1      -2.582  -2.516  24.376  0.00  0.00    -0.229 NA
BRANCH   4   2
ATOM      1  C   UNL     1      -4.622  -2.514  23.711  0.00  0.00    +0.114 C 
ATOM      2  N   UNL     1      -3.966  -2.779  24.135  0.00  0.00    -0.290 N 
ATOM      3  C   UNL     1      -3.913  -3.570  24.362  0.00  0.00    +0.114 C 
ENDBRANCH   4   2
ENDBRANCH  10   7
ENDBRANCH  15  13
BRANCH  19  20
ATOM     20  C   UNL     1      -0.888   2.049  25.208  0.00  0.00    +0.099 C 
BRANCH  20  21
ATOM     21  C   UNL     1      -1.033   2.861  25.195  0.00  0.00    -0.006 A 
ATOM     22  C   UNL     1      -1.630   3.166  24.715  0.00  0.00    -0.003 A 
ATOM     23  C   UNL     1      -1.775   3.978  24.702  0.00  0.00    +0.004 A 
ATOM     24  C   UNL     1      -1.323   4.485  25.171  0.00  0.00    +0.071 A 
ATOM     25  C   UNL     1      -0.726   4.179  25.651  0.00  0.00    +0.004 A 
ATOM     26  C   UNL     1      -0.581   3.368  25.664  0.00  0.00    -0.003 A 
BRANCH  24  27
ATOM     27  C   UNL     1      -1.468   5.297  25.159  0.00  0.00    +0.419 C 
ATOM     28  F   UNL     1      -1.613   6.109  25.146  0.00  0.00    -0.166 F 
ATOM     29  F   UNL     1      -0.812   5.407  24.672  0.00  0.00    -0.166 F 
ATOM     30  F   UNL     1      -2.125   5.187  25.646  0.00  0.00    -0.166 F 
ENDBRANCH  24  27
ENDBRANCH  20  21
ENDBRANCH  19  20
TORSDOF 6
ENDMDL
MODEL 5
REMARK VINA RESULT:     -10.6      3.185      4.129
REMARK  Name = 
REMARK  6 active torsions:
REMARK  status: ('A' for Active; 'I' for Inactive)
REMARK    1  A    between atoms: N_2  and  C_4
REMARK    2  A    between atoms: C_7  and  C_10
REMARK    3  A    between atoms: C_13  and  C_15
REMARK    4  A    between atoms: N_19  and  C_20
REMARK    5  A    between atoms: C_20  and  C_21
REMARK    6  A    between atoms: C_24  and  C_27
REMARK                            x       y       z     vdW  Elec       q    Type
REMARK                         _______ _______ _______ _____ _____    ______ ____
ROOT
ATOM     15  C   UNL     1      -2.984  -0.049  25.020  0.00  0.00    +0.138 C 
ATOM     16  C   UNL     1      -3.421  -0.735  25.162  0.00  0.00    +0.027 C 
ATOM     17  C   UNL     1      -4.222  -0.538  25.134  0.00  0.00    +0.019 C 
ATOM     18  C   UNL     1      -4.280   0.270  24.975  0.00  0.00    +0.073 C 
ATOM     19  N   UNL     1      -3.515   0.572  24.904  0.00  0.00    -0.263 NA
ENDROOT
BRANCH  15  13
ATOM     10  C   UNL     1      -0.904   0.044  24.553  0.00  0.00    +0.205 A 
ATOM     11  N   UNL     1      -0.887   0.135  25.373  0.00  0.00    -0.056 NA
ATOM     12  O   UNL     1      -1.665   0.111  25.648  0.00  0.00    -0.336 OA
ATOM     13  C   UNL     1      -2.162   0.005  24.998  0.00  0.00    +0.251 A 
ATOM     14  N   UNL     1      -1.691  -0.036  24.321  0.00  0.00    -0.190 NA
BRANCH  10   7
ATOM      4  C   UNL     1       1.064   0.015  23.052  0.00  0.00    +0.132 A 
ATOM      5  C   UNL     1       0.758   0.733  23.318  0.00  0.00    +0.034 A 
ATOM      6  C   UNL     1       0.102   0.743  23.818  0.00  0.00    +0.008 A 
ATOM      7  C   UNL     1      -0.248   0.034  24.053  0.00  0.00    +0.058 A 
ATOM      8  C   UNL     1       0.058  -0.685  23.788  0.00  0.00    +0.103 A 
ATOM      9  N   UNL     1       0.714  -0.695  23.288  0.00  0.00    -0.229 NA
BRANCH   4   2
ATOM      1  C   UNL     1       1.647  -0.279  21.781  0.00  0.00    +0.114 C 
ATOM      2  N   UNL     1       1.721   0.005  22.552  0.00  0.00    -0.290 N 
ATOM      3  C   UNL     1       2.449   0.280  22.823  0.00  0.00    +0.114 C 
ENDBRANCH   4   2
ENDBRANCH  10   7
ENDBRANCH  15  13
BRANCH  19  20
ATOM     20  C   UNL     1      -3.317   1.356  24.746  0.00  0.00    +0.099 C 
BRANCH  20  21
ATOM     21  C   UNL     1      -3.855   1.959  24.909  0.00  0.00    -0.006 A 
ATOM     22  C   UNL     1      -3.794   2.388  25.611  0.00  0.00    -0.003 A 
ATOM     23  C   UNL     1      -4.333   2.992  25.774  0.00  0.00    +0.004 A 
ATOM     24  C   UNL     1      -4.932   3.166  25.235  0.00  0.00    +0.071 A 
ATOM     25  C   UNL     1      -4.993   2.737  24.533  0.00  0.00    +0.004 A 
ATOM     26  C   UNL     1      -4.455   2.134  24.370  0.00  0.00    -0.003 A 
BRANCH  24  27
ATOM     27  C   UNL     1      -5.471   3.769  25.398  0.00  0.00    +0.419 C 
ATOM     28  F   UNL     1      -6.009   4.372  25.561  0.00  0.00    -0.166 F 
ATOM     29  F   UNL     1      -5.962   3.228  25.779  0.00  0.00    -0.166 F 
ATOM     30  F   UNL     1      -4.979   4.312  25.016  0.00  0.00    -0.166 F 
ENDBRANCH  24  27
ENDBRANCH  20  21
ENDBRANCH  19  20
TORSDOF 6
ENDMDL
MODEL 6
REMARK VINA RESULT:     -10.6      3.624      4.571
REMARK  Name = 
REMARK  6 active torsions:
REMARK  status: ('A' for Active; 'I' for Inactive)
REMARK    1  A    between atoms: N_2  and  C_4
REMARK    2  A    between atoms: C_7  and  C_10
REMARK    3  A    between atoms: C_13  and  C_15
REMARK    4  A    between atoms: N_19  and  C_20
REMARK    5  A    between atoms: C_20  and  C_21
REMARK    6  A    between atoms: C_24  and  C_27
REMARK                            x       y       z     vdW  Elec       q    Type
REMARK                         _______ _______ _______ _____ _____    ______ ____
ROOT
ATOM     15  C   UNL     1      -1.702   2.941  25.296  0.00  0.00    +0.138 C 
ATOM     16  C   UNL     1      -1.560   3.673  25.651  0.00  0.00    +0.027 C 
ATOM     17  C   UNL     1      -2.257   4.112  25.617  0.00  0.00    +0.019 C 
ATOM     18  C   UNL     1      -2.830   3.653  25.240  0.00  0.00    +0.073 C 
ATOM     19  N   UNL     1      -2.487   2.930  25.041  0.00  0.00    -0.263 NA
ENDROOT
BRANCH  15  13
ATOM     10  C   UNL     1      -0.258   1.495  24.680  0.00  0.00    +0.205 A 
ATOM     11  N   UNL     1      -0.367   1.284  25.471  0.00  0.00    -0.056 NA
ATOM     12  O   UNL     1      -0.922   1.801  25.798  0.00  0.00    -0.336 OA
ATOM     13  C   UNL     1      -1.155   2.330  25.209  0.00  0.00    +0.251 A 
ATOM     14  N   UNL     1      -0.744   2.141  24.519  0.00  0.00    -0.190 NA
BRANCH  10   7
ATOM      4  C   UNL     1       1.264   0.382  23.077  0.00  0.00    +0.132 A 
ATOM      5  C   UNL     1       0.543   0.033  23.273  0.00  0.00    +0.034 A 
ATOM      6  C   UNL     1       0.036   0.403  23.807  0.00  0.00    +0.008 A 
ATOM      7  C   UNL     1       0.250   1.124  24.146  0.00  0.00    +0.058 A 
ATOM      8  C   UNL     1       0.971   1.475  23.951  0.00  0.00    +0.103 A 
ATOM      9  N   UNL     1       1.478   1.104  23.416  0.00  0.00    -0.229 NA
BRANCH   4   2
ATOM      1  C   UNL     1       2.587   0.027  22.669  0.00  0.00    +0.114 C 
ATOM      2  N   UNL     1       1.772   0.011  22.542  0.00  0.00    -0.290 N 
ATOM      3  C   UNL     1       1.464  -0.375  21.882  0.00  0.00    +0.114 C 
ENDBRANCH   4   2
ENDBRANCH  10   7
ENDBRANCH  15  13
BRANCH  19  20
ATOM     20  C   UNL     1      -2.862   2.305  24.656  0.00  0.00    +0.099 C 
BRANCH  20  21
ATOM     21  C   UNL     1      -3.679   2.213  24.719  0.00  0.00    -0.006 A 
ATOM     22  C   UNL     1      -4.183   2.657  24.240  0.00  0.00    -0.003 A 
ATOM     23  C   UNL     1      -5.001   2.566  24.303  0.00  0.00    +0.004 A 
ATOM     24  C   UNL     1      -5.314   2.028  24.845  0.00  0.00    +0.071 A 
ATOM     25  C   UNL     1      -4.811   1.584  25.323  0.00  0.00    +0.004 A 
ATOM     26  C   UNL     1      -3.994   1.676  25.261  0.00  0.00    -0.003 A 
BRANCH  24  27
ATOM     27  C   UNL     1      -6.132   1.937  24.907  0.00  0.00    +0.419 C 
ATOM     28  F   UNL     1      -6.949   1.845  24.970  0.00  0.00    -0.166 F 
ATOM     29  F   UNL     1      -6.183   2.657  25.306  0.00  0.00    -0.166 F 
ATOM     30  F   UNL     1      -6.082   1.216  24.508  0.00  0.00    -0.166 F 
ENDBRANCH  24  27
ENDBRANCH  20  21
ENDBRANCH  19  20
TORSDOF 6
ENDMDL
MODEL 7
REMARK VINA RESULT:     -10.3      2.679      3.625
REMARK  Name = 
REMARK  6 active torsions:
REMARK  status: ('A' for Active; 'I' for Inactive)
REMARK    1  A    between atoms: N_2  and  C_4
REMARK    2  A    between atoms: C_7  and  C_10
REMARK    3  A    between atoms: C_13  and  C_15
REMARK    4  A    between atoms: N_19  and  C_20
REMARK    5  A    between atoms: C_20  and  C_21
REMARK    6  A    between atoms: C_24  and  C_27
REMARK                            x       y       z     vdW  Elec       q    Type
REMARK                         _______ _______ _______ _____ _____    ______ ____
ROOT
ATOM     15  C   UNL     1      -1.107   3.516  24.862  0.00  0.00    +0.138 C 
ATOM     16  C   UNL     1      -0.706   4.196  25.106  0.00  0.00    +0.027 C 
ATOM     17  C   UNL     1      -1.264   4.790  25.229  0.00  0.00    +0.019 C 
ATOM     18  C   UNL     1      -2.010   4.479  25.061  0.00  0.00    +0.073 C 
ATOM     19  N   UNL     1      -1.912   3.691  24.834  0.00  0.00    -0.263 NA
ENDROOT
BRANCH  15  13
ATOM     10  C   UNL     1      -0.527   1.478  24.608  0.00  0.00    +0.205 A 
ATOM     11  N   UNL     1       0.066   1.866  24.184  0.00  0.00    -0.056 NA
ATOM     12  O   UNL     1      -0.080   2.677  24.227  0.00  0.00    -0.336 OA
ATOM     13  C   UNL     1      -0.761   2.790  24.678  0.00  0.00    +0.251 A 
ATOM     14  N   UNL     1      -1.038   2.049  24.913  0.00  0.00    -0.190 NA
BRANCH  10   7
ATOM      4  C   UNL     1      -0.733  -0.970  24.909  0.00  0.00    +0.132 A 
ATOM      5  C   UNL     1      -0.994  -0.458  25.501  0.00  0.00    +0.034 A 
ATOM      6  C   UNL     1      -0.925   0.358  25.400  0.00  0.00    +0.008 A 
ATOM      7  C   UNL     1      -0.596   0.662  24.708  0.00  0.00    +0.058 A 
ATOM      8  C   UNL     1      -0.334   0.150  24.116  0.00  0.00    +0.103 A 
ATOM      9  N   UNL     1      -0.403  -0.666  24.216  0.00  0.00    -0.229 NA
BRANCH   4   2
ATOM      1  C   UNL     1      -1.483  -2.177  24.756  0.00  0.00    +0.114 C 
ATOM      2  N   UNL     1      -0.802  -1.786  25.010  0.00  0.00    -0.290 N 
ATOM      3  C   UNL     1      -0.190  -2.211  25.364  0.00  0.00    +0.114 C 
ENDBRANCH   4   2
ENDBRANCH  10   7
ENDBRANCH  15  13
BRANCH  19  20
ATOM     20  C   UNL     1      -2.515   3.171  24.618  0.00  0.00    +0.099 C 
BRANCH  20  21
ATOM     21  C   UNL     1      -3.294   3.329  24.835  0.00  0.00    -0.006 A 
ATOM     22  C   UNL     1      -3.542   3.198  25.610  0.00  0.00    -0.003 A 
ATOM     23  C   UNL     1      -4.322   3.356  25.827  0.00  0.00    +0.004 A 
ATOM     24  C   UNL     1      -4.855   3.646  25.268  0.00  0.00    +0.071 A 
ATOM     25  C   UNL     1      -4.607   3.777  24.492  0.00  0.00    +0.004 A 
ATOM     26  C   UNL     1      -3.827   3.619  24.275  0.00  0.00    -0.003 A 
BRANCH  24  27
ATOM     27  C   UNL     1      -5.635   3.804  25.485  0.00  0.00    +0.419 C 
ATOM     28  F   UNL     1      -6.415   3.962  25.702  0.00  0.00    -0.166 F 
ATOM     29  F   UNL     1      -5.464   4.610  25.514  0.00  0.00    -0.166 F 
ATOM     30  F   UNL     1      -5.807   2.997  25.456  0.00  0.00    -0.166 F 
ENDBRANCH  24  27
ENDBRANCH  20  21
ENDBRANCH  19  20
TORSDOF 6
ENDMDL
MODEL 8
REMARK VINA RESULT:     -10.0      3.321      5.914
REMARK  Name = 
REMARK  6 active torsions:
REMARK  status: ('A' for Active; 'I' for Inactive)
REMARK    1  A    between atoms: N_2  and  C_4
REMARK    2  A    between atoms: C_7  and  C_10
REMARK    3  A    between atoms: C_13  and  C_15
REMARK    4  A    between atoms: N_19  and  C_20
REMARK    5  A    between atoms: C_20  and  C_21
REMARK    6  A    between atoms: C_24  and  C_27
REMARK                            x       y       z     vdW  Elec       q    Type
REMARK                         _______ _______ _______ _____ _____    ______ ____
ROOT
ATOM     15  C   UNL     1      -0.672   0.586  24.451  0.00  0.00    +0.138 C 
ATOM     16  C   UNL     1      -0.132   0.619  23.828  0.00  0.00    +0.027 C 
ATOM     17  C   UNL     1       0.078  -0.154  23.631  0.00  0.00    +0.019 C 
ATOM     18  C   UNL     1      -0.333  -0.665  24.132  0.00  0.00    +0.073 C 
ATOM     19  N   UNL     1      -0.797  -0.208  24.639  0.00  0.00    -0.263 NA
ENDROOT
BRANCH  15  13
ATOM     10  C   UNL     1      -1.915   2.166  25.169  0.00  0.00    +0.205 A 
ATOM     11  N   UNL     1      -1.228   2.291  25.609  0.00  0.00    -0.056 NA
ATOM     12  O   UNL     1      -0.678   1.715  25.393  0.00  0.00    -0.336 OA
ATOM     13  C   UNL     1      -1.026   1.233  24.820  0.00  0.00    +0.251 A 
ATOM     14  N   UNL     1      -1.790   1.512  24.683  0.00  0.00    -0.190 NA
BRANCH  10   7
ATOM      4  C   UNL     1      -3.986   3.516  25.292  0.00  0.00    +0.132 A 
ATOM      5  C   UNL     1      -3.977   2.812  24.862  0.00  0.00    +0.034 A 
ATOM      6  C   UNL     1      -3.286   2.362  24.821  0.00  0.00    +0.008 A 
ATOM      7  C   UNL     1      -2.605   2.616  25.210  0.00  0.00    +0.058 A 
ATOM      8  C   UNL     1      -2.614   3.320  25.641  0.00  0.00    +0.103 A 
ATOM      9  N   UNL     1      -3.304   3.769  25.682  0.00  0.00    -0.229 NA
BRANCH   4   2
ATOM      1  C   UNL     1      -4.668   4.755  25.094  0.00  0.00    +0.114 C 
ATOM      2  N   UNL     1      -4.676   3.966  25.333  0.00  0.00    -0.290 N 
ATOM      3  C   UNL     1      -5.374   3.626  25.612  0.00  0.00    +0.114 C 
ENDBRANCH   4   2
ENDBRANCH  10   7
ENDBRANCH  15  13
BRANCH  19  20
ATOM     20  C   UNL     1      -1.296  -0.494  25.229  0.00  0.00    +0.099 C 
BRANCH  20  21
ATOM     21  C   UNL     1      -1.807  -1.121  25.069  0.00  0.00    -0.006 A 
ATOM     22  C   UNL     1      -1.503  -1.872  24.913  0.00  0.00    -0.003 A 
ATOM     23  C   UNL     1      -2.015  -2.499  24.753  0.00  0.00    +0.004 A 
ATOM     24  C   UNL     1      -2.831  -2.375  24.749  0.00  0.00    +0.071 A 
ATOM     25  C   UNL     1      -3.134  -1.625  24.906  0.00  0.00    +0.004 A 
ATOM     26  C   UNL     1      -2.623  -0.998  25.066  0.00  0.00    -0.003 A 
BRANCH  24  27
ATOM     27  C   UNL     1      -3.342  -3.003  24.589  0.00  0.00    +0.419 C 
ATOM     28  F   UNL     1      -3.853  -3.630  24.429  0.00  0.00    -0.166 F 
ATOM     29  F   UNL     1      -3.529  -3.055  25.390  0.00  0.00    -0.166 F 
ATOM     30  F   UNL     1      -3.155  -2.951  23.787  0.00  0.00    -0.166 F 
ENDBRANCH  24  27
ENDBRANCH  20  21
ENDBRANCH  19  20
TORSDOF 6
ENDMDL
