REMARK  Name = 
REMARK  4 active torsions:
REMARK  status: ('A' for Active; 'I' for Inactive)
REMARK    1  A    between atoms: C_2  and  C_3
REMARK    2  A    between atoms: C_2  and  C_25
REMARK    3  A    between atoms: C_10  and  N_11
REMARK    4  A    between atoms: C_12  and  C_14
REMARK                            x       y       z     vdW  Elec       q    Type
REMARK                         _______ _______ _______ _____ _____    ______ ____
ROOT
ATOM      3  C   UNL     1       0.715  -1.238   0.000  0.00  0.00    +0.039 C 
ATOM      4  C   UNL     1       0.715  -0.412   0.000  0.00  0.00    +0.003 C 
ATOM      5  C   UNL     1       1.429   0.000   0.000  0.00  0.00    +0.000 C 
ATOM      6  C   UNL     1       2.143  -0.412   0.000  0.00  0.00    +0.002 C 
ATOM      7  C   UNL     1       2.143   0.412   0.000  0.00  0.00    +0.000 C 
ATOM      8  C   UNL     1       2.858   0.000   0.000  0.00  0.00    +0.002 C 
ATOM      9  C   UNL     1       3.572  -0.412   0.000  0.00  0.00    +0.022 C 
ATOM     10  C   UNL     1       3.572  -1.238   0.000  0.00  0.00    +0.096 C 
ATOM     20  C   UNL     1       2.858  -1.650   0.000  0.00  0.00    +0.022 C 
ATOM     21  C   UNL     1       2.858  -2.475   0.000  0.00  0.00    +0.002 C 
ATOM     22  C   UNL     1       2.143  -1.238   0.000  0.00  0.00    +0.032 C 
ATOM     23  C   UNL     1       1.429  -1.650   0.000  0.00  0.00    +0.152 C 
ATOM     24  O   UNL     1       1.429  -2.475   0.000  0.00  0.00    -0.223 OA
ENDROOT
BRANCH  10  11
ATOM     11  N   UNL     1       4.287  -1.650   0.000  0.00  0.00    -0.202 NA
ATOM     12  C   UNL     1       5.001  -1.238   0.000  0.00  0.00    +0.284 C 
ATOM     13  O   UNL     1       5.001  -0.412   0.000  0.00  0.00    -0.267 OA
BRANCH  12  14
ATOM     14  C   UNL     1       5.716  -1.650   0.000  0.00  0.00    +0.155 A 
ATOM     15  C   UNL     1       6.430  -1.238   0.000  0.00  0.00    +0.123 A 
ATOM     16  N   UNL     1       7.145  -1.650   0.000  0.00  0.00    -0.239 NA
ATOM     17  C   UNL     1       7.145  -2.475   0.000  0.00  0.00    +0.120 A 
ATOM     18  C   UNL     1       6.430  -2.888   0.000  0.00  0.00    +0.120 A 
ATOM     19  N   UNL     1       5.716  -2.475   0.000  0.00  0.00    -0.236 NA
ENDBRANCH  12  14
ENDBRANCH  10  11
BRANCH   3   2
ATOM      1  C   UNL     1      -0.715  -1.238   0.000  0.00  0.00    +0.010 C 
ATOM      2  C   UNL     1       0.000  -1.650   0.000  0.00  0.00    +0.079 C 
BRANCH   2  25
ATOM     25  C   UNL     1       0.000  -2.475   0.000  0.00  0.00    +0.225 C 
ATOM     26  O   UNL     1       0.715  -2.888   0.000  0.00  0.00    -0.275 OA
ATOM     27  N   UNL     1      -0.715  -2.888   0.000  0.00  0.00    -0.280 N 
ATOM     28  C   UNL     1      -0.801  -3.708   0.000  0.00  0.00    +0.093 C 
ATOM     29  C   UNL     1      -1.608  -3.880   0.000  0.00  0.00    +0.023 C 
ATOM     30  C   UNL     1      -2.020  -3.165   0.000  0.00  0.00    +0.023 C 
ATOM     31  C   UNL     1      -1.468  -2.552   0.000  0.00  0.00    +0.093 C 
ENDBRANCH   2  25
ENDBRANCH   3   2
TORSDOF 4
