MODEL 1
REMARK VINA RESULT:     -12.2      0.000      0.000
REMARK  Name = 
REMARK  8 active torsions:
REMARK  status: ('A' for Active; 'I' for Inactive)
REMARK    1  A    between atoms: C_2  and  N_4
REMARK    2  A    between atoms: C_5  and  O_7
REMARK    3  A    between atoms: O_7  and  C_8
REMARK    4  A    between atoms: C_13  and  C_14
REMARK    5  A    between atoms: C_14  and  C_15
REMARK    6  A    between atoms: N_17  and  C_18
REMARK    7  A    between atoms: C_18  and  C_19
REMARK    8  A    between atoms: C_29  and  C_31
REMARK                            x       y       z     vdW  Elec       q    Type
REMARK                         _______ _______ _______ _____ _____    ______ ____
ROOT
ATOM      8  C   UNL     1      -3.767   3.310  25.166  0.00  0.00    +0.173 C 
ATOM      9  C   UNL     1      -3.312   2.693  24.862  0.00  0.00    +0.044 C 
ATOM     10  C   UNL     1      -3.662   1.961  24.708  0.00  0.00    +0.004 C 
ATOM     11  C   UNL     1      -4.464   1.847  24.857  0.00  0.00    +0.003 C 
ATOM     12  C   UNL     1      -4.010   1.230  24.553  0.00  0.00    +0.000 C 
ATOM     13  C   UNL     1      -4.814   1.116  24.703  0.00  0.00    +0.040 C 
ATOM     24  C   UNL     1      -5.616   1.002  24.852  0.00  0.00    +0.152 C 
ATOM     25  O   UNL     1      -5.965   0.271  24.697  0.00  0.00    -0.223 OA
ATOM     26  C   UNL     1      -6.071   1.620  25.155  0.00  0.00    +0.033 C 
ATOM     27  C   UNL     1      -5.723   2.351  25.310  0.00  0.00    +0.003 C 
ATOM     28  C   UNL     1      -4.919   2.465  25.161  0.00  0.00    +0.006 C 
ATOM     29  C   UNL     1      -4.571   3.197  25.316  0.00  0.00    +0.068 C 
ATOM     30  C   UNL     1      -5.285   3.513  25.582  0.00  0.00    +0.006 C 
ENDROOT
BRANCH  29  31
ATOM     31  C   UNL     1      -4.660   3.971  25.585  0.00  0.00    +0.185 C 
ATOM     32  O   UNL     1      -5.404   4.249  25.807  0.00  0.00    -0.220 OA
ENDBRANCH  29  31
BRANCH   8   7
ATOM      7  O   UNL     1      -3.419   4.042  25.321  0.00  0.00    -0.437 OA
BRANCH   7   5
ATOM      4  N   UNL     1      -2.058   4.412  25.552  0.00  0.00    -0.170 NA
ATOM      5  C   UNL     1      -2.664   4.209  25.031  0.00  0.00    +0.421 C 
ATOM      6  O   UNL     1      -2.517   4.172  24.220  0.00  0.00    -0.225 OA
BRANCH   4   2
ATOM      1  C   UNL     1      -0.717   3.999  25.283  0.00  0.00    +0.024 C 
ATOM      2  C   UNL     1      -1.304   4.579  25.262  0.00  0.00    +0.099 C 
ATOM      3  C   UNL     1      -1.136   5.325  24.952  0.00  0.00    +0.024 C 
ENDBRANCH   4   2
ENDBRANCH   7   5
ENDBRANCH   8   7
BRANCH  13  14
ATOM     14  C   UNL     1      -4.358   0.497  24.398  0.00  0.00    +0.089 C 
BRANCH  14  15
ATOM     15  C   UNL     1      -4.102  -0.108  24.895  0.00  0.00    +0.242 C 
ATOM     16  O   UNL     1      -4.360  -0.136  25.678  0.00  0.00    -0.273 OA
ATOM     17  N   UNL     1      -3.587  -0.686  24.610  0.00  0.00    -0.197 NA
BRANCH  17  18
ATOM     18  C   UNL     1      -3.330  -1.292  25.107  0.00  0.00    +0.179 C 
BRANCH  18  19
ATOM     19  C   UNL     1      -2.753  -1.822  24.848  0.00  0.00    +0.145 A 
ATOM     20  C   UNL     1      -2.889  -2.569  24.526  0.00  0.00    +0.038 A 
ATOM     21  C   UNL     1      -2.158  -2.906  24.346  0.00  0.00    +0.043 A 
ATOM     22  C   UNL     1      -1.569  -2.368  24.557  0.00  0.00    +0.179 A 
ATOM     23  O   UNL     1      -1.937  -1.698  24.867  0.00  0.00    -0.453 OA
ENDBRANCH  18  19
ENDBRANCH  17  18
ENDBRANCH  14  15
ENDBRANCH  13  14
TORSDOF 8
ENDMDL
MODEL 2
REMARK VINA RESULT:     -12.1      1.622      3.336
REMARK  Name = 
REMARK  8 active torsions:
REMARK  status: ('A' for Active; 'I' for Inactive)
REMARK    1  A    between atoms: C_2  and  N_4
REMARK    2  A    between atoms: C_5  and  O_7
REMARK    3  A    between atoms: O_7  and  C_8
REMARK    4  A    between atoms: C_13  and  C_14
REMARK    5  A    between atoms: C_14  and  C_15
REMARK    6  A    between atoms: N_17  and  C_18
REMARK    7  A    between atoms: C_18  and  C_19
REMARK    8  A    between atoms: C_29  and  C_31
REMARK                            x       y       z     vdW  Elec       q    Type
REMARK                         _______ _______ _______ _____ _____    ______ ____
ROOT
ATOM      8  C   UNL     1      -2.633   3.247  25.001  0.00  0.00    +0.173 C 
ATOM      9  C   UNL     1      -2.871   2.511  24.715  0.00  0.00    +0.044 C 
ATOM     10  C   UNL     1      -2.306   1.937  24.534  0.00  0.00    +0.004 C 
ATOM     11  C   UNL     1      -1.505   2.099  24.639  0.00  0.00    +0.003 C 
ATOM     12  C   UNL     1      -1.742   1.363  24.353  0.00  0.00    +0.000 C 
ATOM     13  C   UNL     1      -0.940   1.525  24.458  0.00  0.00    +0.040 C 
ATOM     24  C   UNL     1      -0.138   1.687  24.563  0.00  0.00    +0.152 C 
ATOM     25  O   UNL     1       0.426   1.114  24.382  0.00  0.00    -0.223 OA
ATOM     26  C   UNL     1       0.100   2.423  24.849  0.00  0.00    +0.033 C 
ATOM     27  C   UNL     1      -0.464   2.998  25.031  0.00  0.00    +0.003 C 
ATOM     28  C   UNL     1      -1.267   2.835  24.925  0.00  0.00    +0.006 C 
ATOM     29  C   UNL     1      -1.830   3.409  25.107  0.00  0.00    +0.068 C 
ATOM     30  C   UNL     1      -1.250   3.948  25.339  0.00  0.00    +0.006 C 
ENDROOT
BRANCH  29  31
ATOM     31  C   UNL     1      -1.991   4.171  25.380  0.00  0.00    +0.185 C 
ATOM     32  O   UNL     1      -1.400   4.745  25.375  0.00  0.00    -0.220 OA
ENDBRANCH  29  31
BRANCH   8   7
ATOM      7  O   UNL     1      -3.197   3.821  25.183  0.00  0.00    -0.437 OA
BRANCH   7   5
ATOM      4  N   UNL     1      -4.479   3.598  25.773  0.00  0.00    -0.170 NA
ATOM      5  C   UNL     1      -4.000   3.649  25.103  0.00  0.00    +0.421 C 
ATOM      6  O   UNL     1      -4.324   3.529  24.354  0.00  0.00    -0.225 OA
BRANCH   4   2
ATOM      1  C   UNL     1      -5.556   2.660  25.833  0.00  0.00    +0.024 C 
ATOM      2  C   UNL     1      -5.282   3.427  25.694  0.00  0.00    +0.099 C 
ATOM      3  C   UNL     1      -5.812   4.020  25.475  0.00  0.00    +0.024 C 
ENDBRANCH   4   2
ENDBRANCH   7   5
ENDBRANCH   8   7
BRANCH  13  14
ATOM     14  C   UNL     1      -1.178   0.788  24.171  0.00  0.00    +0.089 C 
BRANCH  14  15
ATOM     15  C   UNL     1      -1.241   0.147  24.686  0.00  0.00    +0.242 C 
ATOM     16  O   UNL     1      -0.804   0.135  25.385  0.00  0.00    -0.273 OA
ATOM     17  N   UNL     1      -1.741  -0.482  24.501  0.00  0.00    -0.197 NA
BRANCH  17  18
ATOM     18  C   UNL     1      -1.804  -1.124  25.015  0.00  0.00    +0.179 C 
BRANCH  18  19
ATOM     19  C   UNL     1      -2.357  -1.719  24.869  0.00  0.00    +0.145 A 
ATOM     20  C   UNL     1      -3.086  -1.807  25.244  0.00  0.00    +0.038 A 
ATOM     21  C   UNL     1      -3.457  -2.473  24.927  0.00  0.00    +0.043 A 
ATOM     22  C   UNL     1      -2.957  -2.797  24.356  0.00  0.00    +0.179 A 
ATOM     23  O   UNL     1      -2.277  -2.330  24.320  0.00  0.00    -0.453 OA
ENDBRANCH  18  19
ENDBRANCH  17  18
ENDBRANCH  14  15
ENDBRANCH  13  14
TORSDOF 8
ENDMDL
MODEL 3
REMARK VINA RESULT:     -12.1      1.724      5.089
REMARK  Name = 
REMARK  8 active torsions:
REMARK  status: ('A' for Active; 'I' for Inactive)
REMARK    1  A    between atoms: C_2  and  N_4
REMARK    2  A    between atoms: C_5  and  O_7
REMARK    3  A    between atoms: O_7  and  C_8
REMARK    4  A    between atoms: C_13  and  C_14
REMARK    5  A    between atoms: C_14  and  C_15
REMARK    6  A    between atoms: N_17  and  C_18
REMARK    7  A    between atoms: C_18  and  C_19
REMARK    8  A    between atoms: C_29  and  C_31
REMARK                            x       y       z     vdW  Elec       q    Type
REMARK                         _______ _______ _______ _____ _____    ______ ____
ROOT
ATOM      8  C   UNL     1      -0.707   1.531  25.036  0.00  0.00    +0.173 C 
ATOM      9  C   UNL     1      -1.423   1.582  25.443  0.00  0.00    +0.044 C 
ATOM     10  C   UNL     1      -1.768   2.319  25.580  0.00  0.00    +0.004 C 
ATOM     11  C   UNL     1      -1.398   3.004  25.311  0.00  0.00    +0.003 C 
ATOM     12  C   UNL     1      -2.114   3.055  25.718  0.00  0.00    +0.000 C 
ATOM     13  C   UNL     1      -1.743   3.741  25.448  0.00  0.00    +0.040 C 
ATOM     24  C   UNL     1      -1.373   4.427  25.179  0.00  0.00    +0.152 C 
ATOM     25  O   UNL     1      -1.717   5.163  25.316  0.00  0.00    -0.223 OA
ATOM     26  C   UNL     1      -0.657   4.376  24.772  0.00  0.00    +0.033 C 
ATOM     27  C   UNL     1      -0.311   3.640  24.634  0.00  0.00    +0.003 C 
ATOM     28  C   UNL     1      -0.682   2.954  24.904  0.00  0.00    +0.006 C 
ATOM     29  C   UNL     1      -0.336   2.218  24.766  0.00  0.00    +0.068 C 
ATOM     30  C   UNL     1       0.302   2.558  24.371  0.00  0.00    +0.006 C 
ENDROOT
BRANCH  29  31
ATOM     31  C   UNL     1       0.288   1.787  24.443  0.00  0.00    +0.185 C 
ATOM     32  O   UNL     1       0.976   2.173  24.202  0.00  0.00    -0.220 OA
ENDBRANCH  29  31
BRANCH   8   7
ATOM      7  O   UNL     1      -0.362   0.795  24.898  0.00  0.00    -0.437 OA
BRANCH   7   5
ATOM      4  N   UNL     1      -0.924  -0.472  24.550  0.00  0.00    -0.170 NA
ATOM      5  C   UNL     1      -0.760   0.105  25.116  0.00  0.00    +0.421 C 
ATOM      6  O   UNL     1      -0.994  -0.006  25.899  0.00  0.00    -0.225 OA
BRANCH   4   2
ATOM      1  C   UNL     1      -0.913  -1.775  25.138  0.00  0.00    +0.024 C 
ATOM      2  C   UNL     1      -1.322  -1.161  24.767  0.00  0.00    +0.099 C 
ATOM      3  C   UNL     1      -2.130  -1.237  24.615  0.00  0.00    +0.024 C 
ENDBRANCH   4   2
ENDBRANCH   7   5
ENDBRANCH   8   7
BRANCH  13  14
ATOM     14  C   UNL     1      -2.459   3.792  25.856  0.00  0.00    +0.089 C 
BRANCH  14  15
ATOM     15  C   UNL     1      -3.168   3.840  25.438  0.00  0.00    +0.242 C 
ATOM     16  O   UNL     1      -3.204   4.269  24.734  0.00  0.00    -0.273 OA
ATOM     17  N   UNL     1      -3.842   3.460  25.723  0.00  0.00    -0.197 NA
BRANCH  17  18
ATOM     18  C   UNL     1      -4.552   3.508  25.305  0.00  0.00    +0.179 C 
BRANCH  18  19
ATOM     19  C   UNL     1      -5.163   2.976  25.465  0.00  0.00    +0.145 A 
ATOM     20  C   UNL     1      -5.447   2.396  24.953  0.00  0.00    +0.038 A 
ATOM     21  C   UNL     1      -6.056   1.994  25.337  0.00  0.00    +0.043 A 
ATOM     22  C   UNL     1      -6.149   2.325  26.087  0.00  0.00    +0.179 A 
ATOM     23  O   UNL     1      -5.596   2.933  26.166  0.00  0.00    -0.453 OA
ENDBRANCH  18  19
ENDBRANCH  17  18
ENDBRANCH  14  15
ENDBRANCH  13  14
TORSDOF 8
ENDMDL
MODEL 4
REMARK VINA RESULT:     -11.8      1.041      1.373
REMARK  Name = 
REMARK  8 active torsions:
REMARK  status: ('A' for Active; 'I' for Inactive)
REMARK    1  A    between atoms: C_2  and  N_4
REMARK    2  A    between atoms: C_5  and  O_7
REMARK    3  A    between atoms: O_7  and  C_8
REMARK    4  A    between atoms: C_13  and  C_14
REMARK    5  A    between atoms: C_14  and  C_15
REMARK    6  A    between atoms: N_17  and  C_18
REMARK    7  A    between atoms: C_18  and  C_19
REMARK    8  A    between atoms: C_29  and  C_31
REMARK                            x       y       z     vdW  Elec       q    Type
REMARK                         _______ _______ _______ _____ _____    ______ ____
ROOT
ATOM      8  C   UNL     1      -2.793   3.149  25.107  0.00  0.00    +0.173 C 
ATOM      9  C   UNL     1      -2.717   2.413  24.742  0.00  0.00    +0.044 C 
ATOM     10  C   UNL     1      -3.382   1.937  24.633  0.00  0.00    +0.004 C 
ATOM     11  C   UNL     1      -4.122   2.195  24.889  0.00  0.00    +0.003 C 
ATOM     12  C   UNL     1      -4.046   1.459  24.524  0.00  0.00    +0.000 C 
ATOM     13  C   UNL     1      -4.786   1.719  24.781  0.00  0.00    +0.040 C 
ATOM     24  C   UNL     1      -5.526   1.977  25.037  0.00  0.00    +0.152 C 
ATOM     25  O   UNL     1      -6.190   1.501  24.929  0.00  0.00    -0.223 OA
ATOM     26  C   UNL     1      -5.602   2.713  25.403  0.00  0.00    +0.033 C 
ATOM     27  C   UNL     1      -4.938   3.190  25.512  0.00  0.00    +0.003 C 
ATOM     28  C   UNL     1      -4.197   2.931  25.255  0.00  0.00    +0.006 C 
ATOM     29  C   UNL     1      -3.533   3.408  25.364  0.00  0.00    +0.068 C 
ATOM     30  C   UNL     1      -3.981   3.999  25.726  0.00  0.00    +0.006 C 
ENDROOT
BRANCH  29  31
ATOM     31  C   UNL     1      -3.219   4.117  25.646  0.00  0.00    +0.185 C 
ATOM     32  O   UNL     1      -3.643   4.570  26.189  0.00  0.00    -0.220 OA
ENDBRANCH  29  31
BRANCH   8   7
ATOM      7  O   UNL     1      -2.129   3.626  25.216  0.00  0.00    -0.437 OA
BRANCH   7   5
ATOM      4  N   UNL     1      -0.892   3.216  25.804  0.00  0.00    -0.170 NA
ATOM      5  C   UNL     1      -1.373   3.304  25.139  0.00  0.00    +0.421 C 
ATOM      6  O   UNL     1      -1.098   3.071  24.397  0.00  0.00    -0.225 OA
BRANCH   4   2
ATOM      1  C   UNL     1       0.124   2.321  26.262  0.00  0.00    +0.024 C 
ATOM      2  C   UNL     1      -0.137   2.894  25.727  0.00  0.00    +0.099 C 
ATOM      3  C   UNL     1       0.358   3.143  25.116  0.00  0.00    +0.024 C 
ENDBRANCH   4   2
ENDBRANCH   7   5
ENDBRANCH   8   7
BRANCH  13  14
ATOM     14  C   UNL     1      -4.711   0.982  24.415  0.00  0.00    +0.089 C 
BRANCH  14  15
ATOM     15  C   UNL     1      -4.614   0.303  24.873  0.00  0.00    +0.242 C 
ATOM     16  O   UNL     1      -4.837   0.305  25.667  0.00  0.00    -0.273 OA
ATOM     17  N   UNL     1      -4.293  -0.378  24.537  0.00  0.00    -0.197 NA
BRANCH  17  18
ATOM     18  C   UNL     1      -4.196  -1.058  24.994  0.00  0.00    +0.179 C 
BRANCH  18  19
ATOM     19  C   UNL     1      -3.902  -1.749  24.651  0.00  0.00    +0.145 A 
ATOM     20  C   UNL     1      -3.247  -2.177  24.909  0.00  0.00    +0.038 A 
ATOM     21  C   UNL     1      -3.152  -2.825  24.408  0.00  0.00    +0.043 A 
ATOM     22  C   UNL     1      -3.749  -2.797  23.838  0.00  0.00    +0.179 A 
ATOM     23  O   UNL     1      -4.212  -2.132  23.989  0.00  0.00    -0.453 OA
ENDBRANCH  18  19
ENDBRANCH  17  18
ENDBRANCH  14  15
ENDBRANCH  13  14
TORSDOF 8
ENDMDL
MODEL 5
REMARK VINA RESULT:     -11.7      1.225      4.613
REMARK  Name = 
REMARK  8 active torsions:
REMARK  status: ('A' for Active; 'I' for Inactive)
REMARK    1  A    between atoms: C_2  and  N_4
REMARK    2  A    between atoms: C_5  and  O_7
REMARK    3  A    between atoms: O_7  and  C_8
REMARK    4  A    between atoms: C_13  and  C_14
REMARK    5  A    between atoms: C_14  and  C_15
REMARK    6  A    between atoms: N_17  and  C_18
REMARK    7  A    between atoms: C_18  and  C_19
REMARK    8  A    between atoms: C_29  and  C_31
REMARK                            x       y       z     vdW  Elec       q    Type
REMARK                         _______ _______ _______ _____ _____    ______ ____
ROOT
ATOM      8  C   UNL     1      -2.928  -0.095  24.609  0.00  0.00    +0.173 C 
ATOM      9  C   UNL     1      -2.571   0.614  24.383  0.00  0.00    +0.044 C 
ATOM     10  C   UNL     1      -3.012   1.312  24.373  0.00  0.00    +0.004 C 
ATOM     11  C   UNL     1      -3.807   1.301  24.588  0.00  0.00    +0.003 C 
ATOM     12  C   UNL     1      -3.451   2.010  24.362  0.00  0.00    +0.000 C 
ATOM     13  C   UNL     1      -4.248   1.999  24.577  0.00  0.00    +0.040 C 
ATOM     24  C   UNL     1      -5.044   1.988  24.792  0.00  0.00    +0.152 C 
ATOM     25  O   UNL     1      -5.483   2.685  24.781  0.00  0.00    -0.223 OA
ATOM     26  C   UNL     1      -5.400   1.279  25.018  0.00  0.00    +0.033 C 
ATOM     27  C   UNL     1      -4.961   0.581  25.029  0.00  0.00    +0.003 C 
ATOM     28  C   UNL     1      -4.164   0.592  24.814  0.00  0.00    +0.006 C 
ATOM     29  C   UNL     1      -3.725  -0.106  24.825  0.00  0.00    +0.068 C 
ATOM     30  C   UNL     1      -4.374  -0.546  25.079  0.00  0.00    +0.006 C 
ENDROOT
BRANCH  29  31
ATOM     31  C   UNL     1      -3.704  -0.918  24.968  0.00  0.00    +0.185 C 
ATOM     32  O   UNL     1      -4.381  -1.375  24.856  0.00  0.00    -0.220 OA
ENDBRANCH  29  31
BRANCH   8   7
ATOM      7  O   UNL     1      -2.488  -0.793  24.620  0.00  0.00    -0.437 OA
BRANCH   7   5
ATOM      4  N   UNL     1      -1.163  -1.136  24.210  0.00  0.00    -0.170 NA
ATOM      5  C   UNL     1      -1.672  -0.765  24.742  0.00  0.00    +0.421 C 
ATOM      6  O   UNL     1      -1.367  -0.365  25.396  0.00  0.00    -0.225 OA
BRANCH   4   2
ATOM      1  C   UNL     1       0.001  -1.587  24.906  0.00  0.00    +0.024 C 
ATOM      2  C   UNL     1      -0.348  -1.107  24.331  0.00  0.00    +0.099 C 
ATOM      3  C   UNL     1       0.120  -0.599  23.880  0.00  0.00    +0.024 C 
ENDBRANCH   4   2
ENDBRANCH   7   5
ENDBRANCH   8   7
BRANCH  13  14
ATOM     14  C   UNL     1      -3.891   2.708  24.351  0.00  0.00    +0.089 C 
BRANCH  14  15
ATOM     15  C   UNL     1      -3.575   3.211  24.923  0.00  0.00    +0.242 C 
ATOM     16  O   UNL     1      -3.929   3.265  25.666  0.00  0.00    -0.273 OA
ATOM     17  N   UNL     1      -2.904   3.660  24.753  0.00  0.00    -0.197 NA
BRANCH  17  18
ATOM     18  C   UNL     1      -2.588   4.163  25.325  0.00  0.00    +0.179 C 
BRANCH  18  19
ATOM     19  C   UNL     1      -1.872   4.550  25.185  0.00  0.00    +0.145 A 
ATOM     20  C   UNL     1      -1.770   5.363  25.095  0.00  0.00    +0.038 A 
ATOM     21  C   UNL     1      -0.968   5.506  24.965  0.00  0.00    +0.043 A 
ATOM     22  C   UNL     1      -0.574   4.782  24.974  0.00  0.00    +0.179 A 
ATOM     23  O   UNL     1      -1.133   4.190  25.110  0.00  0.00    -0.453 OA
ENDBRANCH  18  19
ENDBRANCH  17  18
ENDBRANCH  14  15
ENDBRANCH  13  14
TORSDOF 8
ENDMDL
MODEL 6
REMARK VINA RESULT:     -11.4      1.697      4.743
REMARK  Name = 
REMARK  8 active torsions:
REMARK  status: ('A' for Active; 'I' for Inactive)
REMARK    1  A    between atoms: C_2  and  N_4
REMARK    2  A    between atoms: C_5  and  O_7
REMARK    3  A    between atoms: O_7  and  C_8
REMARK    4  A    between atoms: C_13  and  C_14
REMARK    5  A    between atoms: C_14  and  C_15
REMARK    6  A    between atoms: N_17  and  C_18
REMARK    7  A    between atoms: C_18  and  C_19
REMARK    8  A    between atoms: C_29  and  C_31
REMARK                            x       y       z     vdW  Elec       q    Type
REMARK                         _______ _______ _______ _____ _____    ______ ____
ROOT
ATOM      8  C   UNL     1      -3.988  -0.365  24.771  0.00  0.00    +0.173 C 
ATOM      9  C   UNL     1      -3.461   0.134  25.164  0.00  0.00    +0.044 C 
ATOM     10  C   UNL     1      -2.681  -0.107  25.290  0.00  0.00    +0.004 C 
ATOM     11  C   UNL     1      -2.429  -0.845  25.023  0.00  0.00    +0.003 C 
ATOM     12  C   UNL     1      -1.902  -0.346  25.416  0.00  0.00    +0.000 C 
ATOM     13  C   UNL     1      -1.650  -1.086  25.149  0.00  0.00    +0.040 C 
ATOM     24  C   UNL     1      -1.398  -1.824  24.882  0.00  0.00    +0.152 C 
ATOM     25  O   UNL     1      -0.619  -2.064  25.008  0.00  0.00    -0.223 OA
ATOM     26  C   UNL     1      -1.925  -2.323  24.490  0.00  0.00    +0.033 C 
ATOM     27  C   UNL     1      -2.704  -2.083  24.364  0.00  0.00    +0.003 C 
ATOM     28  C   UNL     1      -2.956  -1.344  24.631  0.00  0.00    +0.006 C 
ATOM     29  C   UNL     1      -3.735  -1.104  24.504  0.00  0.00    +0.068 C 
ATOM     30  C   UNL     1      -3.921  -1.810  24.120  0.00  0.00    +0.006 C 
ENDROOT
BRANCH  29  31
ATOM     31  C   UNL     1      -4.481  -1.279  24.196  0.00  0.00    +0.185 C 
ATOM     32  O   UNL     1      -4.601  -1.980  23.780  0.00  0.00    -0.220 OA
ENDBRANCH  29  31
BRANCH   8   7
ATOM      7  O   UNL     1      -4.767  -0.126  24.645  0.00  0.00    -0.437 OA
BRANCH   7   5
ATOM      4  N   UNL     1      -5.260   1.207  24.485  0.00  0.00    -0.170 NA
ATOM      5  C   UNL     1      -5.040   0.581  24.975  0.00  0.00    +0.421 C 
ATOM      6  O   UNL     1      -5.091   0.659  25.795  0.00  0.00    -0.225 OA
BRANCH   4   2
ATOM      1  C   UNL     1      -5.061   2.589  24.788  0.00  0.00    +0.024 C 
ATOM      2  C   UNL     1      -5.532   1.912  24.815  0.00  0.00    +0.099 C 
ATOM      3  C   UNL     1      -6.276   1.941  25.171  0.00  0.00    +0.024 C 
ENDBRANCH   4   2
ENDBRANCH   7   5
ENDBRANCH   8   7
BRANCH  13  14
ATOM     14  C   UNL     1      -1.122  -0.586  25.542  0.00  0.00    +0.089 C 
BRANCH  14  15
ATOM     15  C   UNL     1      -0.644  -0.071  25.111  0.00  0.00    +0.242 C 
ATOM     16  O   UNL     1      -0.245  -0.341  24.442  0.00  0.00    -0.273 OA
ATOM     17  N   UNL     1      -0.566   0.715  25.349  0.00  0.00    -0.197 NA
BRANCH  17  18
ATOM     18  C   UNL     1      -0.088   1.231  24.918  0.00  0.00    +0.179 C 
BRANCH  18  19
ATOM     19  C   UNL     1      -0.162   2.047  25.020  0.00  0.00    +0.145 A 
ATOM     20  C   UNL     1       0.014   2.468  25.706  0.00  0.00    +0.038 A 
ATOM     21  C   UNL     1      -0.141   3.265  25.563  0.00  0.00    +0.043 A 
ATOM     22  C   UNL     1      -0.413   3.337  24.787  0.00  0.00    +0.179 A 
ATOM     23  O   UNL     1      -0.426   2.584  24.451  0.00  0.00    -0.453 OA
ENDBRANCH  18  19
ENDBRANCH  17  18
ENDBRANCH  14  15
ENDBRANCH  13  14
TORSDOF 8
ENDMDL
MODEL 7
REMARK VINA RESULT:     -11.4      1.830      5.614
REMARK  Name = 
REMARK  8 active torsions:
REMARK  status: ('A' for Active; 'I' for Inactive)
REMARK    1  A    between atoms: C_2  and  N_4
REMARK    2  A    between atoms: C_5  and  O_7
REMARK    3  A    between atoms: O_7  and  C_8
REMARK    4  A    between atoms: C_13  and  C_14
REMARK    5  A    between atoms: C_14  and  C_15
REMARK    6  A    between atoms: N_17  and  C_18
REMARK    7  A    between atoms: C_18  and  C_19
REMARK    8  A    between atoms: C_29  and  C_31
REMARK                            x       y       z     vdW  Elec       q    Type
REMARK                         _______ _______ _______ _____ _____    ______ ____
ROOT
ATOM      8  C   UNL     1      -1.333  -0.401  24.689  0.00  0.00    +0.173 C 
ATOM      9  C   UNL     1      -1.906   0.038  25.089  0.00  0.00    +0.044 C 
ATOM     10  C   UNL     1      -1.807   0.851  25.188  0.00  0.00    +0.004 C 
ATOM     11  C   UNL     1      -1.136   1.225  24.889  0.00  0.00    +0.003 C 
ATOM     12  C   UNL     1      -1.708   1.664  25.288  0.00  0.00    +0.000 C 
ATOM     13  C   UNL     1      -1.036   2.038  24.988  0.00  0.00    +0.040 C 
ATOM     24  C   UNL     1      -0.365   2.411  24.689  0.00  0.00    +0.152 C 
ATOM     25  O   UNL     1      -0.266   3.224  24.788  0.00  0.00    -0.223 OA
ATOM     26  C   UNL     1       0.208   1.972  24.289  0.00  0.00    +0.033 C 
ATOM     27  C   UNL     1       0.109   1.159  24.189  0.00  0.00    +0.003 C 
ATOM     28  C   UNL     1      -0.563   0.785  24.489  0.00  0.00    +0.006 C 
ATOM     29  C   UNL     1      -0.661  -0.027  24.389  0.00  0.00    +0.068 C 
ATOM     30  C   UNL     1       0.053  -0.094  23.982  0.00  0.00    +0.006 C 
ENDROOT
BRANCH  29  31
ATOM     31  C   UNL     1      -0.365  -0.737  24.091  0.00  0.00    +0.185 C 
ATOM     32  O   UNL     1       0.346  -0.745  23.673  0.00  0.00    -0.220 OA
ENDBRANCH  29  31
BRANCH   8   7
ATOM      7  O   UNL     1      -1.431  -1.214  24.589  0.00  0.00    -0.437 OA
BRANCH   7   5
ATOM      4  N   UNL     1      -2.592  -1.946  24.188  0.00  0.00    -0.170 NA
ATOM      5  C   UNL     1      -2.153  -1.568  24.776  0.00  0.00    +0.421 C 
ATOM      6  O   UNL     1      -2.436  -1.543  25.550  0.00  0.00    -0.225 OA
BRANCH   4   2
ATOM      1  C   UNL     1      -4.018  -1.966  24.104  0.00  0.00    +0.024 C 
ATOM      2  C   UNL     1      -3.313  -2.300  24.375  0.00  0.00    +0.099 C 
ATOM      3  C   UNL     1      -3.331  -2.987  24.832  0.00  0.00    +0.024 C 
ENDBRANCH   4   2
ENDBRANCH   7   5
ENDBRANCH   8   7
BRANCH  13  14
ATOM     14  C   UNL     1      -1.610   2.477  25.388  0.00  0.00    +0.089 C 
BRANCH  14  15
ATOM     15  C   UNL     1      -2.190   2.880  24.964  0.00  0.00    +0.242 C 
ATOM     16  O   UNL     1      -2.005   3.227  24.239  0.00  0.00    -0.273 OA
ATOM     17  N   UNL     1      -2.956   2.936  25.264  0.00  0.00    -0.197 NA
BRANCH  17  18
ATOM     18  C   UNL     1      -3.538   3.339  24.839  0.00  0.00    +0.179 C 
BRANCH  18  19
ATOM     19  C   UNL     1      -4.323   3.319  25.092  0.00  0.00    +0.145 A 
ATOM     20  C   UNL     1      -4.885   2.752  24.886  0.00  0.00    +0.038 A 
ATOM     21  C   UNL     1      -5.593   2.946  25.262  0.00  0.00    +0.043 A 
ATOM     22  C   UNL     1      -5.469   3.634  25.700  0.00  0.00    +0.179 A 
ATOM     23  O   UNL     1      -4.684   3.865  25.595  0.00  0.00    -0.453 OA
ENDBRANCH  18  19
ENDBRANCH  17  18
ENDBRANCH  14  15
ENDBRANCH  13  14
TORSDOF 8
ENDMDL
MODEL 8
REMARK VINA RESULT:     -11.3      1.109      4.270
REMARK  Name = 
REMARK  8 active torsions:
REMARK  status: ('A' for Active; 'I' for Inactive)
REMARK    1  A    between atoms: C_2  and  N_4
REMARK    2  A    between atoms: C_5  and  O_7
REMARK    3  A    between atoms: O_7  and  C_8
REMARK    4  A    between atoms: C_13  and  C_14
REMARK    5  A    between atoms: C_14  and  C_15
REMARK    6  A    between atoms: N_17  and  C_18
REMARK    7  A    between atoms: C_18  and  C_19
REMARK    8  A    between atoms: C_29  and  C_31
REMARK                            x       y       z     vdW  Elec       q    Type
REMARK                         _______ _______ _______ _____ _____    ______ ____
ROOT
ATOM      8  C   UNL     1      -4.564   0.855  24.739  0.00  0.00    +0.173 C 
ATOM      9  C   UNL     1      -3.862   1.055  24.354  0.00  0.00    +0.044 C 
ATOM     10  C   UNL     1      -3.634   1.845  24.298  0.00  0.00    +0.004 C 
ATOM     11  C   UNL     1      -4.105   2.436  24.628  0.00  0.00    +0.003 C 
ATOM     12  C   UNL     1      -3.404   2.636  24.243  0.00  0.00    +0.000 C 
ATOM     13  C   UNL     1      -3.876   3.227  24.573  0.00  0.00    +0.040 C 
ATOM     24  C   UNL     1      -4.348   3.817  24.903  0.00  0.00    +0.152 C 
ATOM     25  O   UNL     1      -4.119   4.607  24.847  0.00  0.00    -0.223 OA
ATOM     26  C   UNL     1      -5.049   3.617  25.288  0.00  0.00    +0.033 C 
ATOM     27  C   UNL     1      -5.279   2.827  25.344  0.00  0.00    +0.003 C 
ATOM     28  C   UNL     1      -4.807   2.236  25.014  0.00  0.00    +0.006 C 
ATOM     29  C   UNL     1      -5.037   1.446  25.069  0.00  0.00    +0.068 C 
ATOM     30  C   UNL     1      -5.721   1.643  25.484  0.00  0.00    +0.006 C 
ENDROOT
BRANCH  29  31
ATOM     31  C   UNL     1      -5.590   0.894  25.335  0.00  0.00    +0.185 C 
ATOM     32  O   UNL     1      -6.254   1.145  25.755  0.00  0.00    -0.220 OA
ENDBRANCH  29  31
BRANCH   8   7
ATOM      7  O   UNL     1      -4.794   0.065  24.795  0.00  0.00    -0.437 OA
BRANCH   7   5
ATOM      4  N   UNL     1      -4.037  -1.126  25.028  0.00  0.00    -0.170 NA
ATOM      5  C   UNL     1      -4.294  -0.531  24.517  0.00  0.00    +0.421 C 
ATOM      6  O   UNL     1      -4.050  -0.530  23.729  0.00  0.00    -0.225 OA
BRANCH   4   2
ATOM      1  C   UNL     1      -2.739  -1.721  24.963  0.00  0.00    +0.024 C 
ATOM      2  C   UNL     1      -3.538  -1.720  24.751  0.00  0.00    +0.099 C 
ATOM      3  C   UNL     1      -3.834  -2.314  24.261  0.00  0.00    +0.024 C 
ENDBRANCH   4   2
ENDBRANCH   7   5
ENDBRANCH   8   7
BRANCH  13  14
ATOM     14  C   UNL     1      -3.174   3.427  24.187  0.00  0.00    +0.089 C 
BRANCH  14  15
ATOM     15  C   UNL     1      -2.536   3.720  24.619  0.00  0.00    +0.242 C 
ATOM     16  O   UNL     1      -2.570   4.478  24.943  0.00  0.00    -0.273 OA
ATOM     17  N   UNL     1      -1.863   3.256  24.727  0.00  0.00    -0.197 NA
BRANCH  17  18
ATOM     18  C   UNL     1      -1.224   3.549  25.159  0.00  0.00    +0.179 C 
BRANCH  18  19
ATOM     19  C   UNL     1      -0.622   3.040  25.405  0.00  0.00    +0.145 A 
ATOM     20  C   UNL     1      -0.453   2.830  26.184  0.00  0.00    +0.038 A 
ATOM     21  C   UNL     1       0.189   2.312  26.174  0.00  0.00    +0.043 A 
ATOM     22  C   UNL     1       0.417   2.202  25.389  0.00  0.00    +0.179 A 
ATOM     23  O   UNL     1      -0.085   2.653  24.913  0.00  0.00    -0.453 OA
ENDBRANCH  18  19
ENDBRANCH  17  18
ENDBRANCH  14  15
ENDBRANCH  13  14
TORSDOF 8
ENDMDL
MODEL 9
REMARK VINA RESULT:     -11.1      1.720      4.315
REMARK  Name = 
REMARK  8 active torsions:
REMARK  status: ('A' for Active; 'I' for Inactive)
REMARK    1  A    between atoms: C_2  and  N_4
REMARK    2  A    between atoms: C_5  and  O_7
REMARK    3  A    between atoms: O_7  and  C_8
REMARK    4  A    between atoms: C_13  and  C_14
REMARK    5  A    between atoms: C_14  and  C_15
REMARK    6  A    between atoms: N_17  and  C_18
REMARK    7  A    between atoms: C_18  and  C_19
REMARK    8  A    between atoms: C_29  and  C_31
REMARK                            x       y       z     vdW  Elec       q    Type
REMARK                         _______ _______ _______ _____ _____    ______ ____
ROOT
ATOM      8  C   UNL     1      -0.964   0.165  25.034  0.00  0.00    +0.173 C 
ATOM      9  C   UNL     1      -1.647   0.467  25.385  0.00  0.00    +0.044 C 
ATOM     10  C   UNL     1      -2.330   0.005  25.424  0.00  0.00    +0.004 C 
ATOM     11  C   UNL     1      -2.329  -0.759  25.113  0.00  0.00    +0.003 C 
ATOM     12  C   UNL     1      -3.012  -0.456  25.463  0.00  0.00    +0.000 C 
ATOM     13  C   UNL     1      -3.012  -1.221  25.151  0.00  0.00    +0.040 C 
ATOM     24  C   UNL     1      -3.011  -1.984  24.840  0.00  0.00    +0.152 C 
ATOM     25  O   UNL     1      -3.693  -2.446  24.879  0.00  0.00    -0.223 OA
ATOM     26  C   UNL     1      -2.328  -2.287  24.490  0.00  0.00    +0.033 C 
ATOM     27  C   UNL     1      -1.645  -1.825  24.451  0.00  0.00    +0.003 C 
ATOM     28  C   UNL     1      -1.646  -1.061  24.762  0.00  0.00    +0.006 C 
ATOM     29  C   UNL     1      -0.964  -0.599  24.723  0.00  0.00    +0.068 C 
ATOM     30  C   UNL     1      -0.545  -1.198  24.340  0.00  0.00    +0.006 C 
ENDROOT
BRANCH  29  31
ATOM     31  C   UNL     1      -0.176  -0.533  24.488  0.00  0.00    +0.185 C 
ATOM     32  O   UNL     1       0.152  -1.093  23.979  0.00  0.00    -0.220 OA
ENDBRANCH  29  31
BRANCH   8   7
ATOM      7  O   UNL     1      -0.282   0.627  24.995  0.00  0.00    -0.437 OA
BRANCH   7   5
ATOM      4  N   UNL     1      -0.168   2.023  24.710  0.00  0.00    -0.170 NA
ATOM      5  C   UNL     1      -0.300   1.412  25.249  0.00  0.00    +0.421 C 
ATOM      6  O   UNL     1      -0.450   1.586  26.041  0.00  0.00    -0.225 OA
BRANCH   4   2
ATOM      1  C   UNL     1      -0.618   3.368  24.538  0.00  0.00    +0.024 C 
ATOM      2  C   UNL     1      -0.186   2.807  24.964  0.00  0.00    +0.099 C 
ATOM      3  C   UNL     1       0.226   3.032  25.642  0.00  0.00    +0.024 C 
ENDBRANCH   4   2
ENDBRANCH   7   5
ENDBRANCH   8   7
BRANCH  13  14
ATOM     14  C   UNL     1      -3.695  -0.919  25.502  0.00  0.00    +0.089 C 
BRANCH  14  15
ATOM     15  C   UNL     1      -4.242  -0.502  25.047  0.00  0.00    +0.242 C 
ATOM     16  O   UNL     1      -4.473  -0.793  24.311  0.00  0.00    -0.273 OA
ATOM     17  N   UNL     1      -4.559   0.206  25.328  0.00  0.00    -0.197 NA
BRANCH  17  18
ATOM     18  C   UNL     1      -5.106   0.623  24.873  0.00  0.00    +0.179 C 
BRANCH  18  19
ATOM     19  C   UNL     1      -5.361   1.370  25.114  0.00  0.00    +0.145 A 
ATOM     20  C   UNL     1      -5.204   2.083  24.732  0.00  0.00    +0.038 A 
ATOM     21  C   UNL     1      -5.564   2.688  25.162  0.00  0.00    +0.043 A 
ATOM     22  C   UNL     1      -5.944   2.348  25.811  0.00  0.00    +0.179 A 
ATOM     23  O   UNL     1      -5.819   1.533  25.781  0.00  0.00    -0.453 OA
ENDBRANCH  18  19
ENDBRANCH  17  18
ENDBRANCH  14  15
ENDBRANCH  13  14
TORSDOF 8
ENDMDL
