MODEL 1
REMARK VINA RESULT:     -12.3      0.000      0.000
REMARK  Name = 
REMARK  9 active torsions:
REMARK  status: ('A' for Active; 'I' for Inactive)
REMARK    1  A    between atoms: O_2  and  C_3
REMARK    2  A    between atoms: C_3  and  C_4
REMARK    3  A    between atoms: C_4  and  O_5
REMARK    4  A    between atoms: O_5  and  C_6
REMARK    5  A    between atoms: C_8  and  C_12
REMARK    6  A    between atoms: C_15  and  C_17
REMARK    7  A    between atoms: N_21  and  C_22
REMARK    8  A    between atoms: C_22  and  C_23
REMARK    9  A    between atoms: C_26  and  C_29
REMARK                            x       y       z     vdW  Elec       q    Type
REMARK                         _______ _______ _______ _____ _____    ______ ____
ROOT
ATOM     12  C   UNL     1      -3.143   3.383  24.738  0.00  0.00    +0.204 A 
ATOM     13  N   UNL     1      -3.613   3.555  24.081  0.00  0.00    -0.056 NA
ATOM     14  O   UNL     1      -4.277   3.065  24.108  0.00  0.00    -0.336 OA
ATOM     15  C   UNL     1      -4.217   2.591  24.780  0.00  0.00    +0.251 A 
ATOM     16  N   UNL     1      -3.516   2.788  25.169  0.00  0.00    -0.190 NA
ENDROOT
BRANCH  12   8
ATOM      6  C   UNL     1      -1.022   3.650  25.180  0.00  0.00    +0.225 A 
ATOM      7  C   UNL     1      -1.739   3.290  24.989  0.00  0.00    +0.061 A 
ATOM      8  C   UNL     1      -2.426   3.744  24.928  0.00  0.00    +0.045 A 
ATOM      9  C   UNL     1      -2.395   4.557  25.058  0.00  0.00    +0.024 A 
ATOM     10  C   UNL     1      -1.678   4.918  25.249  0.00  0.00    +0.102 A 
ATOM     11  N   UNL     1      -0.992   4.465  25.310  0.00  0.00    -0.210 NA
BRANCH   6   5
ATOM      5  O   UNL     1      -0.336   3.197  25.241  0.00  0.00    -0.457 OA
BRANCH   5   4
ATOM      4  C   UNL     1      -0.097   2.722  24.610  0.00  0.00    +0.239 C 
BRANCH   4   3
ATOM      3  C   UNL     1       0.433   2.103  24.738  0.00  0.00    +0.189 C 
BRANCH   3   2
ATOM      1  C   UNL     1       0.830   1.051  23.856  0.00  0.00    +0.174 C 
ATOM      2  O   UNL     1       0.905   1.829  24.119  0.00  0.00    -0.347 OA
ENDBRANCH   3   2
ENDBRANCH   4   3
ENDBRANCH   5   4
ENDBRANCH   6   5
ENDBRANCH  12   8
BRANCH  15  17
ATOM     17  C   UNL     1      -4.761   2.021  25.021  0.00  0.00    +0.138 C 
ATOM     18  C   UNL     1      -5.464   2.163  25.431  0.00  0.00    +0.027 C 
ATOM     19  C   UNL     1      -5.836   1.438  25.558  0.00  0.00    +0.019 C 
ATOM     20  C   UNL     1      -5.364   0.847  25.228  0.00  0.00    +0.073 C 
ATOM     21  N   UNL     1      -4.700   1.207  24.896  0.00  0.00    -0.263 NA
BRANCH  21  22
ATOM     22  C   UNL     1      -4.083   0.822  24.508  0.00  0.00    +0.099 C 
BRANCH  22  23
ATOM     23  C   UNL     1      -3.998   0.005  24.577  0.00  0.00    -0.006 A 
ATOM     24  C   UNL     1      -4.303  -0.493  23.993  0.00  0.00    -0.003 A 
ATOM     25  C   UNL     1      -4.218  -1.310  24.062  0.00  0.00    +0.004 A 
ATOM     26  C   UNL     1      -3.830  -1.631  24.715  0.00  0.00    +0.071 A 
ATOM     27  C   UNL     1      -3.525  -1.134  25.300  0.00  0.00    +0.004 A 
ATOM     28  C   UNL     1      -3.610  -0.316  25.230  0.00  0.00    -0.003 A 
BRANCH  26  29
ATOM     29  C   UNL     1      -3.745  -2.449  24.785  0.00  0.00    +0.419 C 
ATOM     30  F   UNL     1      -3.660  -3.266  24.854  0.00  0.00    -0.166 F 
ATOM     31  F   UNL     1      -3.838  -2.528  23.968  0.00  0.00    -0.166 F 
ATOM     32  F   UNL     1      -3.652  -2.370  25.600  0.00  0.00    -0.166 F 
ENDBRANCH  26  29
ENDBRANCH  22  23
ENDBRANCH  21  22
ENDBRANCH  15  17
TORSDOF 9
ENDMDL
MODEL 2
REMARK VINA RESULT:     -12.2      1.544      3.531
REMARK  Name = 
REMARK  9 active torsions:
REMARK  status: ('A' for Active; 'I' for Inactive)
REMARK    1  A    between atoms: O_2  and  C_3
REMARK    2  A    between atoms: C_3  and  C_4
REMARK    3  A    between atoms: C_4  and  O_5
REMARK    4  A    between atoms: O_5  and  C_6
REMARK    5  A    between atoms: C_8  and  C_12
REMARK    6  A    between atoms: C_15  and  C_17
REMARK    7  A    between atoms: N_21  and  C_22
REMARK    8  A    between atoms: C_22  and  C_23
REMARK    9  A    between atoms: C_26  and  C_29
REMARK                            x       y       z     vdW  Elec       q    Type
REMARK                         _______ _______ _______ _____ _____    ______ ____
ROOT
ATOM     12  C   UNL     1      -0.882   2.576  25.342  0.00  0.00    +0.204 A 
ATOM     13  N   UNL     1      -0.364   2.280  25.912  0.00  0.00    -0.056 NA
ATOM     14  O   UNL     1      -0.091   1.545  25.652  0.00  0.00    -0.336 OA
ATOM     15  C   UNL     1      -0.441   1.387  24.922  0.00  0.00    +0.251 A 
ATOM     16  N   UNL     1      -0.930   2.024  24.730  0.00  0.00    -0.190 NA
ENDROOT
BRANCH  12   8
ATOM      6  C   UNL     1      -2.459   4.044  25.686  0.00  0.00    +0.225 A 
ATOM      7  C   UNL     1      -2.060   3.323  25.651  0.00  0.00    +0.061 A 
ATOM      8  C   UNL     1      -1.282   3.297  25.378  0.00  0.00    +0.045 A 
ATOM      9  C   UNL     1      -0.903   3.990  25.141  0.00  0.00    +0.024 A 
ATOM     10  C   UNL     1      -1.303   4.710  25.176  0.00  0.00    +0.102 A 
ATOM     11  N   UNL     1      -2.081   4.738  25.449  0.00  0.00    -0.210 NA
BRANCH   6   5
ATOM      5  O   UNL     1      -3.237   4.072  25.959  0.00  0.00    -0.457 OA
BRANCH   5   4
ATOM      4  C   UNL     1      -3.846   3.749  25.505  0.00  0.00    +0.239 C 
BRANCH   4   3
ATOM      3  C   UNL     1      -4.597   3.649  25.834  0.00  0.00    +0.189 C 
BRANCH   3   2
ATOM      1  C   UNL     1      -5.756   2.846  25.605  0.00  0.00    +0.174 C 
ATOM      2  O   UNL     1      -5.231   3.430  25.354  0.00  0.00    -0.347 OA
ENDBRANCH   3   2
ENDBRANCH   4   3
ENDBRANCH   5   4
ENDBRANCH   6   5
ENDBRANCH  12   8
BRANCH  15  17
ATOM     17  C   UNL     1      -0.324   0.712  24.464  0.00  0.00    +0.138 C 
ATOM     18  C   UNL     1       0.198   0.641  23.828  0.00  0.00    +0.027 C 
ATOM     19  C   UNL     1       0.137  -0.127  23.532  0.00  0.00    +0.019 C 
ATOM     20  C   UNL     1      -0.422  -0.530  23.984  0.00  0.00    +0.073 C 
ATOM     21  N   UNL     1      -0.707  -0.012  24.560  0.00  0.00    -0.263 NA
BRANCH  21  22
ATOM     22  C   UNL     1      -1.276  -0.188  25.131  0.00  0.00    +0.099 C 
BRANCH  22  23
ATOM     23  C   UNL     1      -1.812  -0.802  25.005  0.00  0.00    -0.006 A 
ATOM     24  C   UNL     1      -2.581  -0.633  24.756  0.00  0.00    -0.003 A 
ATOM     25  C   UNL     1      -3.117  -1.246  24.629  0.00  0.00    +0.004 A 
ATOM     26  C   UNL     1      -2.886  -2.028  24.751  0.00  0.00    +0.071 A 
ATOM     27  C   UNL     1      -2.118  -2.198  25.000  0.00  0.00    +0.004 A 
ATOM     28  C   UNL     1      -1.581  -1.584  25.127  0.00  0.00    -0.003 A 
BRANCH  26  29
ATOM     29  C   UNL     1      -3.423  -2.643  24.624  0.00  0.00    +0.419 C 
ATOM     30  F   UNL     1      -3.959  -3.256  24.498  0.00  0.00    -0.166 F 
ATOM     31  F   UNL     1      -3.273  -2.606  23.813  0.00  0.00    -0.166 F 
ATOM     32  F   UNL     1      -3.573  -2.679  25.434  0.00  0.00    -0.166 F 
ENDBRANCH  26  29
ENDBRANCH  22  23
ENDBRANCH  21  22
ENDBRANCH  15  17
TORSDOF 9
ENDMDL
MODEL 3
REMARK VINA RESULT:     -11.7      2.930      4.907
REMARK  Name = 
REMARK  9 active torsions:
REMARK  status: ('A' for Active; 'I' for Inactive)
REMARK    1  A    between atoms: O_2  and  C_3
REMARK    2  A    between atoms: C_3  and  C_4
REMARK    3  A    between atoms: C_4  and  O_5
REMARK    4  A    between atoms: O_5  and  C_6
REMARK    5  A    between atoms: C_8  and  C_12
REMARK    6  A    between atoms: C_15  and  C_17
REMARK    7  A    between atoms: N_21  and  C_22
REMARK    8  A    between atoms: C_22  and  C_23
REMARK    9  A    between atoms: C_26  and  C_29
REMARK                            x       y       z     vdW  Elec       q    Type
REMARK                         _______ _______ _______ _____ _____    ______ ____
ROOT
ATOM     12  C   UNL     1      -3.925  -0.133  25.012  0.00  0.00    +0.204 A 
ATOM     13  N   UNL     1      -4.409  -0.051  25.675  0.00  0.00    -0.056 NA
ATOM     14  O   UNL     1      -4.686   0.727  25.693  0.00  0.00    -0.336 OA
ATOM     15  C   UNL     1      -4.373   1.124  25.041  0.00  0.00    +0.251 A 
ATOM     16  N   UNL     1      -3.902   0.592  24.620  0.00  0.00    -0.190 NA
ENDROOT
BRANCH  12   8
ATOM      6  C   UNL     1      -2.317  -1.553  24.608  0.00  0.00    +0.225 A 
ATOM      7  C   UNL     1      -2.710  -0.866  24.839  0.00  0.00    +0.061 A 
ATOM      8  C   UNL     1      -3.532  -0.821  24.781  0.00  0.00    +0.045 A 
ATOM      9  C   UNL     1      -3.961  -1.464  24.493  0.00  0.00    +0.024 A 
ATOM     10  C   UNL     1      -3.568  -2.151  24.262  0.00  0.00    +0.102 A 
ATOM     11  N   UNL     1      -2.747  -2.197  24.319  0.00  0.00    -0.210 NA
BRANCH   6   5
ATOM      5  O   UNL     1      -1.496  -1.599  24.665  0.00  0.00    -0.457 OA
BRANCH   5   4
ATOM      4  C   UNL     1      -1.021  -1.240  24.093  0.00  0.00    +0.239 C 
BRANCH   4   3
ATOM      3  C   UNL     1      -0.267  -0.972  24.293  0.00  0.00    +0.189 C 
BRANCH   3   2
ATOM      1  C   UNL     1       0.548  -0.088  23.520  0.00  0.00    +0.174 C 
ATOM      2  O   UNL     1       0.297  -0.852  23.704  0.00  0.00    -0.347 OA
ENDBRANCH   3   2
ENDBRANCH   4   3
ENDBRANCH   5   4
ENDBRANCH   6   5
ENDBRANCH  12   8
BRANCH  15  17
ATOM     17  C   UNL     1      -4.506   1.914  24.845  0.00  0.00    +0.138 C 
ATOM     18  C   UNL     1      -5.173   2.212  24.460  0.00  0.00    +0.027 C 
ATOM     19  C   UNL     1      -5.076   3.027  24.376  0.00  0.00    +0.019 C 
ATOM     20  C   UNL     1      -4.349   3.232  24.708  0.00  0.00    +0.073 C 
ATOM     21  N   UNL     1      -3.997   2.544  24.998  0.00  0.00    -0.263 NA
BRANCH  21  22
ATOM     22  C   UNL     1      -3.265   2.496  25.374  0.00  0.00    +0.099 C 
BRANCH  22  23
ATOM     23  C   UNL     1      -2.722   3.112  25.300  0.00  0.00    -0.006 A 
ATOM     24  C   UNL     1      -2.742   3.746  25.828  0.00  0.00    -0.003 A 
ATOM     25  C   UNL     1      -2.199   4.362  25.754  0.00  0.00    +0.004 A 
ATOM     26  C   UNL     1      -1.635   4.345  25.153  0.00  0.00    +0.071 A 
ATOM     27  C   UNL     1      -1.614   3.712  24.625  0.00  0.00    +0.004 A 
ATOM     28  C   UNL     1      -2.158   3.095  24.699  0.00  0.00    -0.003 A 
BRANCH  26  29
ATOM     29  C   UNL     1      -1.091   4.962  25.079  0.00  0.00    +0.419 C 
ATOM     30  F   UNL     1      -0.548   5.577  25.005  0.00  0.00    -0.166 F 
ATOM     31  F   UNL     1      -0.470   4.424  25.160  0.00  0.00    -0.166 F 
ATOM     32  F   UNL     1      -1.711   5.499  24.998  0.00  0.00    -0.166 F 
ENDBRANCH  26  29
ENDBRANCH  22  23
ENDBRANCH  21  22
ENDBRANCH  15  17
TORSDOF 9
ENDMDL
MODEL 4
REMARK VINA RESULT:     -11.1      2.792      4.896
REMARK  Name = 
REMARK  9 active torsions:
REMARK  status: ('A' for Active; 'I' for Inactive)
REMARK    1  A    between atoms: O_2  and  C_3
REMARK    2  A    between atoms: C_3  and  C_4
REMARK    3  A    between atoms: C_4  and  O_5
REMARK    4  A    between atoms: O_5  and  C_6
REMARK    5  A    between atoms: C_8  and  C_12
REMARK    6  A    between atoms: C_15  and  C_17
REMARK    7  A    between atoms: N_21  and  C_22
REMARK    8  A    between atoms: C_22  and  C_23
REMARK    9  A    between atoms: C_26  and  C_29
REMARK                            x       y       z     vdW  Elec       q    Type
REMARK                         _______ _______ _______ _____ _____    ______ ____
ROOT
ATOM     12  C   UNL     1      -0.202   1.696  24.838  0.00  0.00    +0.204 A 
ATOM     13  N   UNL     1       0.204   1.942  25.514  0.00  0.00    -0.056 NA
ATOM     14  O   UNL     1      -0.048   2.705  25.700  0.00  0.00    -0.336 OA
ATOM     15  C   UNL     1      -0.610   2.931  25.139  0.00  0.00    +0.251 A 
ATOM     16  N   UNL     1      -0.705   2.308  24.607  0.00  0.00    -0.190 NA
ENDROOT
BRANCH  12   8
ATOM      6  C   UNL     1      -0.408  -0.430  24.392  0.00  0.00    +0.225 A 
ATOM      7  C   UNL     1      -0.491   0.299  24.770  0.00  0.00    +0.061 A 
ATOM      8  C   UNL     1      -0.119   0.968  24.461  0.00  0.00    +0.045 A 
ATOM      9  C   UNL     1       0.336   0.908  23.775  0.00  0.00    +0.024 A 
ATOM     10  C   UNL     1       0.419   0.179  23.398  0.00  0.00    +0.102 A 
ATOM     11  N   UNL     1       0.048  -0.490  23.706  0.00  0.00    -0.210 NA
BRANCH   6   5
ATOM      5  O   UNL     1      -0.779  -1.099  24.700  0.00  0.00    -0.457 OA
BRANCH   5   4
ATOM      4  C   UNL     1      -1.506  -1.344  24.396  0.00  0.00    +0.239 C 
BRANCH   4   3
ATOM      3  C   UNL     1      -1.911  -1.970  24.752  0.00  0.00    +0.189 C 
BRANCH   3   2
ATOM      1  C   UNL     1      -3.211  -2.563  24.771  0.00  0.00    +0.174 C 
ATOM      2  O   UNL     1      -2.536  -2.333  24.356  0.00  0.00    -0.347 OA
ENDBRANCH   3   2
ENDBRANCH   4   3
ENDBRANCH   5   4
ENDBRANCH   6   5
ENDBRANCH  12   8
BRANCH  15  17
ATOM     17  C   UNL     1      -1.007   3.654  25.115  0.00  0.00    +0.138 C 
ATOM     18  C   UNL     1      -0.679   4.381  24.906  0.00  0.00    +0.027 C 
ATOM     19  C   UNL     1      -1.272   4.953  24.957  0.00  0.00    +0.019 C 
ATOM     20  C   UNL     1      -1.966   4.579  25.198  0.00  0.00    +0.073 C 
ATOM     21  N   UNL     1      -1.803   3.776  25.296  0.00  0.00    -0.263 NA
BRANCH  21  22
ATOM     22  C   UNL     1      -2.341   3.198  25.533  0.00  0.00    +0.099 C 
BRANCH  22  23
ATOM     23  C   UNL     1      -3.149   3.359  25.527  0.00  0.00    -0.006 A 
ATOM     24  C   UNL     1      -3.501   3.730  26.175  0.00  0.00    -0.003 A 
ATOM     25  C   UNL     1      -4.310   3.891  26.169  0.00  0.00    +0.004 A 
ATOM     26  C   UNL     1      -4.768   3.682  25.516  0.00  0.00    +0.071 A 
ATOM     27  C   UNL     1      -4.417   3.311  24.868  0.00  0.00    +0.004 A 
ATOM     28  C   UNL     1      -3.607   3.150  24.874  0.00  0.00    -0.003 A 
BRANCH  26  29
ATOM     29  C   UNL     1      -5.577   3.844  25.510  0.00  0.00    +0.419 C 
ATOM     30  F   UNL     1      -6.386   4.005  25.504  0.00  0.00    -0.166 F 
ATOM     31  F   UNL     1      -5.739   3.037  25.579  0.00  0.00    -0.166 F 
ATOM     32  F   UNL     1      -5.416   4.649  25.441  0.00  0.00    -0.166 F 
ENDBRANCH  26  29
ENDBRANCH  22  23
ENDBRANCH  21  22
ENDBRANCH  15  17
TORSDOF 9
ENDMDL
MODEL 5
REMARK VINA RESULT:     -11.1      2.984      5.903
REMARK  Name = 
REMARK  9 active torsions:
REMARK  status: ('A' for Active; 'I' for Inactive)
REMARK    1  A    between atoms: O_2  and  C_3
REMARK    2  A    between atoms: C_3  and  C_4
REMARK    3  A    between atoms: C_4  and  O_5
REMARK    4  A    between atoms: O_5  and  C_6
REMARK    5  A    between atoms: C_8  and  C_12
REMARK    6  A    between atoms: C_15  and  C_17
REMARK    7  A    between atoms: N_21  and  C_22
REMARK    8  A    between atoms: C_22  and  C_23
REMARK    9  A    between atoms: C_26  and  C_29
REMARK                            x       y       z     vdW  Elec       q    Type
REMARK                         _______ _______ _______ _____ _____    ______ ____
ROOT
ATOM     12  C   UNL     1      -1.925  -0.696  24.754  0.00  0.00    +0.204 A 
ATOM     13  N   UNL     1      -1.354  -1.010  25.261  0.00  0.00    -0.056 NA
ATOM     14  O   UNL     1      -0.666  -0.563  25.178  0.00  0.00    -0.336 OA
ATOM     15  C   UNL     1      -0.811   0.027  24.620  0.00  0.00    +0.251 A 
ATOM     16  N   UNL     1      -1.589  -0.055  24.358  0.00  0.00    -0.190 NA
ENDROOT
BRANCH  12   8
ATOM      6  C   UNL     1      -4.098  -0.722  24.551  0.00  0.00    +0.225 A 
ATOM      7  C   UNL     1      -3.327  -0.443  24.645  0.00  0.00    +0.061 A 
ATOM      8  C   UNL     1      -2.696  -0.975  24.660  0.00  0.00    +0.045 A 
ATOM      9  C   UNL     1      -2.835  -1.783  24.581  0.00  0.00    +0.024 A 
ATOM     10  C   UNL     1      -3.606  -2.062  24.487  0.00  0.00    +0.102 A 
ATOM     11  N   UNL     1      -4.238  -1.532  24.472  0.00  0.00    -0.210 NA
BRANCH   6   5
ATOM      5  O   UNL     1      -4.730  -0.192  24.537  0.00  0.00    -0.457 OA
BRANCH   5   4
ATOM      4  C   UNL     1      -4.710   0.487  25.005  0.00  0.00    +0.239 C 
BRANCH   4   3
ATOM      3  C   UNL     1      -5.290   1.067  24.914  0.00  0.00    +0.189 C 
BRANCH   3   2
ATOM      1  C   UNL     1      -5.710   2.366  25.337  0.00  0.00    +0.174 C 
ATOM      2  O   UNL     1      -5.425   1.613  25.517  0.00  0.00    -0.347 OA
ENDBRANCH   3   2
ENDBRANCH   4   3
ENDBRANCH   5   4
ENDBRANCH   6   5
ENDBRANCH  12   8
BRANCH  15  17
ATOM     17  C   UNL     1      -0.273   0.599  24.368  0.00  0.00    +0.138 C 
ATOM     18  C   UNL     1       0.321   0.492  23.804  0.00  0.00    +0.027 C 
ATOM     19  C   UNL     1       0.727   1.206  23.723  0.00  0.00    +0.019 C 
ATOM     20  C   UNL     1       0.384   1.754  24.235  0.00  0.00    +0.073 C 
ATOM     21  N   UNL     1      -0.234   1.379  24.634  0.00  0.00    -0.263 NA
BRANCH  21  22
ATOM     22  C   UNL     1      -0.726   1.724  25.199  0.00  0.00    +0.099 C 
BRANCH  22  23
ATOM     23  C   UNL     1      -0.856   2.538  25.190  0.00  0.00    -0.006 A 
ATOM     24  C   UNL     1      -0.378   3.037  25.642  0.00  0.00    -0.003 A 
ATOM     25  C   UNL     1      -0.508   3.852  25.634  0.00  0.00    +0.004 A 
ATOM     26  C   UNL     1      -1.116   4.168  25.175  0.00  0.00    +0.071 A 
ATOM     27  C   UNL     1      -1.594   3.670  24.723  0.00  0.00    +0.004 A 
ATOM     28  C   UNL     1      -1.463   2.855  24.731  0.00  0.00    -0.003 A 
BRANCH  26  29
ATOM     29  C   UNL     1      -1.246   4.983  25.167  0.00  0.00    +0.419 C 
ATOM     30  F   UNL     1      -1.377   5.797  25.159  0.00  0.00    -0.166 F 
ATOM     31  F   UNL     1      -0.589   5.083  24.678  0.00  0.00    -0.166 F 
ATOM     32  F   UNL     1      -1.903   4.883  25.655  0.00  0.00    -0.166 F 
ENDBRANCH  26  29
ENDBRANCH  22  23
ENDBRANCH  21  22
ENDBRANCH  15  17
TORSDOF 9
ENDMDL
