MODEL 1
REMARK VINA RESULT:      -8.5      0.000      0.000
REMARK  Name = 
REMARK  6 active torsions:
REMARK  status: ('A' for Active; 'I' for Inactive)
REMARK    1  A    between atoms: O_2  and  C_3
REMARK    2  A    between atoms: C_3  and  C_4
REMARK    3  A    between atoms: N_6  and  C_7
REMARK    4  A    between atoms: C_7  and  C_8
REMARK    5  A    between atoms: C_15  and  C_16
REMARK    6  A    between atoms: C_16  and  N_17
REMARK                            x       y       z     vdW  Elec       q    Type
REMARK                         _______ _______ _______ _____ _____    ______ ____
ROOT
ATOM      8  C   UNL     1      -2.968   1.638  24.575  0.00  0.00    +0.079 C 
ATOM      9  C   UNL     1      -3.728   1.567  24.728  0.00  0.00    +0.018 C 
ATOM     10  C   UNL     1      -4.137   0.870  24.774  0.00  0.00    +0.005 C 
ATOM     11  C   UNL     1      -5.004   1.004  24.961  0.00  0.00    +0.017 C 
ATOM     12  C   UNL     1      -4.386   1.181  24.843  0.00  0.00    +0.072 C 
ATOM     13  N   UNL     1      -3.392   0.931  24.623  0.00  0.00    -0.272 NA
ATOM     14  C   UNL     1      -3.140   0.060  24.523  0.00  0.00    +0.073 C 
ATOM     15  C   UNL     1      -3.888   0.034  24.677  0.00  0.00    +0.032 C 
ENDROOT
BRANCH   8   7
ATOM      7  C   UNL     1      -2.279   2.075  24.456  0.00  0.00    +0.131 C 
BRANCH   7   6
ATOM      4  C   UNL     1      -1.497   3.244  24.707  0.00  0.00    +0.272 C 
ATOM      5  O   UNL     1      -0.873   2.920  24.275  0.00  0.00    -0.271 OA
ATOM      6  N   UNL     1      -2.200   2.821  24.797  0.00  0.00    -0.202 NA
BRANCH   4   3
ATOM      3  C   UNL     1      -1.418   3.991  25.048  0.00  0.00    +0.229 C 
BRANCH   3   2
ATOM      1  C   UNL     1      -0.919   5.326  24.959  0.00  0.00    +0.175 C 
ATOM      2  O   UNL     1      -0.883   4.534  24.733  0.00  0.00    -0.342 OA
ENDBRANCH   3   2
ENDBRANCH   4   3
ENDBRANCH   7   6
ENDBRANCH   8   7
BRANCH  15  16
ATOM     16  C   UNL     1      -4.362  -0.638  24.738  0.00  0.00    +0.073 C 
BRANCH  16  17
ATOM     17  N   UNL     1      -4.031  -1.386  24.640  0.00  0.00    -0.273 NA
ATOM     18  C   UNL     1      -3.613  -1.810  25.212  0.00  0.00    +0.072 C 
ATOM     19  C   UNL     1      -3.382  -2.529  24.878  0.00  0.00    +0.019 C 
ATOM     20  C   UNL     1      -3.656  -2.549  24.101  0.00  0.00    +0.019 C 
ATOM     21  C   UNL     1      -4.057  -1.843  23.953  0.00  0.00    +0.072 C 
ENDBRANCH  16  17
ENDBRANCH  15  16
TORSDOF 6
ENDMDL
MODEL 2
REMARK VINA RESULT:      -8.2      2.064      4.849
REMARK  Name = 
REMARK  6 active torsions:
REMARK  status: ('A' for Active; 'I' for Inactive)
REMARK    1  A    between atoms: O_2  and  C_3
REMARK    2  A    between atoms: C_3  and  C_4
REMARK    3  A    between atoms: N_6  and  C_7
REMARK    4  A    between atoms: C_7  and  C_8
REMARK    5  A    between atoms: C_15  and  C_16
REMARK    6  A    between atoms: C_16  and  N_17
REMARK                            x       y       z     vdW  Elec       q    Type
REMARK                         _______ _______ _______ _____ _____    ______ ____
ROOT
ATOM      8  C   UNL     1      -4.480   1.009  24.617  0.00  0.00    +0.079 C 
ATOM      9  C   UNL     1      -4.965   1.467  25.018  0.00  0.00    +0.018 C 
ATOM     10  C   UNL     1      -4.808   2.223  25.260  0.00  0.00    +0.005 C 
ATOM     11  C   UNL     1      -5.498   2.580  25.709  0.00  0.00    +0.017 C 
ATOM     12  C   UNL     1      -5.180   2.115  25.379  0.00  0.00    +0.072 C 
ATOM     13  N   UNL     1      -4.328   1.781  24.867  0.00  0.00    -0.272 NA
ATOM     14  C   UNL     1      -3.599   2.321  24.769  0.00  0.00    +0.073 C 
ATOM     15  C   UNL     1      -4.104   2.738  25.162  0.00  0.00    +0.032 C 
ENDROOT
BRANCH   8   7
ATOM      7  C   UNL     1      -4.277   0.305  24.238  0.00  0.00    +0.131 C 
BRANCH   7   6
ATOM      4  C   UNL     1      -4.021  -1.099  24.293  0.00  0.00    +0.272 C 
ATOM      5  O   UNL     1      -3.944  -1.117  23.472  0.00  0.00    -0.271 OA
ATOM      6  N   UNL     1      -4.187  -0.388  24.676  0.00  0.00    -0.202 NA
BRANCH   4   3
ATOM      3  C   UNL     1      -3.931  -1.792  24.731  0.00  0.00    +0.229 C 
BRANCH   3   2
ATOM      1  C   UNL     1      -3.331  -3.082  24.869  0.00  0.00    +0.175 C 
ATOM      2  O   UNL     1      -3.563  -2.448  24.393  0.00  0.00    -0.342 OA
ENDBRANCH   3   2
ENDBRANCH   4   3
ENDBRANCH   7   6
ENDBRANCH   8   7
BRANCH  15  16
ATOM     16  C   UNL     1      -4.008   3.510  25.438  0.00  0.00    +0.073 C 
BRANCH  16  17
ATOM     17  N   UNL     1      -3.261   3.859  25.433  0.00  0.00    -0.273 NA
ATOM     18  C   UNL     1      -2.741   3.900  26.072  0.00  0.00    +0.072 C 
ATOM     19  C   UNL     1      -2.060   4.295  25.822  0.00  0.00    +0.019 C 
ATOM     20  C   UNL     1      -2.160   4.498  25.029  0.00  0.00    +0.019 C 
ATOM     21  C   UNL     1      -2.902   4.228  24.788  0.00  0.00    +0.072 C 
ENDBRANCH  16  17
ENDBRANCH  15  16
TORSDOF 6
ENDMDL
MODEL 3
REMARK VINA RESULT:      -7.9      2.700      3.682
REMARK  Name = 
REMARK  6 active torsions:
REMARK  status: ('A' for Active; 'I' for Inactive)
REMARK    1  A    between atoms: O_2  and  C_3
REMARK    2  A    between atoms: C_3  and  C_4
REMARK    3  A    between atoms: N_6  and  C_7
REMARK    4  A    between atoms: C_7  and  C_8
REMARK    5  A    between atoms: C_15  and  C_16
REMARK    6  A    between atoms: C_16  and  N_17
REMARK                            x       y       z     vdW  Elec       q    Type
REMARK                         _______ _______ _______ _____ _____    ______ ____
ROOT
ATOM      8  C   UNL     1      -2.174   1.388  23.853  0.00  0.00    +0.079 C 
ATOM      9  C   UNL     1      -2.511   1.895  23.368  0.00  0.00    +0.018 C 
ATOM     10  C   UNL     1      -3.223   2.262  23.489  0.00  0.00    +0.005 C 
ATOM     11  C   UNL     1      -3.435   2.809  22.811  0.00  0.00    +0.017 C 
ATOM     12  C   UNL     1      -3.064   2.380  23.136  0.00  0.00    +0.072 C 
ATOM     13  N   UNL     1      -2.899   1.766  23.969  0.00  0.00    -0.272 NA
ATOM     14  C   UNL     1      -3.507   1.726  24.649  0.00  0.00    +0.073 C 
ATOM     15  C   UNL     1      -3.803   2.218  24.146  0.00  0.00    +0.032 C 
ENDROOT
BRANCH   8   7
ATOM      7  C   UNL     1      -1.569   0.875  24.077  0.00  0.00    +0.131 C 
BRANCH   7   6
ATOM      4  C   UNL     1      -0.248   0.366  23.883  0.00  0.00    +0.272 C 
ATOM      5  O   UNL     1      -0.408  -0.251  24.406  0.00  0.00    -0.271 OA
ATOM      6  N   UNL     1      -0.828   0.929  23.718  0.00  0.00    -0.202 NA
BRANCH   4   3
ATOM      3  C   UNL     1       0.493   0.420  23.524  0.00  0.00    +0.229 C 
BRANCH   3   2
ATOM      1  C   UNL     1       1.511  -0.150  22.700  0.00  0.00    +0.175 C 
ATOM      2  O   UNL     1       0.798  -0.224  23.109  0.00  0.00    -0.342 OA
ENDBRANCH   3   2
ENDBRANCH   4   3
ENDBRANCH   7   6
ENDBRANCH   8   7
BRANCH  15  16
ATOM     16  C   UNL     1      -4.519   2.624  24.207  0.00  0.00    +0.073 C 
BRANCH  16  17
ATOM     17  N   UNL     1      -5.014   2.491  24.853  0.00  0.00    -0.273 NA
ATOM     18  C   UNL     1      -5.577   1.890  24.916  0.00  0.00    +0.072 C 
ATOM     19  C   UNL     1      -5.945   1.962  25.651  0.00  0.00    +0.019 C 
ATOM     20  C   UNL     1      -5.609   2.606  26.042  0.00  0.00    +0.019 C 
ATOM     21  C   UNL     1      -5.034   2.933  25.549  0.00  0.00    +0.072 C 
ENDBRANCH  16  17
ENDBRANCH  15  16
TORSDOF 6
ENDMDL
MODEL 4
REMARK VINA RESULT:      -7.6      1.966      5.247
REMARK  Name = 
REMARK  6 active torsions:
REMARK  status: ('A' for Active; 'I' for Inactive)
REMARK    1  A    between atoms: O_2  and  C_3
REMARK    2  A    between atoms: C_3  and  C_4
REMARK    3  A    between atoms: N_6  and  C_7
REMARK    4  A    between atoms: C_7  and  C_8
REMARK    5  A    between atoms: C_15  and  C_16
REMARK    6  A    between atoms: C_16  and  N_17
REMARK                            x       y       z     vdW  Elec       q    Type
REMARK                         _______ _______ _______ _____ _____    ______ ____
ROOT
ATOM      8  C   UNL     1      -2.127   0.996  24.835  0.00  0.00    +0.079 C 
ATOM      9  C   UNL     1      -1.447   1.058  25.208  0.00  0.00    +0.018 C 
ATOM     10  C   UNL     1      -1.108   1.750  25.458  0.00  0.00    +0.005 C 
ATOM     11  C   UNL     1      -0.323   1.608  25.867  0.00  0.00    +0.017 C 
ATOM     12  C   UNL     1      -0.871   1.437  25.555  0.00  0.00    +0.072 C 
ATOM     13  N   UNL     1      -1.775   1.696  25.093  0.00  0.00    -0.272 NA
ATOM     14  C   UNL     1      -2.038   2.569  25.035  0.00  0.00    +0.073 C 
ATOM     15  C   UNL     1      -1.367   2.586  25.399  0.00  0.00    +0.032 C 
ENDROOT
BRANCH   8   7
ATOM      7  C   UNL     1      -2.729   0.567  24.469  0.00  0.00    +0.131 C 
BRANCH   7   6
ATOM      4  C   UNL     1      -3.493  -0.635  24.345  0.00  0.00    +0.272 C 
ATOM      5  O   UNL     1      -3.963  -0.276  23.770  0.00  0.00    -0.271 OA
ATOM      6  N   UNL     1      -2.875  -0.213  24.695  0.00  0.00    -0.202 NA
BRANCH   4   3
ATOM      3  C   UNL     1      -3.639  -1.415  24.570  0.00  0.00    +0.229 C 
BRANCH   3   2
ATOM      1  C   UNL     1      -3.905  -2.763  24.181  0.00  0.00    +0.175 C 
ATOM      2  O   UNL     1      -3.932  -1.955  24.020  0.00  0.00    -0.342 OA
ENDBRANCH   3   2
ENDBRANCH   4   3
ENDBRANCH   7   6
ENDBRANCH   8   7
BRANCH  15  16
ATOM     16  C   UNL     1      -0.968   3.253  25.678  0.00  0.00    +0.073 C 
BRANCH  16  17
ATOM     17  N   UNL     1      -1.195   4.004  25.427  0.00  0.00    -0.273 NA
ATOM     18  C   UNL     1      -0.782   4.485  24.899  0.00  0.00    +0.072 C 
ATOM     19  C   UNL     1      -1.207   5.186  24.805  0.00  0.00    +0.019 C 
ATOM     20  C   UNL     1      -1.883   5.138  25.275  0.00  0.00    +0.019 C 
ATOM     21  C   UNL     1      -1.876   4.408  25.660  0.00  0.00    +0.072 C 
ENDBRANCH  16  17
ENDBRANCH  15  16
TORSDOF 6
ENDMDL
MODEL 5
REMARK VINA RESULT:      -7.6      1.413      2.033
REMARK  Name = 
REMARK  6 active torsions:
REMARK  status: ('A' for Active; 'I' for Inactive)
REMARK    1  A    between atoms: O_2  and  C_3
REMARK    2  A    between atoms: C_3  and  C_4
REMARK    3  A    between atoms: N_6  and  C_7
REMARK    4  A    between atoms: C_7  and  C_8
REMARK    5  A    between atoms: C_15  and  C_16
REMARK    6  A    between atoms: C_16  and  N_17
REMARK                            x       y       z     vdW  Elec       q    Type
REMARK                         _______ _______ _______ _____ _____    ______ ____
ROOT
ATOM      8  C   UNL     1      -1.859   1.110  25.030  0.00  0.00    +0.079 C 
ATOM      9  C   UNL     1      -1.247   0.636  24.949  0.00  0.00    +0.018 C 
ATOM     10  C   UNL     1      -1.282  -0.169  24.870  0.00  0.00    +0.005 C 
ATOM     11  C   UNL     1      -0.466  -0.532  24.790  0.00  0.00    +0.017 C 
ATOM     12  C   UNL     1      -0.896  -0.046  24.862  0.00  0.00    +0.072 C 
ATOM     13  N   UNL     1      -1.886   0.289  24.948  0.00  0.00    -0.272 NA
ATOM     14  C   UNL     1      -2.583  -0.299  24.926  0.00  0.00    +0.073 C 
ATOM     15  C   UNL     1      -1.957  -0.730  24.850  0.00  0.00    +0.032 C 
ENDROOT
BRANCH   8   7
ATOM      7  C   UNL     1      -2.207   1.851  25.123  0.00  0.00    +0.131 C 
BRANCH   7   6
ATOM      4  C   UNL     1      -2.085   3.257  25.346  0.00  0.00    +0.272 C 
ATOM      5  O   UNL     1      -2.907   3.328  25.353  0.00  0.00    -0.271 OA
ATOM      6  N   UNL     1      -1.735   2.519  25.231  0.00  0.00    -0.202 NA
BRANCH   4   3
ATOM      3  C   UNL     1      -1.613   3.925  25.455  0.00  0.00    +0.229 C 
BRANCH   3   2
ATOM      1  C   UNL     1      -1.288   5.264  25.076  0.00  0.00    +0.175 C 
ATOM      2  O   UNL     1      -1.832   4.644  25.117  0.00  0.00    -0.342 OA
ENDBRANCH   3   2
ENDBRANCH   4   3
ENDBRANCH   7   6
ENDBRANCH   8   7
BRANCH  15  16
ATOM     16  C   UNL     1      -1.922  -1.550  24.765  0.00  0.00    +0.073 C 
BRANCH  16  17
ATOM     17  N   UNL     1      -2.618  -1.989  24.720  0.00  0.00    -0.273 NA
ATOM     18  C   UNL     1      -3.047  -2.148  24.033  0.00  0.00    +0.072 C 
ATOM     19  C   UNL     1      -3.703  -2.604  24.241  0.00  0.00    +0.019 C 
ATOM     20  C   UNL     1      -3.679  -2.727  25.057  0.00  0.00    +0.019 C 
ATOM     21  C   UNL     1      -3.008  -2.347  25.352  0.00  0.00    +0.072 C 
ENDBRANCH  16  17
ENDBRANCH  15  16
TORSDOF 6
ENDMDL
MODEL 6
REMARK VINA RESULT:      -7.5      2.036      2.855
REMARK  Name = 
REMARK  6 active torsions:
REMARK  status: ('A' for Active; 'I' for Inactive)
REMARK    1  A    between atoms: O_2  and  C_3
REMARK    2  A    between atoms: C_3  and  C_4
REMARK    3  A    between atoms: N_6  and  C_7
REMARK    4  A    between atoms: C_7  and  C_8
REMARK    5  A    between atoms: C_15  and  C_16
REMARK    6  A    between atoms: C_16  and  N_17
REMARK                            x       y       z     vdW  Elec       q    Type
REMARK                         _______ _______ _______ _____ _____    ______ ____
ROOT
ATOM      8  C   UNL     1      -4.381   0.013  24.812  0.00  0.00    +0.079 C 
ATOM      9  C   UNL     1      -4.425  -0.662  24.428  0.00  0.00    +0.018 C 
ATOM     10  C   UNL     1      -3.826  -1.201  24.350  0.00  0.00    +0.005 C 
ATOM     11  C   UNL     1      -4.079  -1.915  23.870  0.00  0.00    +0.017 C 
ATOM     12  C   UNL     1      -4.157  -1.334  24.159  0.00  0.00    +0.072 C 
ATOM     13  N   UNL     1      -3.774  -0.540  24.727  0.00  0.00    -0.272 NA
ATOM     14  C   UNL     1      -2.913  -0.553  25.028  0.00  0.00    +0.073 C 
ATOM     15  C   UNL     1      -2.998  -1.206  24.642  0.00  0.00    +0.032 C 
ENDROOT
BRANCH   8   7
ATOM      7  C   UNL     1      -4.693   0.725  25.087  0.00  0.00    +0.131 C 
BRANCH   7   6
ATOM      4  C   UNL     1      -4.835   2.142  24.968  0.00  0.00    +0.272 C 
ATOM      5  O   UNL     1      -5.233   2.163  25.689  0.00  0.00    -0.271 OA
ATOM      6  N   UNL     1      -4.565   1.423  24.666  0.00  0.00    -0.202 NA
BRANCH   4   3
ATOM      3  C   UNL     1      -4.706   2.839  24.547  0.00  0.00    +0.229 C 
BRANCH   3   2
ATOM      1  C   UNL     1      -3.924   4.026  24.407  0.00  0.00    +0.175 C 
ATOM      2  O   UNL     1      -4.271   3.452  24.887  0.00  0.00    -0.342 OA
ENDBRANCH   3   2
ENDBRANCH   4   3
ENDBRANCH   7   6
ENDBRANCH   8   7
BRANCH  15  16
ATOM     16  C   UNL     1      -2.431  -1.794  24.525  0.00  0.00    +0.073 C 
BRANCH  16  17
ATOM     17  N   UNL     1      -1.642  -1.648  24.710  0.00  0.00    -0.273 NA
ATOM     18  C   UNL     1      -1.267  -1.837  25.421  0.00  0.00    +0.072 C 
ATOM     19  C   UNL     1      -0.481  -1.593  25.369  0.00  0.00    +0.019 C 
ATOM     20  C   UNL     1      -0.369  -1.252  24.625  0.00  0.00    +0.019 C 
ATOM     21  C   UNL     1      -1.087  -1.286  24.218  0.00  0.00    +0.072 C 
ENDBRANCH  16  17
ENDBRANCH  15  16
TORSDOF 6
ENDMDL
