MODEL 1
REMARK VINA RESULT:      -8.3      0.000      0.000
REMARK  Name = 
REMARK  6 active torsions:
REMARK  status: ('A' for Active; 'I' for Inactive)
REMARK    1  A    between atoms: O_2  and  C_3
REMARK    2  A    between atoms: C_3  and  C_5
REMARK    3  A    between atoms: N_7  and  C_10
REMARK    4  A    between atoms: C_14  and  N_18
REMARK    5  A    between atoms: N_18  and  C_19
REMARK    6  A    between atoms: C_19  and  C_20
REMARK                            x       y       z     vdW  Elec       q    Type
REMARK                         _______ _______ _______ _____ _____    ______ ____
ROOT
ATOM     10  C   UNL     1      -3.341   2.520  24.961  0.00  0.00    +0.166 C 
ATOM     11  C   UNL     1      -4.095   2.447  24.635  0.00  0.00    +0.169 C 
ATOM     12  O   UNL     1      -4.211   1.654  24.441  0.00  0.00    -0.350 OA
ATOM     13  C   UNL     1      -3.531   1.237  24.646  0.00  0.00    +0.163 C 
ATOM     14  C   UNL     1      -3.181   0.490  24.654  0.00  0.00    +0.132 C 
ATOM     15  C   UNL     1      -2.427   0.564  24.980  0.00  0.00    +0.162 C 
ATOM     16  O   UNL     1      -2.310   1.357  25.174  0.00  0.00    -0.350 OA
ATOM     17  C   UNL     1      -2.992   1.773  24.968  0.00  0.00    +0.168 C 
ENDROOT
BRANCH  10   7
ATOM      5  C   UNL     1      -2.202   4.288  25.333  0.00  0.00    +0.198 A 
ATOM      6  C   UNL     1      -2.367   3.620  24.878  0.00  0.00    +0.124 A 
ATOM      7  N   UNL     1      -2.996   3.219  25.233  0.00  0.00    -0.227 N 
ATOM      8  N   UNL     1      -3.219   3.640  25.906  0.00  0.00    -0.064 NA
ATOM      9  N   UNL     1      -2.728   4.301  25.968  0.00  0.00    -0.122 NA
BRANCH   5   3
ATOM      3  C   UNL     1      -1.613   4.846  25.179  0.00  0.00    +0.363 C 
ATOM      4  O   UNL     1      -1.778   5.650  25.252  0.00  0.00    -0.243 OA
BRANCH   3   2
ATOM      1  C   UNL     1      -0.332   5.137  24.618  0.00  0.00    +0.256 C 
ATOM      2  O   UNL     1      -0.860   4.597  24.951  0.00  0.00    -0.440 OA
ENDBRANCH   3   2
ENDBRANCH   5   3
ENDBRANCH  10   7
BRANCH  14  18
ATOM     18  N   UNL     1      -3.526  -0.209  24.382  0.00  0.00    -0.206 NA
BRANCH  18  19
ATOM     19  C   UNL     1      -3.237  -0.938  24.637  0.00  0.00    +0.153 C 
BRANCH  19  20
ATOM     20  C   UNL     1      -3.586  -1.637  24.371  0.00  0.00    +0.141 A 
ATOM     21  C   UNL     1      -3.408  -2.398  24.634  0.00  0.00    +0.038 A 
ATOM     22  C   UNL     1      -3.887  -2.928  24.221  0.00  0.00    +0.043 A 
ATOM     23  C   UNL     1      -4.360  -2.495  23.703  0.00  0.00    +0.179 A 
ATOM     24  O   UNL     1      -4.174  -1.696  23.796  0.00  0.00    -0.453 OA
ENDBRANCH  19  20
ENDBRANCH  18  19
ENDBRANCH  14  18
TORSDOF 6
ENDMDL
MODEL 2
REMARK VINA RESULT:      -8.1      2.791      4.566
REMARK  Name = 
REMARK  6 active torsions:
REMARK  status: ('A' for Active; 'I' for Inactive)
REMARK    1  A    between atoms: O_2  and  C_3
REMARK    2  A    between atoms: C_3  and  C_5
REMARK    3  A    between atoms: N_7  and  C_10
REMARK    4  A    between atoms: C_14  and  N_18
REMARK    5  A    between atoms: N_18  and  C_19
REMARK    6  A    between atoms: C_19  and  C_20
REMARK                            x       y       z     vdW  Elec       q    Type
REMARK                         _______ _______ _______ _____ _____    ______ ____
ROOT
ATOM     10  C   UNL     1      -0.940   0.749  24.498  0.00  0.00    +0.166 C 
ATOM     11  C   UNL     1      -0.826   1.169  25.199  0.00  0.00    +0.169 C 
ATOM     12  O   UNL     1      -1.534   1.547  25.387  0.00  0.00    -0.350 OA
ATOM     13  C   UNL     1      -2.086   1.361  24.804  0.00  0.00    +0.163 C 
ATOM     14  C   UNL     1      -2.865   1.479  24.558  0.00  0.00    +0.132 C 
ATOM     15  C   UNL     1      -2.979   1.059  23.858  0.00  0.00    +0.162 C 
ATOM     16  O   UNL     1      -2.271   0.681  23.670  0.00  0.00    -0.350 OA
ATOM     17  C   UNL     1      -1.719   0.868  24.254  0.00  0.00    +0.168 C 
ENDROOT
BRANCH  10   7
ATOM      5  C   UNL     1       0.633  -0.079  23.315  0.00  0.00    +0.198 A 
ATOM      6  C   UNL     1       0.180   0.565  23.563  0.00  0.00    +0.124 A 
ATOM      7  N   UNL     1      -0.374   0.291  24.110  0.00  0.00    -0.227 N 
ATOM      8  N   UNL     1      -0.264  -0.522  24.200  0.00  0.00    -0.064 NA
ATOM      9  N   UNL     1       0.359  -0.750  23.709  0.00  0.00    -0.122 NA
BRANCH   5   3
ATOM      3  C   UNL     1       1.252  -0.055  22.770  0.00  0.00    +0.363 C 
ATOM      4  O   UNL     1       1.126  -0.299  21.992  0.00  0.00    -0.243 OA
BRANCH   3   2
ATOM      1  C   UNL     1       2.627   0.194  22.471  0.00  0.00    +0.256 C 
ATOM      2  O   UNL     1       1.996   0.215  23.003  0.00  0.00    -0.440 OA
ENDBRANCH   3   2
ENDBRANCH   5   3
ENDBRANCH  10   7
BRANCH  14  18
ATOM     18  N   UNL     1      -3.431   1.938  24.947  0.00  0.00    -0.206 NA
BRANCH  18  19
ATOM     19  C   UNL     1      -4.197   1.991  24.645  0.00  0.00    +0.153 C 
BRANCH  19  20
ATOM     20  C   UNL     1      -4.767   2.436  25.042  0.00  0.00    +0.141 A 
ATOM     21  C   UNL     1      -5.466   2.146  25.371  0.00  0.00    +0.038 A 
ATOM     22  C   UNL     1      -5.869   2.780  25.712  0.00  0.00    +0.043 A 
ATOM     23  C   UNL     1      -5.420   3.461  25.594  0.00  0.00    +0.179 A 
ATOM     24  O   UNL     1      -4.739   3.248  25.180  0.00  0.00    -0.453 OA
ENDBRANCH  19  20
ENDBRANCH  18  19
ENDBRANCH  14  18
TORSDOF 6
ENDMDL
MODEL 3
REMARK VINA RESULT:      -7.9      1.475      5.806
REMARK  Name = 
REMARK  6 active torsions:
REMARK  status: ('A' for Active; 'I' for Inactive)
REMARK    1  A    between atoms: O_2  and  C_3
REMARK    2  A    between atoms: C_3  and  C_5
REMARK    3  A    between atoms: N_7  and  C_10
REMARK    4  A    between atoms: C_14  and  N_18
REMARK    5  A    between atoms: N_18  and  C_19
REMARK    6  A    between atoms: C_19  and  C_20
REMARK                            x       y       z     vdW  Elec       q    Type
REMARK                         _______ _______ _______ _____ _____    ______ ____
ROOT
ATOM     10  C   UNL     1      -1.528  -0.206  25.104  0.00  0.00    +0.166 C 
ATOM     11  C   UNL     1      -1.072   0.002  25.760  0.00  0.00    +0.169 C 
ATOM     12  O   UNL     1      -0.962   0.819  25.744  0.00  0.00    -0.350 OA
ATOM     13  C   UNL     1      -1.349   1.117  25.080  0.00  0.00    +0.163 C 
ATOM     14  C   UNL     1      -1.521   1.805  24.658  0.00  0.00    +0.132 C 
ATOM     15  C   UNL     1      -1.977   1.597  24.003  0.00  0.00    +0.162 C 
ATOM     16  O   UNL     1      -2.087   0.780  24.019  0.00  0.00    -0.350 OA
ATOM     17  C   UNL     1      -1.699   0.483  24.684  0.00  0.00    +0.168 C 
ENDROOT
BRANCH  10   7
ATOM      5  C   UNL     1      -2.533  -2.043  24.687  0.00  0.00    +0.198 A 
ATOM      6  C   UNL     1      -2.544  -1.255  24.932  0.00  0.00    +0.124 A 
ATOM      7  N   UNL     1      -1.770  -0.969  24.905  0.00  0.00    -0.227 N 
ATOM      8  N   UNL     1      -1.281  -1.580  24.643  0.00  0.00    -0.064 NA
ATOM      9  N   UNL     1      -1.753  -2.244  24.508  0.00  0.00    -0.122 NA
BRANCH   5   3
ATOM      3  C   UNL     1      -3.188  -2.542  24.630  0.00  0.00    +0.363 C 
ATOM      4  O   UNL     1      -3.468  -2.932  25.301  0.00  0.00    -0.243 OA
BRANCH   3   2
ATOM      1  C   UNL     1      -4.354  -2.880  23.877  0.00  0.00    +0.256 C 
ATOM      2  O   UNL     1      -3.561  -2.650  23.903  0.00  0.00    -0.440 OA
ENDBRANCH   3   2
ENDBRANCH   5   3
ENDBRANCH  10   7
BRANCH  14  18
ATOM     18  N   UNL     1      -1.279   2.568  24.858  0.00  0.00    -0.206 NA
BRANCH  18  19
ATOM     19  C   UNL     1      -1.677   3.221  24.548  0.00  0.00    +0.153 C 
BRANCH  19  20
ATOM     20  C   UNL     1      -1.446   3.984  24.763  0.00  0.00    +0.141 A 
ATOM     21  C   UNL     1      -1.914   4.539  25.155  0.00  0.00    +0.038 A 
ATOM     22  C   UNL     1      -1.465   5.224  25.257  0.00  0.00    +0.043 A 
ATOM     23  C   UNL     1      -0.721   5.092  24.929  0.00  0.00    +0.179 A 
ATOM     24  O   UNL     1      -0.709   4.326  24.623  0.00  0.00    -0.453 OA
ENDBRANCH  19  20
ENDBRANCH  18  19
ENDBRANCH  14  18
TORSDOF 6
ENDMDL
