MODEL 1
REMARK VINA RESULT:      -8.2      0.000      0.000
REMARK  Name = 
REMARK  10 active torsions:
REMARK  status: ('A' for Active; 'I' for Inactive)
REMARK    1  A    between atoms: O_2  and  C_3
REMARK    2  A    between atoms: C_3  and  C_5
REMARK    3  A    between atoms: C_10  and  C_11
REMARK    4  A    between atoms: C_11  and  C_12
REMARK    5  A    between atoms: C_14  and  C_15
REMARK    6  A    between atoms: C_18  and  C_19
REMARK    7  A    between atoms: C_19  and  N_20
REMARK    8  A    between atoms: N_20  and  C_21
REMARK    9  A    between atoms: C_21  and  C_22
REMARK   10  A    between atoms: C_27  and  O_28
REMARK                            x       y       z     vdW  Elec       q    Type
REMARK                         _______ _______ _______ _____ _____    ______ ____
ROOT
ATOM     12  C   UNL     1      -0.910   0.175  24.339  0.00  0.00    +0.026 C 
ATOM     13  C   UNL     1      -0.640   0.939  24.497  0.00  0.00    +0.005 C 
ATOM     14  C   UNL     1      -1.180   1.550  24.620  0.00  0.00    +0.006 C 
ATOM     18  C   UNL     1      -1.990   1.398  24.587  0.00  0.00    +0.039 C 
ATOM     30  C   UNL     1      -2.260   0.635  24.429  0.00  0.00    -0.033 C 
ATOM     31  C   UNL     1      -1.720   0.023  24.305  0.00  0.00    -0.048 C 
ATOM     32  C   UNL     1      -1.990  -0.740  24.147  0.00  0.00    +0.026 C 
ENDROOT
BRANCH  14  15
ATOM     15  C   UNL     1      -0.910   2.313  24.778  0.00  0.00    +0.000 C 
ATOM     16  C   UNL     1      -0.815   2.853  24.162  0.00  0.00    +0.000 C 
ATOM     17  C   UNL     1      -0.734   2.537  25.554  0.00  0.00    +0.000 C 
ENDBRANCH  14  15
BRANCH  12  11
ATOM     11  C   UNL     1      -0.370  -0.436  24.215  0.00  0.00    +0.070 C 
BRANCH  11  10
ATOM      5  C   UNL     1       2.738   0.245  22.646  0.00  0.00    +0.077 A 
ATOM      6  C   UNL     1       2.352   0.239  23.375  0.00  0.00    +0.027 A 
ATOM      7  C   UNL     1       1.560   0.013  23.421  0.00  0.00    +0.100 A 
ATOM      8  C   UNL     1       1.154  -0.207  22.738  0.00  0.00    +0.100 A 
ATOM      9  N   UNL     1       0.382  -0.402  22.952  0.00  0.00    -0.229 NA
ATOM     10  C   UNL     1       0.310  -0.302  23.767  0.00  0.00    +0.139 A 
ATOM     33  N   UNL     1       1.038  -0.046  24.057  0.00  0.00    -0.229 NA
ATOM     34  C   UNL     1       1.540  -0.202  22.008  0.00  0.00    +0.021 A 
ATOM     35  C   UNL     1       2.332   0.024  21.963  0.00  0.00    +0.008 A 
BRANCH   5   3
ATOM      3  C   UNL     1       3.529   0.471  22.601  0.00  0.00    +0.341 C 
ATOM      4  O   UNL     1       3.741   1.150  22.183  0.00  0.00    -0.245 OA
BRANCH   3   2
ATOM      1  C   UNL     1       4.882   0.303  23.031  0.00  0.00    +0.256 C 
ATOM      2  O   UNL     1       4.111   0.018  22.972  0.00  0.00    -0.441 OA
ENDBRANCH   3   2
ENDBRANCH   5   3
ENDBRANCH  11  10
ENDBRANCH  12  11
BRANCH  18  19
ATOM     19  C   UNL     1      -2.530   2.009  24.710  0.00  0.00    +0.093 C 
BRANCH  19  20
ATOM     20  N   UNL     1      -3.337   1.844  24.752  0.00  0.00    -0.213 NA
BRANCH  20  21
ATOM     21  C   UNL     1      -3.883   2.461  24.799  0.00  0.00    +0.118 C 
BRANCH  21  22
ATOM     22  C   UNL     1      -4.668   2.302  24.996  0.00  0.00    +0.029 A 
ATOM     23  C   UNL     1      -4.979   1.546  24.879  0.00  0.00    +0.000 A 
ATOM     24  C   UNL     1      -5.764   1.387  25.075  0.00  0.00    -0.000 A 
ATOM     25  C   UNL     1      -6.239   1.985  25.389  0.00  0.00    +0.003 A 
ATOM     26  C   UNL     1      -5.930   2.740  25.506  0.00  0.00    +0.037 A 
ATOM     27  C   UNL     1      -5.144   2.899  25.309  0.00  0.00    +0.136 A 
BRANCH  27  28
ATOM     28  O   UNL     1      -4.834   3.655  25.426  0.00  0.00    -0.472 OA
ATOM     29  C   UNL     1      -5.336   4.282  25.613  0.00  0.00    +0.252 C 
ENDBRANCH  27  28
ENDBRANCH  21  22
ENDBRANCH  20  21
ENDBRANCH  19  20
ENDBRANCH  18  19
TORSDOF 10
ENDMDL
MODEL 2
REMARK VINA RESULT:      -7.8      1.403      2.399
REMARK  Name = 
REMARK  10 active torsions:
REMARK  status: ('A' for Active; 'I' for Inactive)
REMARK    1  A    between atoms: O_2  and  C_3
REMARK    2  A    between atoms: C_3  and  C_5
REMARK    3  A    between atoms: C_10  and  C_11
REMARK    4  A    between atoms: C_11  and  C_12
REMARK    5  A    between atoms: C_14  and  C_15
REMARK    6  A    between atoms: C_18  and  C_19
REMARK    7  A    between atoms: C_19  and  N_20
REMARK    8  A    between atoms: N_20  and  C_21
REMARK    9  A    between atoms: C_21  and  C_22
REMARK   10  A    between atoms: C_27  and  O_28
REMARK                            x       y       z     vdW  Elec       q    Type
REMARK                         _______ _______ _______ _____ _____    ______ ____
ROOT
ATOM     12  C   UNL     1      -2.034  -0.972  25.120  0.00  0.00    +0.026 C 
ATOM     13  C   UNL     1      -2.497  -1.201  24.476  0.00  0.00    +0.005 C 
ATOM     14  C   UNL     1      -3.290  -0.974  24.438  0.00  0.00    +0.006 C 
ATOM     18  C   UNL     1      -3.619  -0.519  25.041  0.00  0.00    +0.039 C 
ATOM     30  C   UNL     1      -3.156  -0.290  25.685  0.00  0.00    -0.033 C 
ATOM     31  C   UNL     1      -2.364  -0.517  25.725  0.00  0.00    -0.048 C 
ATOM     32  C   UNL     1      -1.901  -0.288  26.368  0.00  0.00    +0.026 C 
ENDROOT
BRANCH  14  15
ATOM     15  C   UNL     1      -3.753  -1.202  23.794  0.00  0.00    +0.000 C 
ATOM     16  C   UNL     1      -4.230  -1.873  23.847  0.00  0.00    +0.000 C 
ATOM     17  C   UNL     1      -3.738  -0.760  23.097  0.00  0.00    +0.000 C 
ENDBRANCH  14  15
BRANCH  12  11
ATOM     11  C   UNL     1      -1.242  -1.198  25.160  0.00  0.00    +0.070 C 
BRANCH  11  10
ATOM      5  C   UNL     1       1.261   0.029  22.967  0.00  0.00    +0.077 A 
ATOM      6  C   UNL     1       0.886  -0.659  23.223  0.00  0.00    +0.027 A 
ATOM      7  C   UNL     1       0.291  -0.617  23.793  0.00  0.00    +0.100 A 
ATOM      8  C   UNL     1       0.071   0.114  24.107  0.00  0.00    +0.100 A 
ATOM      9  N   UNL     1      -0.529  -0.015  24.657  0.00  0.00    -0.229 NA
ATOM     10  C   UNL     1      -0.682  -0.825  24.683  0.00  0.00    +0.139 A 
ATOM     33  N   UNL     1      -0.175  -1.197  24.149  0.00  0.00    -0.229 NA
ATOM     34  C   UNL     1       0.447   0.803  23.851  0.00  0.00    +0.021 A 
ATOM     35  C   UNL     1       1.042   0.760  23.281  0.00  0.00    +0.008 A 
BRANCH   5   3
ATOM      3  C   UNL     1       1.856  -0.013  22.398  0.00  0.00    +0.341 C 
ATOM      4  O   UNL     1       1.678  -0.268  21.634  0.00  0.00    -0.245 OA
BRANCH   3   2
ATOM      1  C   UNL     1       3.223   0.162  22.021  0.00  0.00    +0.256 C 
ATOM      2  O   UNL     1       2.630   0.200  22.591  0.00  0.00    -0.441 OA
ENDBRANCH   3   2
ENDBRANCH   5   3
ENDBRANCH  11  10
ENDBRANCH  12  11
BRANCH  18  19
ATOM     19  C   UNL     1      -4.411  -0.292  25.003  0.00  0.00    +0.093 C 
BRANCH  19  20
ATOM     20  N   UNL     1      -4.653   0.424  25.333  0.00  0.00    -0.213 NA
BRANCH  20  21
ATOM     21  C   UNL     1      -5.067   0.971  24.875  0.00  0.00    +0.118 C 
BRANCH  21  22
ATOM     22  C   UNL     1      -5.294   1.694  25.202  0.00  0.00    +0.029 A 
ATOM     23  C   UNL     1      -5.780   1.711  25.869  0.00  0.00    +0.000 A 
ATOM     24  C   UNL     1      -6.007   2.434  26.196  0.00  0.00    -0.000 A 
ATOM     25  C   UNL     1      -5.747   3.139  25.856  0.00  0.00    +0.003 A 
ATOM     26  C   UNL     1      -5.262   3.123  25.190  0.00  0.00    +0.037 A 
ATOM     27  C   UNL     1      -5.035   2.400  24.863  0.00  0.00    +0.136 A 
BRANCH  27  28
ATOM     28  O   UNL     1      -4.549   2.383  24.195  0.00  0.00    -0.472 OA
ATOM     29  C   UNL     1      -4.214   3.081  23.911  0.00  0.00    +0.252 C 
ENDBRANCH  27  28
ENDBRANCH  21  22
ENDBRANCH  20  21
ENDBRANCH  19  20
ENDBRANCH  18  19
TORSDOF 10
ENDMDL
MODEL 3
REMARK VINA RESULT:      -7.7      1.054      7.014
REMARK  Name = 
REMARK  10 active torsions:
REMARK  status: ('A' for Active; 'I' for Inactive)
REMARK    1  A    between atoms: O_2  and  C_3
REMARK    2  A    between atoms: C_3  and  C_5
REMARK    3  A    between atoms: C_10  and  C_11
REMARK    4  A    between atoms: C_11  and  C_12
REMARK    5  A    between atoms: C_14  and  C_15
REMARK    6  A    between atoms: C_18  and  C_19
REMARK    7  A    between atoms: C_19  and  N_20
REMARK    8  A    between atoms: N_20  and  C_21
REMARK    9  A    between atoms: C_21  and  C_22
REMARK   10  A    between atoms: C_27  and  O_28
REMARK                            x       y       z     vdW  Elec       q    Type
REMARK                         _______ _______ _______ _____ _____    ______ ____
ROOT
ATOM     12  C   UNL     1      -0.498   1.826  24.734  0.00  0.00    +0.026 C 
ATOM     13  C   UNL     1      -0.706   1.031  24.658  0.00  0.00    +0.005 C 
ATOM     14  C   UNL     1      -0.223   0.518  24.230  0.00  0.00    +0.006 C 
ATOM     18  C   UNL     1       0.468   0.798  23.878  0.00  0.00    +0.039 C 
ATOM     30  C   UNL     1       0.677   1.593  23.954  0.00  0.00    -0.033 C 
ATOM     31  C   UNL     1       0.194   2.107  24.382  0.00  0.00    -0.048 C 
ATOM     32  C   UNL     1       0.402   2.902  24.458  0.00  0.00    +0.026 C 
ENDROOT
BRANCH  14  15
ATOM     15  C   UNL     1      -0.431  -0.277  24.154  0.00  0.00    +0.000 C 
ATOM     16  C   UNL     1      -0.812  -0.540  23.472  0.00  0.00    +0.000 C 
ATOM     17  C   UNL     1      -0.257  -0.809  24.761  0.00  0.00    +0.000 C 
ENDBRANCH  14  15
BRANCH  12  11
ATOM     11  C   UNL     1      -0.980   2.340  25.162  0.00  0.00    +0.070 C 
BRANCH  11  10
ATOM      5  C   UNL     1      -4.492   2.517  24.695  0.00  0.00    +0.077 A 
ATOM      6  C   UNL     1      -3.907   2.300  25.233  0.00  0.00    +0.027 A 
ATOM      7  C   UNL     1      -3.111   2.384  25.034  0.00  0.00    +0.100 A 
ATOM      8  C   UNL     1      -2.900   2.686  24.296  0.00  0.00    +0.100 A 
ATOM      9  N   UNL     1      -2.077   2.707  24.254  0.00  0.00    -0.229 NA
ATOM     10  C   UNL     1      -1.778   2.417  24.966  0.00  0.00    +0.139 A 
ATOM     33  N   UNL     1      -2.417   2.218  25.448  0.00  0.00    -0.229 NA
ATOM     34  C   UNL     1      -3.486   2.904  23.757  0.00  0.00    +0.021 A 
ATOM     35  C   UNL     1      -4.282   2.820  23.957  0.00  0.00    +0.008 A 
BRANCH   5   3
ATOM      3  C   UNL     1      -5.288   2.433  24.894  0.00  0.00    +0.341 C 
ATOM      4  O   UNL     1      -5.671   3.025  25.323  0.00  0.00    -0.245 OA
BRANCH   3   2
ATOM      1  C   UNL     1      -6.476   1.639  24.923  0.00  0.00    +0.256 C 
ATOM      2  O   UNL     1      -5.701   1.756  24.666  0.00  0.00    -0.441 OA
ENDBRANCH   3   2
ENDBRANCH   5   3
ENDBRANCH  11  10
ENDBRANCH  12  11
BRANCH  18  19
ATOM     19  C   UNL     1       0.952   0.285  23.450  0.00  0.00    +0.093 C 
BRANCH  19  20
ATOM     20  N   UNL     1       1.692   0.536  23.189  0.00  0.00    -0.213 NA
BRANCH  20  21
ATOM     21  C   UNL     1       2.272  -0.018  22.993  0.00  0.00    +0.118 C 
BRANCH  21  22
ATOM     22  C   UNL     1       3.060   0.216  22.929  0.00  0.00    +0.029 A 
ATOM     23  C   UNL     1       3.246   0.962  22.627  0.00  0.00    +0.000 A 
ATOM     24  C   UNL     1       4.035   1.196  22.562  0.00  0.00    -0.000 A 
ATOM     25  C   UNL     1       4.637   0.684  22.800  0.00  0.00    +0.003 A 
ATOM     26  C   UNL     1       4.452  -0.060  23.101  0.00  0.00    +0.037 A 
ATOM     27  C   UNL     1       3.663  -0.294  23.165  0.00  0.00    +0.136 A 
BRANCH  27  28
ATOM     28  O   UNL     1       3.477  -1.040  23.467  0.00  0.00    -0.472 OA
ATOM     29  C   UNL     1       4.073  -1.521  23.776  0.00  0.00    +0.252 C 
ENDBRANCH  27  28
ENDBRANCH  21  22
ENDBRANCH  20  21
ENDBRANCH  19  20
ENDBRANCH  18  19
TORSDOF 10
ENDMDL
MODEL 4
REMARK VINA RESULT:      -7.2      1.307      6.903
REMARK  Name = 
REMARK  10 active torsions:
REMARK  status: ('A' for Active; 'I' for Inactive)
REMARK    1  A    between atoms: O_2  and  C_3
REMARK    2  A    between atoms: C_3  and  C_5
REMARK    3  A    between atoms: C_10  and  C_11
REMARK    4  A    between atoms: C_11  and  C_12
REMARK    5  A    between atoms: C_14  and  C_15
REMARK    6  A    between atoms: C_18  and  C_19
REMARK    7  A    between atoms: C_19  and  N_20
REMARK    8  A    between atoms: N_20  and  C_21
REMARK    9  A    between atoms: C_21  and  C_22
REMARK   10  A    between atoms: C_27  and  O_28
REMARK                            x       y       z     vdW  Elec       q    Type
REMARK                         _______ _______ _______ _____ _____    ______ ____
ROOT
ATOM     12  C   UNL     1      -1.166   3.438  24.920  0.00  0.00    +0.026 C 
ATOM     13  C   UNL     1      -1.133   2.783  25.422  0.00  0.00    +0.005 C 
ATOM     14  C   UNL     1      -0.531   2.226  25.333  0.00  0.00    +0.006 C 
ATOM     18  C   UNL     1       0.038   2.323  24.744  0.00  0.00    +0.039 C 
ATOM     30  C   UNL     1       0.006   2.978  24.243  0.00  0.00    -0.033 C 
ATOM     31  C   UNL     1      -0.596   3.535  24.331  0.00  0.00    -0.048 C 
ATOM     32  C   UNL     1      -0.629   4.190  23.830  0.00  0.00    +0.026 C 
ENDROOT
BRANCH  14  15
ATOM     15  C   UNL     1      -0.498   1.572  25.834  0.00  0.00    +0.000 C 
ATOM     16  C   UNL     1      -0.881   0.872  25.625  0.00  0.00    +0.000 C 
ATOM     17  C   UNL     1      -0.082   1.617  26.546  0.00  0.00    +0.000 C 
ENDBRANCH  14  15
BRANCH  12  11
ATOM     11  C   UNL     1      -1.767   3.995  25.008  0.00  0.00    +0.070 C 
BRANCH  11  10
ATOM      5  C   UNL     1      -5.145   2.995  25.418  0.00  0.00    +0.077 A 
ATOM      6  C   UNL     1      -4.470   3.228  25.830  0.00  0.00    +0.027 A 
ATOM      7  C   UNL     1      -3.778   3.411  25.419  0.00  0.00    +0.100 A 
ATOM      8  C   UNL     1      -3.762   3.361  24.596  0.00  0.00    +0.100 A 
ATOM      9  N   UNL     1      -3.007   3.573  24.342  0.00  0.00    -0.229 NA
ATOM     10  C   UNL     1      -2.556   3.755  25.008  0.00  0.00    +0.139 A 
ATOM     33  N   UNL     1      -3.033   3.655  25.673  0.00  0.00    -0.229 NA
ATOM     34  C   UNL     1      -4.439   3.127  24.183  0.00  0.00    +0.021 A 
ATOM     35  C   UNL     1      -5.130   2.944  24.595  0.00  0.00    +0.008 A 
BRANCH   5   3
ATOM      3  C   UNL     1      -5.836   2.812  25.829  0.00  0.00    +0.341 C 
ATOM      4  O   UNL     1      -6.349   3.415  26.062  0.00  0.00    -0.245 OA
BRANCH   3   2
ATOM      1  C   UNL     1      -6.610   1.852  26.551  0.00  0.00    +0.256 C 
ATOM      2  O   UNL     1      -6.016   2.027  26.007  0.00  0.00    -0.441 OA
ENDBRANCH   3   2
ENDBRANCH   5   3
ENDBRANCH  11  10
ENDBRANCH  12  11
BRANCH  18  19
ATOM     19  C   UNL     1       0.640   1.766  24.656  0.00  0.00    +0.093 C 
BRANCH  19  20
ATOM     20  N   UNL     1       0.894   1.549  23.902  0.00  0.00    -0.213 NA
BRANCH  20  21
ATOM     21  C   UNL     1       1.641   1.213  23.798  0.00  0.00    +0.118 C 
BRANCH  21  22
ATOM     22  C   UNL     1       1.775   0.693  23.172  0.00  0.00    +0.029 A 
ATOM     23  C   UNL     1       1.156   0.234  22.876  0.00  0.00    +0.000 A 
ATOM     24  C   UNL     1       1.290  -0.286  22.250  0.00  0.00    -0.000 A 
ATOM     25  C   UNL     1       2.044  -0.348  21.920  0.00  0.00    +0.003 A 
ATOM     26  C   UNL     1       2.662   0.110  22.215  0.00  0.00    +0.037 A 
ATOM     27  C   UNL     1       2.528   0.630  22.841  0.00  0.00    +0.136 A 
BRANCH  27  28
ATOM     28  O   UNL     1       3.148   1.089  23.137  0.00  0.00    -0.472 OA
ATOM     29  C   UNL     1       3.917   0.967  22.867  0.00  0.00    +0.252 C 
ENDBRANCH  27  28
ENDBRANCH  21  22
ENDBRANCH  20  21
ENDBRANCH  19  20
ENDBRANCH  18  19
TORSDOF 10
ENDMDL
MODEL 5
REMARK VINA RESULT:      -6.9      3.466      5.182
REMARK  Name = 
REMARK  10 active torsions:
REMARK  status: ('A' for Active; 'I' for Inactive)
REMARK    1  A    between atoms: O_2  and  C_3
REMARK    2  A    between atoms: C_3  and  C_5
REMARK    3  A    between atoms: C_10  and  C_11
REMARK    4  A    between atoms: C_11  and  C_12
REMARK    5  A    between atoms: C_14  and  C_15
REMARK    6  A    between atoms: C_18  and  C_19
REMARK    7  A    between atoms: C_19  and  N_20
REMARK    8  A    between atoms: N_20  and  C_21
REMARK    9  A    between atoms: C_21  and  C_22
REMARK   10  A    between atoms: C_27  and  O_28
REMARK                            x       y       z     vdW  Elec       q    Type
REMARK                         _______ _______ _______ _____ _____    ______ ____
ROOT
ATOM     12  C   UNL     1      -4.735   1.616  24.730  0.00  0.00    +0.026 C 
ATOM     13  C   UNL     1      -4.334   1.733  24.018  0.00  0.00    +0.005 C 
ATOM     14  C   UNL     1      -3.919   2.434  23.890  0.00  0.00    +0.006 C 
ATOM     18  C   UNL     1      -3.905   3.018  24.472  0.00  0.00    +0.039 C 
ATOM     30  C   UNL     1      -4.306   2.901  25.183  0.00  0.00    -0.033 C 
ATOM     31  C   UNL     1      -4.722   2.200  25.313  0.00  0.00    -0.048 C 
ATOM     32  C   UNL     1      -5.123   2.083  26.024  0.00  0.00    +0.026 C 
ENDROOT
BRANCH  14  15
ATOM     15  C   UNL     1      -3.518   2.551  23.179  0.00  0.00    +0.000 C 
ATOM     16  C   UNL     1      -2.819   2.140  23.027  0.00  0.00    +0.000 C 
ATOM     17  C   UNL     1      -3.815   3.080  22.619  0.00  0.00    +0.000 C 
ENDBRANCH  14  15
BRANCH  12  11
ATOM     11  C   UNL     1      -5.151   0.915  24.859  0.00  0.00    +0.070 C 
BRANCH  11  10
ATOM      5  C   UNL     1      -3.315  -2.112  24.643  0.00  0.00    +0.077 A 
ATOM      6  C   UNL     1      -3.374  -1.403  25.059  0.00  0.00    +0.027 A 
ATOM      7  C   UNL     1      -3.954  -0.852  24.856  0.00  0.00    +0.100 A 
ATOM      8  C   UNL     1      -4.474  -1.011  24.237  0.00  0.00    +0.100 A 
ATOM      9  N   UNL     1      -4.986  -0.369  24.162  0.00  0.00    -0.229 NA
ATOM     10  C   UNL     1      -4.782   0.187  24.736  0.00  0.00    +0.139 A 
ATOM     33  N   UNL     1      -4.144  -0.112  25.164  0.00  0.00    -0.229 NA
ATOM     34  C   UNL     1      -4.416  -1.722  23.820  0.00  0.00    +0.021 A 
ATOM     35  C   UNL     1      -3.836  -2.272  24.023  0.00  0.00    +0.008 A 
BRANCH   5   3
ATOM      3  C   UNL     1      -2.735  -2.663  24.846  0.00  0.00    +0.341 C 
ATOM      4  O   UNL     1      -2.925  -3.299  25.335  0.00  0.00    -0.245 OA
BRANCH   3   2
ATOM      1  C   UNL     1      -1.333  -2.908  24.972  0.00  0.00    +0.256 C 
ATOM      2  O   UNL     1      -1.966  -2.577  24.560  0.00  0.00    -0.441 OA
ENDBRANCH   3   2
ENDBRANCH   5   3
ENDBRANCH  11  10
ENDBRANCH  12  11
BRANCH  18  19
ATOM     19  C   UNL     1      -3.490   3.720  24.344  0.00  0.00    +0.093 C 
BRANCH  19  20
ATOM     20  N   UNL     1      -3.176   4.136  24.983  0.00  0.00    -0.213 NA
BRANCH  20  21
ATOM     21  C   UNL     1      -2.402   3.994  25.230  0.00  0.00    +0.118 C 
BRANCH  21  22
ATOM     22  C   UNL     1      -1.824   4.574  25.129  0.00  0.00    +0.029 A 
ATOM     23  C   UNL     1      -2.044   5.364  25.033  0.00  0.00    +0.000 A 
ATOM     24  C   UNL     1      -1.466   5.944  24.933  0.00  0.00    -0.000 A 
ATOM     25  C   UNL     1      -0.668   5.734  24.928  0.00  0.00    +0.003 A 
ATOM     26  C   UNL     1      -0.448   4.945  25.024  0.00  0.00    +0.037 A 
ATOM     27  C   UNL     1      -1.026   4.365  25.125  0.00  0.00    +0.136 A 
BRANCH  27  28
ATOM     28  O   UNL     1      -0.806   3.575  25.221  0.00  0.00    -0.472 OA
ATOM     29  C   UNL     1      -0.008   3.367  25.227  0.00  0.00    +0.252 C 
ENDBRANCH  27  28
ENDBRANCH  21  22
ENDBRANCH  20  21
ENDBRANCH  19  20
ENDBRANCH  18  19
TORSDOF 10
ENDMDL
MODEL 6
REMARK VINA RESULT:      -6.6      1.153      6.763
REMARK  Name = 
REMARK  10 active torsions:
REMARK  status: ('A' for Active; 'I' for Inactive)
REMARK    1  A    between atoms: O_2  and  C_3
REMARK    2  A    between atoms: C_3  and  C_5
REMARK    3  A    between atoms: C_10  and  C_11
REMARK    4  A    between atoms: C_11  and  C_12
REMARK    5  A    between atoms: C_14  and  C_15
REMARK    6  A    between atoms: C_18  and  C_19
REMARK    7  A    between atoms: C_19  and  N_20
REMARK    8  A    between atoms: N_20  and  C_21
REMARK    9  A    between atoms: C_21  and  C_22
REMARK   10  A    between atoms: C_27  and  O_28
REMARK                            x       y       z     vdW  Elec       q    Type
REMARK                         _______ _______ _______ _____ _____    ______ ____
ROOT
ATOM     12  C   UNL     1      -1.024  -0.384  24.676  0.00  0.00    +0.026 C 
ATOM     13  C   UNL     1      -0.879   0.423  24.579  0.00  0.00    +0.005 C 
ATOM     14  C   UNL     1      -0.235   0.674  24.129  0.00  0.00    +0.006 C 
ATOM     18  C   UNL     1       0.263   0.121  23.775  0.00  0.00    +0.039 C 
ATOM     30  C   UNL     1       0.118  -0.685  23.871  0.00  0.00    -0.033 C 
ATOM     31  C   UNL     1      -0.526  -0.938  24.321  0.00  0.00    -0.048 C 
ATOM     32  C   UNL     1      -0.671  -1.745  24.418  0.00  0.00    +0.026 C 
ENDROOT
BRANCH  14  15
ATOM     15  C   UNL     1      -0.090   1.481  24.032  0.00  0.00    +0.000 C 
ATOM     16  C   UNL     1       0.362   1.888  24.588  0.00  0.00    +0.000 C 
ATOM     17  C   UNL     1      -0.398   1.881  23.378  0.00  0.00    +0.000 C 
ENDBRANCH  14  15
BRANCH  12  11
ATOM     11  C   UNL     1      -1.667  -0.637  25.126  0.00  0.00    +0.070 C 
BRANCH  11  10
ATOM      5  C   UNL     1      -4.708   1.188  25.038  0.00  0.00    +0.077 A 
ATOM      6  C   UNL     1      -3.972   1.146  25.408  0.00  0.00    +0.027 A 
ATOM      7  C   UNL     1      -3.434   0.559  25.193  0.00  0.00    +0.100 A 
ATOM      8  C   UNL     1      -3.633   0.013  24.606  0.00  0.00    +0.100 A 
ATOM      9  N   UNL     1      -2.995  -0.501  24.510  0.00  0.00    -0.229 NA
ATOM     10  C   UNL     1      -2.403  -0.273  25.037  0.00  0.00    +0.139 A 
ATOM     33  N   UNL     1      -2.674   0.381  25.458  0.00  0.00    -0.229 NA
ATOM     34  C   UNL     1      -4.369   0.055  24.236  0.00  0.00    +0.021 A 
ATOM     35  C   UNL     1      -4.906   0.642  24.452  0.00  0.00    +0.008 A 
BRANCH   5   3
ATOM      3  C   UNL     1      -5.245   1.775  25.253  0.00  0.00    +0.341 C 
ATOM      4  O   UNL     1      -5.953   1.570  25.623  0.00  0.00    -0.245 OA
BRANCH   3   2
ATOM      1  C   UNL     1      -5.523   3.162  25.453  0.00  0.00    +0.256 C 
ATOM      2  O   UNL     1      -5.075   2.567  25.099  0.00  0.00    -0.441 OA
ENDBRANCH   3   2
ENDBRANCH   5   3
ENDBRANCH  11  10
ENDBRANCH  12  11
BRANCH  18  19
ATOM     19  C   UNL     1       0.906   0.373  23.324  0.00  0.00    +0.093 C 
BRANCH  19  20
ATOM     20  N   UNL     1       1.571  -0.109  23.247  0.00  0.00    -0.213 NA
BRANCH  20  21
ATOM     21  C   UNL     1       2.209   0.136  22.785  0.00  0.00    +0.118 C 
BRANCH  21  22
ATOM     22  C   UNL     1       2.977  -0.080  22.995  0.00  0.00    +0.029 A 
ATOM     23  C   UNL     1       3.125  -0.834  23.298  0.00  0.00    +0.000 A 
ATOM     24  C   UNL     1       3.893  -1.050  23.508  0.00  0.00    -0.000 A 
ATOM     25  C   UNL     1       4.513  -0.514  23.414  0.00  0.00    +0.003 A 
ATOM     26  C   UNL     1       4.365   0.238  23.110  0.00  0.00    +0.037 A 
ATOM     27  C   UNL     1       3.597   0.455  22.901  0.00  0.00    +0.136 A 
BRANCH  27  28
ATOM     28  O   UNL     1       3.449   1.208  22.597  0.00  0.00    -0.472 OA
ATOM     29  C   UNL     1       4.077   1.714  22.424  0.00  0.00    +0.252 C 
ENDBRANCH  27  28
ENDBRANCH  21  22
ENDBRANCH  20  21
ENDBRANCH  19  20
ENDBRANCH  18  19
TORSDOF 10
ENDMDL
