MODEL 1
REMARK VINA RESULT:     -11.0      0.000      0.000
REMARK  Name = 
REMARK  7 active torsions:
REMARK  status: ('A' for Active; 'I' for Inactive)
REMARK    1  A    between atoms: C_2  and  C_4
REMARK    2  A    between atoms: C_4  and  N_5
REMARK    3  A    between atoms: C_6  and  C_12
REMARK    4  A    between atoms: C_12  and  C_14
REMARK    5  A    between atoms: C_17  and  N_18
REMARK    6  A    between atoms: C_19  and  C_21
REMARK    7  A    between atoms: C_21  and  C_22
REMARK                            x       y       z     vdW  Elec       q    Type
REMARK                         _______ _______ _______ _____ _____    ______ ____
ROOT
ATOM     14  C   UNL     1      -3.373   1.857  24.562  0.00  0.00    +0.010 A 
ATOM     15  C   UNL     1      -2.840   1.327  24.900  0.00  0.00    -0.000 A 
ATOM     16  C   UNL     1      -3.078   0.556  25.073  0.00  0.00    +0.016 A 
ATOM     17  C   UNL     1      -3.849   0.315  24.906  0.00  0.00    +0.073 A 
ATOM     26  C   UNL     1      -4.383   0.846  24.568  0.00  0.00    +0.016 A 
ATOM     27  C   UNL     1      -4.145   1.617  24.396  0.00  0.00    -0.000 A 
ENDROOT
BRANCH  17  18
ATOM     18  N   UNL     1      -4.088  -0.455  25.078  0.00  0.00    -0.179 NA
ATOM     19  C   UNL     1      -3.862  -1.077  24.584  0.00  0.00    +0.246 C 
ATOM     20  O   UNL     1      -3.397  -0.927  23.919  0.00  0.00    -0.273 OA
BRANCH  19  21
ATOM     21  C   UNL     1      -4.100  -1.847  24.756  0.00  0.00    +0.087 C 
BRANCH  21  22
ATOM     22  C   UNL     1      -3.734  -2.485  24.380  0.00  0.00    +0.009 C 
ATOM     23  C   UNL     1      -3.369  -3.123  24.005  0.00  0.00    +0.000 C 
ATOM     24  C   UNL     1      -3.212  -2.558  25.014  0.00  0.00    +0.000 C 
ATOM     25  C   UNL     1      -4.258  -2.413  23.746  0.00  0.00    +0.000 C 
ENDBRANCH  21  22
ENDBRANCH  19  21
ENDBRANCH  17  18
BRANCH  14  12
ATOM     12  C   UNL     1      -3.135   2.629  24.390  0.00  0.00    +0.195 C 
ATOM     13  O   UNL     1      -2.862   2.817  23.633  0.00  0.00    -0.216 OA
BRANCH  12   6
ATOM      5  N   UNL     1      -2.510   3.681  25.127  0.00  0.00    -0.274 N 
ATOM      6  C   UNL     1      -3.170   3.211  24.972  0.00  0.00    +0.139 C 
ATOM      7  C   UNL     1      -3.866   3.325  25.400  0.00  0.00    +0.165 C 
ATOM      8  O   UNL     1      -3.902   3.909  25.983  0.00  0.00    -0.343 OA
ATOM      9  C   UNL     1      -3.241   4.377  26.137  0.00  0.00    +0.227 C 
ATOM     10  C   UNL     1      -2.545   4.264  25.709  0.00  0.00    +0.256 C 
ATOM     11  O   UNL     1      -1.885   4.733  25.863  0.00  0.00    -0.272 OA
BRANCH   5   4
ATOM      4  C   UNL     1      -1.813   3.567  24.698  0.00  0.00    +0.094 C 
BRANCH   4   2
ATOM      1  C   UNL     1      -0.855   4.626  24.720  0.00  0.00    +0.002 C 
ATOM      2  C   UNL     1      -1.103   3.882  24.974  0.00  0.00    +0.020 C 
ATOM      3  C   UNL     1      -0.641   3.453  25.505  0.00  0.00    +0.002 C 
ENDBRANCH   4   2
ENDBRANCH   5   4
ENDBRANCH  12   6
ENDBRANCH  14  12
TORSDOF 7
ENDMDL
MODEL 2
REMARK VINA RESULT:      -9.5      1.257      5.382
REMARK  Name = 
REMARK  7 active torsions:
REMARK  status: ('A' for Active; 'I' for Inactive)
REMARK    1  A    between atoms: C_2  and  C_4
REMARK    2  A    between atoms: C_4  and  N_5
REMARK    3  A    between atoms: C_6  and  C_12
REMARK    4  A    between atoms: C_12  and  C_14
REMARK    5  A    between atoms: C_17  and  N_18
REMARK    6  A    between atoms: C_19  and  C_21
REMARK    7  A    between atoms: C_21  and  C_22
REMARK                            x       y       z     vdW  Elec       q    Type
REMARK                         _______ _______ _______ _____ _____    ______ ____
ROOT
ATOM     14  C   UNL     1      -3.279   0.644  24.163  0.00  0.00    +0.010 A 
ATOM     15  C   UNL     1      -3.084   1.173  23.561  0.00  0.00    -0.000 A 
ATOM     16  C   UNL     1      -3.114   1.985  23.700  0.00  0.00    +0.016 A 
ATOM     17  C   UNL     1      -3.341   2.269  24.441  0.00  0.00    +0.073 A 
ATOM     26  C   UNL     1      -3.537   1.739  25.043  0.00  0.00    +0.016 A 
ATOM     27  C   UNL     1      -3.506   0.927  24.904  0.00  0.00    -0.000 A 
ENDROOT
BRANCH  17  18
ATOM     18  N   UNL     1      -3.372   3.081  24.581  0.00  0.00    -0.179 NA
ATOM     19  C   UNL     1      -2.694   3.483  24.829  0.00  0.00    +0.246 C 
ATOM     20  O   UNL     1      -1.987   3.072  24.937  0.00  0.00    -0.273 OA
BRANCH  19  21
ATOM     21  C   UNL     1      -2.725   4.295  24.969  0.00  0.00    +0.087 C 
BRANCH  21  22
ATOM     22  C   UNL     1      -2.031   4.712  25.132  0.00  0.00    +0.009 C 
ATOM     23  C   UNL     1      -1.338   5.128  25.294  0.00  0.00    +0.000 C 
ATOM     24  C   UNL     1      -2.125   4.554  25.935  0.00  0.00    +0.000 C 
ATOM     25  C   UNL     1      -1.937   4.870  24.327  0.00  0.00    +0.000 C 
ENDBRANCH  21  22
ENDBRANCH  19  21
ENDBRANCH  17  18
BRANCH  14  12
ATOM     12  C   UNL     1      -3.249  -0.169  24.024  0.00  0.00    +0.195 C 
ATOM     13  O   UNL     1      -3.902  -0.557  23.700  0.00  0.00    -0.216 OA
BRANCH  12   6
ATOM      5  N   UNL     1      -2.626  -1.334  24.570  0.00  0.00    -0.274 N 
ATOM      6  C   UNL     1      -2.567  -0.594  24.209  0.00  0.00    +0.139 C 
ATOM      7  C   UNL     1      -1.825  -0.280  24.032  0.00  0.00    +0.165 C 
ATOM      8  O   UNL     1      -1.142  -0.706  24.217  0.00  0.00    -0.343 OA
ATOM      9  C   UNL     1      -1.202  -1.445  24.578  0.00  0.00    +0.227 C 
ATOM     10  C   UNL     1      -1.944  -1.759  24.754  0.00  0.00    +0.256 C 
ATOM     11  O   UNL     1      -2.004  -2.498  25.115  0.00  0.00    -0.272 OA
BRANCH   5   4
ATOM      4  C   UNL     1      -3.369  -1.648  24.747  0.00  0.00    +0.094 C 
BRANCH   4   2
ATOM      1  C   UNL     1      -3.413  -2.817  25.567  0.00  0.00    +0.002 C 
ATOM      2  C   UNL     1      -3.464  -2.464  24.823  0.00  0.00    +0.020 C 
ATOM      3  C   UNL     1      -3.610  -2.926  24.156  0.00  0.00    +0.002 C 
ENDBRANCH   4   2
ENDBRANCH   5   4
ENDBRANCH  12   6
ENDBRANCH  14  12
TORSDOF 7
ENDMDL
