MODEL 1
REMARK VINA RESULT:      -8.3      0.000      0.000
REMARK  Name = 
REMARK  8 active torsions:
REMARK  status: ('A' for Active; 'I' for Inactive)
REMARK    1  A    between atoms: O_2  and  C_3
REMARK    2  A    between atoms: C_3  and  C_4
REMARK    3  A    between atoms: C_4  and  O_5
REMARK    4  A    between atoms: O_5  and  C_6
REMARK    5  A    between atoms: C_9  and  C_12
REMARK    6  A    between atoms: C_15  and  C_17
REMARK    7  A    between atoms: N_21  and  C_22
REMARK    8  A    between atoms: C_22  and  C_23
REMARK                            x       y       z     vdW  Elec       q    Type
REMARK                         _______ _______ _______ _____ _____    ______ ____
ROOT
ATOM     12  C   UNL     1      -1.237   0.221  24.571  0.00  0.00    +0.205 A 
ATOM     13  N   UNL     1      -1.279   0.233  25.395  0.00  0.00    -0.056 NA
ATOM     14  O   UNL     1      -2.073   0.301  25.609  0.00  0.00    -0.336 OA
ATOM     15  C   UNL     1      -2.522   0.330  24.918  0.00  0.00    +0.251 A 
ATOM     16  N   UNL     1      -2.006   0.281  24.276  0.00  0.00    -0.190 NA
ENDROOT
BRANCH  12   9
ATOM      6  C   UNL     1       0.829   0.035  23.221  0.00  0.00    +0.225 A 
ATOM      7  C   UNL     1       0.493  -0.640  23.555  0.00  0.00    +0.058 A 
ATOM      8  C   UNL     1      -0.196  -0.578  24.005  0.00  0.00    +0.010 A 
ATOM      9  C   UNL     1      -0.548   0.159  24.121  0.00  0.00    +0.058 A 
ATOM     10  C   UNL     1      -0.212   0.834  23.786  0.00  0.00    +0.105 A 
ATOM     11  N   UNL     1       0.477   0.773  23.336  0.00  0.00    -0.210 NA
BRANCH   6   5
ATOM      5  O   UNL     1       1.517  -0.027  22.771  0.00  0.00    -0.457 OA
BRANCH   5   4
ATOM      4  C   UNL     1       2.198   0.382  22.998  0.00  0.00    +0.239 C 
BRANCH   4   3
ATOM      3  C   UNL     1       2.911   0.247  22.607  0.00  0.00    +0.189 C 
BRANCH   3   2
ATOM      1  C   UNL     1       4.302   0.526  22.779  0.00  0.00    +0.174 C 
ATOM      2  O   UNL     1       3.528   0.791  22.674  0.00  0.00    -0.347 OA
ENDBRANCH   3   2
ENDBRANCH   4   3
ENDBRANCH   5   4
ENDBRANCH   6   5
ENDBRANCH  12   9
BRANCH  15  17
ATOM     17  C   UNL     1      -3.343   0.398  24.876  0.00  0.00    +0.138 C 
ATOM     18  C   UNL     1      -3.878  -0.227  24.827  0.00  0.00    +0.027 C 
ATOM     19  C   UNL     1      -4.639   0.091  24.796  0.00  0.00    +0.019 C 
ATOM     20  C   UNL     1      -4.573   0.912  24.825  0.00  0.00    +0.073 C 
ATOM     21  N   UNL     1      -3.772   1.102  24.874  0.00  0.00    -0.260 NA
BRANCH  21  22
ATOM     22  C   UNL     1      -3.457   1.863  24.915  0.00  0.00    +0.138 C 
BRANCH  22  23
ATOM     23  C   UNL     1      -3.956   2.513  25.001  0.00  0.00    +0.139 A 
ATOM     24  C   UNL     1      -4.181   3.035  24.403  0.00  0.00    +0.038 A 
ATOM     25  C   UNL     1      -4.683   3.601  24.732  0.00  0.00    +0.043 A 
ATOM     26  C   UNL     1      -4.769   3.428  25.535  0.00  0.00    +0.179 A 
ATOM     27  O   UNL     1      -4.320   2.756  25.700  0.00  0.00    -0.453 OA
ENDBRANCH  22  23
ENDBRANCH  21  22
ENDBRANCH  15  17
TORSDOF 8
ENDMDL
MODEL 2
REMARK VINA RESULT:      -7.9      2.495      3.817
REMARK  Name = 
REMARK  8 active torsions:
REMARK  status: ('A' for Active; 'I' for Inactive)
REMARK    1  A    between atoms: O_2  and  C_3
REMARK    2  A    between atoms: C_3  and  C_4
REMARK    3  A    between atoms: C_4  and  O_5
REMARK    4  A    between atoms: O_5  and  C_6
REMARK    5  A    between atoms: C_9  and  C_12
REMARK    6  A    between atoms: C_15  and  C_17
REMARK    7  A    between atoms: N_21  and  C_22
REMARK    8  A    between atoms: C_22  and  C_23
REMARK                            x       y       z     vdW  Elec       q    Type
REMARK                         _______ _______ _______ _____ _____    ______ ____
ROOT
ATOM     12  C   UNL     1      -0.659   1.675  25.413  0.00  0.00    +0.205 A 
ATOM     13  N   UNL     1      -0.094   1.982  25.930  0.00  0.00    -0.056 NA
ATOM     14  O   UNL     1      -0.189   2.802  25.954  0.00  0.00    -0.336 OA
ATOM     15  C   UNL     1      -0.814   3.001  25.453  0.00  0.00    +0.251 A 
ATOM     16  N   UNL     1      -1.104   2.305  25.118  0.00  0.00    -0.190 NA
ENDROOT
BRANCH  12   9
ATOM      6  C   UNL     1      -0.968  -0.714  24.847  0.00  0.00    +0.225 A 
ATOM      7  C   UNL     1      -1.170  -0.439  25.597  0.00  0.00    +0.058 A 
ATOM      8  C   UNL     1      -1.067   0.357  25.786  0.00  0.00    +0.010 A 
ATOM      9  C   UNL     1      -0.762   0.879  25.224  0.00  0.00    +0.058 A 
ATOM     10  C   UNL     1      -0.560   0.603  24.473  0.00  0.00    +0.105 A 
ATOM     11  N   UNL     1      -0.663  -0.194  24.284  0.00  0.00    -0.210 NA
BRANCH   6   5
ATOM      5  O   UNL     1      -1.071  -1.511  24.658  0.00  0.00    -0.457 OA
BRANCH   5   4
ATOM      4  C   UNL     1      -1.797  -1.878  24.798  0.00  0.00    +0.239 C 
BRANCH   4   3
ATOM      3  C   UNL     1      -2.031  -2.520  24.336  0.00  0.00    +0.189 C 
BRANCH   3   2
ATOM      1  C   UNL     1      -3.409  -2.885  24.239  0.00  0.00    +0.174 C 
ATOM      2  O   UNL     1      -2.664  -2.992  24.576  0.00  0.00    -0.347 OA
ENDBRANCH   3   2
ENDBRANCH   4   3
ENDBRANCH   5   4
ENDBRANCH   6   5
ENDBRANCH  12   9
BRANCH  15  17
ATOM     17  C   UNL     1      -1.097   3.762  25.311  0.00  0.00    +0.138 C 
ATOM     18  C   UNL     1      -0.667   4.386  24.986  0.00  0.00    +0.027 C 
ATOM     19  C   UNL     1      -1.166   5.043  24.943  0.00  0.00    +0.019 C 
ATOM     20  C   UNL     1      -1.903   4.824  25.242  0.00  0.00    +0.073 C 
ATOM     21  N   UNL     1      -1.860   4.033  25.469  0.00  0.00    -0.260 NA
BRANCH  21  22
ATOM     22  C   UNL     1      -2.474   3.590  25.796  0.00  0.00    +0.138 C 
BRANCH  22  23
ATOM     23  C   UNL     1      -3.251   3.715  25.549  0.00  0.00    +0.139 A 
ATOM     24  C   UNL     1      -3.873   3.981  26.021  0.00  0.00    +0.038 A 
ATOM     25  C   UNL     1      -4.549   4.026  25.551  0.00  0.00    +0.043 A 
ATOM     26  C   UNL     1      -4.345   3.788  24.787  0.00  0.00    +0.179 A 
ATOM     27  O   UNL     1      -3.542   3.596  24.787  0.00  0.00    -0.453 OA
ENDBRANCH  22  23
ENDBRANCH  21  22
ENDBRANCH  15  17
TORSDOF 8
ENDMDL
MODEL 3
REMARK VINA RESULT:      -7.7      1.270      2.531
REMARK  Name = 
REMARK  8 active torsions:
REMARK  status: ('A' for Active; 'I' for Inactive)
REMARK    1  A    between atoms: O_2  and  C_3
REMARK    2  A    between atoms: C_3  and  C_4
REMARK    3  A    between atoms: C_4  and  O_5
REMARK    4  A    between atoms: O_5  and  C_6
REMARK    5  A    between atoms: C_9  and  C_12
REMARK    6  A    between atoms: C_15  and  C_17
REMARK    7  A    between atoms: N_21  and  C_22
REMARK    8  A    between atoms: C_22  and  C_23
REMARK                            x       y       z     vdW  Elec       q    Type
REMARK                         _______ _______ _______ _____ _____    ______ ____
ROOT
ATOM     12  C   UNL     1      -0.786   0.528  24.492  0.00  0.00    +0.205 A 
ATOM     13  N   UNL     1      -0.833   0.645  25.307  0.00  0.00    -0.056 NA
ATOM     14  O   UNL     1      -1.630   0.622  25.523  0.00  0.00    -0.336 OA
ATOM     15  C   UNL     1      -2.075   0.490  24.841  0.00  0.00    +0.251 A 
ATOM     16  N   UNL     1      -1.553   0.432  24.203  0.00  0.00    -0.190 NA
ENDROOT
BRANCH  12   9
ATOM      6  C   UNL     1       1.291   0.473  23.148  0.00  0.00    +0.225 A 
ATOM      7  C   UNL     1       0.822  -0.202  23.209  0.00  0.00    +0.058 A 
ATOM      8  C   UNL     1       0.130  -0.183  23.657  0.00  0.00    +0.010 A 
ATOM      9  C   UNL     1      -0.094   0.510  24.044  0.00  0.00    +0.058 A 
ATOM     10  C   UNL     1       0.377   1.186  23.983  0.00  0.00    +0.105 A 
ATOM     11  N   UNL     1       1.069   1.168  23.535  0.00  0.00    -0.210 NA
BRANCH   6   5
ATOM      5  O   UNL     1       1.984   0.455  22.700  0.00  0.00    -0.457 OA
BRANCH   5   4
ATOM      4  C   UNL     1       2.716   0.566  23.066  0.00  0.00    +0.239 C 
BRANCH   4   3
ATOM      3  C   UNL     1       3.412   0.481  22.631  0.00  0.00    +0.189 C 
BRANCH   3   2
ATOM      1  C   UNL     1       4.784   0.384  23.016  0.00  0.00    +0.174 C 
ATOM      2  O   UNL     1       4.107   0.840  22.892  0.00  0.00    -0.347 OA
ENDBRANCH   3   2
ENDBRANCH   4   3
ENDBRANCH   5   4
ENDBRANCH   6   5
ENDBRANCH  12   9
BRANCH  15  17
ATOM     17  C   UNL     1      -2.896   0.427  24.802  0.00  0.00    +0.138 C 
ATOM     18  C   UNL     1      -3.427   1.054  24.739  0.00  0.00    +0.027 C 
ATOM     19  C   UNL     1      -4.190   0.741  24.717  0.00  0.00    +0.019 C 
ATOM     20  C   UNL     1      -4.130  -0.080  24.767  0.00  0.00    +0.073 C 
ATOM     21  N   UNL     1      -3.330  -0.274  24.819  0.00  0.00    -0.260 NA
BRANCH  21  22
ATOM     22  C   UNL     1      -3.020  -1.036  24.879  0.00  0.00    +0.138 C 
BRANCH  22  23
ATOM     23  C   UNL     1      -3.429  -1.675  24.557  0.00  0.00    +0.139 A 
ATOM     24  C   UNL     1      -3.533  -2.413  24.911  0.00  0.00    +0.038 A 
ATOM     25  C   UNL     1      -3.975  -2.883  24.398  0.00  0.00    +0.043 A 
ATOM     26  C   UNL     1      -4.145  -2.436  23.725  0.00  0.00    +0.179 A 
ATOM     27  O   UNL     1      -3.808  -1.689  23.824  0.00  0.00    -0.453 OA
ENDBRANCH  22  23
ENDBRANCH  21  22
ENDBRANCH  15  17
TORSDOF 8
ENDMDL
MODEL 4
REMARK VINA RESULT:      -7.6      1.234      1.883
REMARK  Name = 
REMARK  8 active torsions:
REMARK  status: ('A' for Active; 'I' for Inactive)
REMARK    1  A    between atoms: O_2  and  C_3
REMARK    2  A    between atoms: C_3  and  C_4
REMARK    3  A    between atoms: C_4  and  O_5
REMARK    4  A    between atoms: O_5  and  C_6
REMARK    5  A    between atoms: C_9  and  C_12
REMARK    6  A    between atoms: C_15  and  C_17
REMARK    7  A    between atoms: N_21  and  C_22
REMARK    8  A    between atoms: C_22  and  C_23
REMARK                            x       y       z     vdW  Elec       q    Type
REMARK                         _______ _______ _______ _____ _____    ______ ____
ROOT
ATOM     12  C   UNL     1      -1.181   1.802  24.745  0.00  0.00    +0.205 A 
ATOM     13  N   UNL     1      -1.325   1.792  25.557  0.00  0.00    -0.056 NA
ATOM     14  O   UNL     1      -1.968   2.288  25.709  0.00  0.00    -0.336 OA
ATOM     15  C   UNL     1      -2.220   2.604  24.990  0.00  0.00    +0.251 A 
ATOM     16  N   UNL     1      -1.734   2.304  24.394  0.00  0.00    -0.190 NA
ENDROOT
BRANCH  12   9
ATOM      6  C   UNL     1       0.598   0.548  23.567  0.00  0.00    +0.225 A 
ATOM      7  C   UNL     1      -0.151   0.215  23.657  0.00  0.00    +0.058 A 
ATOM      8  C   UNL     1      -0.744   0.633  24.049  0.00  0.00    +0.010 A 
ATOM      9  C   UNL     1      -0.588   1.384  24.353  0.00  0.00    +0.058 A 
ATOM     10  C   UNL     1       0.162   1.718  24.263  0.00  0.00    +0.105 A 
ATOM     11  N   UNL     1       0.755   1.300  23.870  0.00  0.00    -0.210 NA
BRANCH   6   5
ATOM      5  O   UNL     1       1.191   0.130  23.175  0.00  0.00    -0.457 OA
BRANCH   5   4
ATOM      4  C   UNL     1       1.910   0.498  23.001  0.00  0.00    +0.239 C 
BRANCH   4   3
ATOM      3  C   UNL     1       2.524   0.064  22.661  0.00  0.00    +0.189 C 
BRANCH   3   2
ATOM      1  C   UNL     1       3.890   0.467  22.555  0.00  0.00    +0.174 C 
ATOM      2  O   UNL     1       3.124   0.452  22.249  0.00  0.00    -0.347 OA
ENDBRANCH   3   2
ENDBRANCH   4   3
ENDBRANCH   5   4
ENDBRANCH   6   5
ENDBRANCH  12   9
BRANCH  15  17
ATOM     17  C   UNL     1      -2.848   3.128  24.885  0.00  0.00    +0.138 C 
ATOM     18  C   UNL     1      -2.785   3.935  24.728  0.00  0.00    +0.027 C 
ATOM     19  C   UNL     1      -3.548   4.243  24.665  0.00  0.00    +0.019 C 
ATOM     20  C   UNL     1      -4.082   3.627  24.782  0.00  0.00    +0.073 C 
ATOM     21  N   UNL     1      -3.650   2.938  24.919  0.00  0.00    -0.260 NA
BRANCH  21  22
ATOM     22  C   UNL     1      -3.965   2.189  25.063  0.00  0.00    +0.138 C 
BRANCH  22  23
ATOM     23  C   UNL     1      -4.774   2.100  25.196  0.00  0.00    +0.139 A 
ATOM     24  C   UNL     1      -5.319   1.773  24.671  0.00  0.00    +0.038 A 
ATOM     25  C   UNL     1      -6.063   1.794  25.028  0.00  0.00    +0.043 A 
ATOM     26  C   UNL     1      -5.977   2.134  25.775  0.00  0.00    +0.179 A 
ATOM     27  O   UNL     1      -5.180   2.323  25.879  0.00  0.00    -0.453 OA
ENDBRANCH  22  23
ENDBRANCH  21  22
ENDBRANCH  15  17
TORSDOF 8
ENDMDL
MODEL 5
REMARK VINA RESULT:      -7.5      3.398      4.643
REMARK  Name = 
REMARK  8 active torsions:
REMARK  status: ('A' for Active; 'I' for Inactive)
REMARK    1  A    between atoms: O_2  and  C_3
REMARK    2  A    between atoms: C_3  and  C_4
REMARK    3  A    between atoms: C_4  and  O_5
REMARK    4  A    between atoms: O_5  and  C_6
REMARK    5  A    between atoms: C_9  and  C_12
REMARK    6  A    between atoms: C_15  and  C_17
REMARK    7  A    between atoms: N_21  and  C_22
REMARK    8  A    between atoms: C_22  and  C_23
REMARK                            x       y       z     vdW  Elec       q    Type
REMARK                         _______ _______ _______ _____ _____    ______ ____
ROOT
ATOM     12  C   UNL     1      -4.159   1.791  24.585  0.00  0.00    +0.205 A 
ATOM     13  N   UNL     1      -4.569   2.360  24.151  0.00  0.00    -0.056 NA
ATOM     14  O   UNL     1      -4.423   3.097  24.493  0.00  0.00    -0.336 OA
ATOM     15  C   UNL     1      -3.922   2.983  25.139  0.00  0.00    +0.251 A 
ATOM     16  N   UNL     1      -3.758   2.176  25.196  0.00  0.00    -0.190 NA
ENDROOT
BRANCH  12   9
ATOM      6  C   UNL     1      -4.131  -0.643  24.136  0.00  0.00    +0.225 A 
ATOM      7  C   UNL     1      -4.588  -0.343  24.753  0.00  0.00    +0.058 A 
ATOM      8  C   UNL     1      -4.597   0.469  24.903  0.00  0.00    +0.010 A 
ATOM      9  C   UNL     1      -4.150   0.980  24.435  0.00  0.00    +0.058 A 
ATOM     10  C   UNL     1      -3.692   0.679  23.817  0.00  0.00    +0.105 A 
ATOM     11  N   UNL     1      -3.683  -0.132  23.668  0.00  0.00    -0.210 NA
BRANCH   6   5
ATOM      5  O   UNL     1      -4.122  -1.454  23.987  0.00  0.00    -0.457 OA
BRANCH   5   4
ATOM      4  C   UNL     1      -3.673  -1.957  24.464  0.00  0.00    +0.239 C 
BRANCH   4   3
ATOM      3  C   UNL     1      -3.432  -2.692  24.177  0.00  0.00    +0.189 C 
BRANCH   3   2
ATOM      1  C   UNL     1      -2.078  -3.048  24.461  0.00  0.00    +0.174 C 
ATOM      2  O   UNL     1      -2.886  -3.141  24.602  0.00  0.00    -0.347 OA
ENDBRANCH   3   2
ENDBRANCH   4   3
ENDBRANCH   5   4
ENDBRANCH   6   5
ENDBRANCH  12   9
BRANCH  15  17
ATOM     17  C   UNL     1      -3.635   3.573  25.639  0.00  0.00    +0.138 C 
ATOM     18  C   UNL     1      -4.013   3.864  26.311  0.00  0.00    +0.027 C 
ATOM     19  C   UNL     1      -3.531   4.446  26.643  0.00  0.00    +0.019 C 
ATOM     20  C   UNL     1      -2.855   4.513  26.175  0.00  0.00    +0.073 C 
ATOM     21  N   UNL     1      -2.919   3.974  25.555  0.00  0.00    -0.260 NA
BRANCH  21  22
ATOM     22  C   UNL     1      -2.365   3.857  24.956  0.00  0.00    +0.138 C 
BRANCH  22  23
ATOM     23  C   UNL     1      -1.677   4.311  24.936  0.00  0.00    +0.139 A 
ATOM     24  C   UNL     1      -0.907   4.029  25.030  0.00  0.00    +0.038 A 
ATOM     25  C   UNL     1      -0.391   4.670  24.971  0.00  0.00    +0.043 A 
ATOM     26  C   UNL     1      -0.842   5.349  24.839  0.00  0.00    +0.179 A 
ATOM     27  O   UNL     1      -1.637   5.126  24.818  0.00  0.00    -0.453 OA
ENDBRANCH  22  23
ENDBRANCH  21  22
ENDBRANCH  15  17
TORSDOF 8
ENDMDL
MODEL 6
REMARK VINA RESULT:      -7.4      2.572      4.802
REMARK  Name = 
REMARK  8 active torsions:
REMARK  status: ('A' for Active; 'I' for Inactive)
REMARK    1  A    between atoms: O_2  and  C_3
REMARK    2  A    between atoms: C_3  and  C_4
REMARK    3  A    between atoms: C_4  and  O_5
REMARK    4  A    between atoms: O_5  and  C_6
REMARK    5  A    between atoms: C_9  and  C_12
REMARK    6  A    between atoms: C_15  and  C_17
REMARK    7  A    between atoms: N_21  and  C_22
REMARK    8  A    between atoms: C_22  and  C_23
REMARK                            x       y       z     vdW  Elec       q    Type
REMARK                         _______ _______ _______ _____ _____    ______ ____
ROOT
ATOM     12  C   UNL     1      -4.106   1.013  24.761  0.00  0.00    +0.205 A 
ATOM     13  N   UNL     1      -4.800   0.738  25.112  0.00  0.00    -0.056 NA
ATOM     14  O   UNL     1      -4.830  -0.081  25.011  0.00  0.00    -0.336 OA
ATOM     15  C   UNL     1      -4.155  -0.312  24.597  0.00  0.00    +0.251 A 
ATOM     16  N   UNL     1      -3.707   0.364  24.442  0.00  0.00    -0.190 NA
ENDROOT
BRANCH  12   9
ATOM      6  C   UNL     1      -3.351   3.368  24.676  0.00  0.00    +0.225 A 
ATOM      7  C   UNL     1      -3.316   2.900  23.999  0.00  0.00    +0.058 A 
ATOM      8  C   UNL     1      -3.567   2.115  24.027  0.00  0.00    +0.010 A 
ATOM      9  C   UNL     1      -3.854   1.798  24.733  0.00  0.00    +0.058 A 
ATOM     10  C   UNL     1      -3.890   2.268  25.411  0.00  0.00    +0.105 A 
ATOM     11  N   UNL     1      -3.638   3.053  25.383  0.00  0.00    -0.210 NA
BRANCH   6   5
ATOM      5  O   UNL     1      -3.100   4.154  24.648  0.00  0.00    -0.457 OA
BRANCH   5   4
ATOM      4  C   UNL     1      -2.372   4.366  24.974  0.00  0.00    +0.239 C 
BRANCH   4   3
ATOM      3  C   UNL     1      -2.087   5.135  24.881  0.00  0.00    +0.189 C 
BRANCH   3   2
ATOM      1  C   UNL     1      -0.675   5.348  24.824  0.00  0.00    +0.174 C 
ATOM      2  O   UNL     1      -1.382   5.360  25.248  0.00  0.00    -0.347 OA
ENDBRANCH   3   2
ENDBRANCH   4   3
ENDBRANCH   5   4
ENDBRANCH   6   5
ENDBRANCH  12   9
BRANCH  15  17
ATOM     17  C   UNL     1      -3.961  -1.082  24.377  0.00  0.00    +0.138 C 
ATOM     18  C   UNL     1      -4.403  -1.569  23.879  0.00  0.00    +0.027 C 
ATOM     19  C   UNL     1      -4.006  -2.290  23.810  0.00  0.00    +0.019 C 
ATOM     20  C   UNL     1      -3.320  -2.247  24.265  0.00  0.00    +0.073 C 
ATOM     21  N   UNL     1      -3.292  -1.501  24.615  0.00  0.00    -0.260 NA
BRANCH  21  22
ATOM     22  C   UNL     1      -2.698  -1.223  25.115  0.00  0.00    +0.138 C 
BRANCH  22  23
ATOM     23  C   UNL     1      -1.914  -1.446  24.990  0.00  0.00    +0.139 A 
ATOM     24  C   UNL     1      -1.517  -2.060  25.371  0.00  0.00    +0.038 A 
ATOM     25  C   UNL     1      -0.747  -2.088  25.077  0.00  0.00    +0.043 A 
ATOM     26  C   UNL     1      -0.667  -1.490  24.514  0.00  0.00    +0.179 A 
ATOM     27  O   UNL     1      -1.389  -1.094  24.460  0.00  0.00    -0.453 OA
ENDBRANCH  22  23
ENDBRANCH  21  22
ENDBRANCH  15  17
TORSDOF 8
ENDMDL
