MODEL 1
REMARK VINA RESULT:      -7.9      0.000      0.000
REMARK  Name = 
REMARK  7 active torsions:
REMARK  status: ('A' for Active; 'I' for Inactive)
REMARK    1  A    between atoms: O_2  and  C_3
REMARK    2  A    between atoms: C_7  and  C_8
REMARK    3  A    between atoms: C_8  and  C_9
REMARK    4  A    between atoms: C_9  and  N_10
REMARK    5  A    between atoms: C_22  and  C_24
REMARK    6  A    between atoms: C_24  and  C_25
REMARK    7  A    between atoms: C_29  and  O_30
REMARK                            x       y       z     vdW  Elec       q    Type
REMARK                         _______ _______ _______ _____ _____    ______ ____
ROOT
ATOM     10  N   UNL     1      -2.056   0.726  24.489  0.00  0.00    -0.279 N 
ATOM     11  C   UNL     1      -1.572   1.366  24.298  0.00  0.00    +0.093 C 
ATOM     12  C   UNL     1      -0.789   1.359  24.037  0.00  0.00    +0.023 C 
ATOM     13  C   UNL     1      -0.298   0.709  23.902  0.00  0.00    +0.022 C 
ATOM     14  C   UNL     1       0.449   0.945  23.641  0.00  0.00    +0.093 C 
ATOM     15  N   UNL     1       1.025   0.379  23.474  0.00  0.00    -0.280 N 
ATOM     16  C   UNL     1       0.855  -0.423  23.568  0.00  0.00    +0.093 C 
ATOM     17  C   UNL     1       0.109  -0.658  23.828  0.00  0.00    +0.022 C 
ATOM     18  C   UNL     1      -0.468  -0.093  23.996  0.00  0.00    +0.012 C 
ATOM     19  C   UNL     1      -1.171  -0.443  24.247  0.00  0.00    +0.085 C 
ATOM     20  C   UNL     1      -1.878  -0.078  24.467  0.00  0.00    +0.226 C 
ATOM     21  O   UNL     1      -2.487  -0.588  24.694  0.00  0.00    -0.275 OA
ATOM     22  C   UNL     1       1.772   0.615  23.214  0.00  0.00    +0.226 C 
ATOM     23  O   UNL     1       1.942   1.417  23.120  0.00  0.00    -0.275 OA
ENDROOT
BRANCH  10   9
ATOM      9  C   UNL     1      -2.820   0.917  24.736  0.00  0.00    +0.098 C 
BRANCH   9   8
ATOM      8  C   UNL     1      -3.104   1.686  24.639  0.00  0.00    +0.051 C 
BRANCH   8   7
ATOM      3  C   UNL     1      -4.891   2.808  25.200  0.00  0.00    +0.172 A 
ATOM      4  C   UNL     1      -5.459   2.211  25.193  0.00  0.00    +0.040 A 
ATOM      5  C   UNL     1      -5.243   1.438  25.001  0.00  0.00    +0.003 A 
ATOM      6  C   UNL     1      -4.458   1.263  24.816  0.00  0.00    -0.001 A 
ATOM      7  C   UNL     1      -3.889   1.861  24.824  0.00  0.00    +0.017 A 
ATOM     29  C   UNL     1      -4.106   2.633  25.016  0.00  0.00    +0.168 A 
BRANCH   3   2
ATOM      1  C   UNL     1      -5.836   3.729  25.748  0.00  0.00    +0.253 C 
ATOM      2  O   UNL     1      -5.106   3.581  25.392  0.00  0.00    -0.468 OA
ENDBRANCH   3   2
BRANCH  29  30
ATOM     30  O   UNL     1      -3.537   3.231  25.023  0.00  0.00    -0.469 OA
ATOM     31  C   UNL     1      -3.575   3.842  24.471  0.00  0.00    +0.253 C 
ENDBRANCH  29  30
ENDBRANCH   8   7
ENDBRANCH   9   8
ENDBRANCH  10   9
BRANCH  22  24
ATOM     24  C   UNL     1       2.348   0.049  23.047  0.00  0.00    +0.085 C 
BRANCH  24  25
ATOM     25  C   UNL     1       3.066   0.278  22.710  0.00  0.00    +0.009 C 
ATOM     26  C   UNL     1       3.782   0.507  22.373  0.00  0.00    +0.000 C 
ATOM     27  C   UNL     1       3.358   0.461  23.459  0.00  0.00    +0.000 C 
ATOM     28  C   UNL     1       2.772   0.094  21.961  0.00  0.00    +0.000 C 
ENDBRANCH  24  25
ENDBRANCH  22  24
TORSDOF 7
ENDMDL
MODEL 2
REMARK VINA RESULT:      -7.8      3.413      5.048
REMARK  Name = 
REMARK  7 active torsions:
REMARK  status: ('A' for Active; 'I' for Inactive)
REMARK    1  A    between atoms: O_2  and  C_3
REMARK    2  A    between atoms: C_7  and  C_8
REMARK    3  A    between atoms: C_8  and  C_9
REMARK    4  A    between atoms: C_9  and  N_10
REMARK    5  A    between atoms: C_22  and  C_24
REMARK    6  A    between atoms: C_24  and  C_25
REMARK    7  A    between atoms: C_29  and  O_30
REMARK                            x       y       z     vdW  Elec       q    Type
REMARK                         _______ _______ _______ _____ _____    ______ ____
ROOT
ATOM     10  N   UNL     1      -4.030   0.838  24.661  0.00  0.00    -0.279 N 
ATOM     11  C   UNL     1      -3.249   0.925  24.409  0.00  0.00    +0.093 C 
ATOM     12  C   UNL     1      -2.766   1.592  24.450  0.00  0.00    +0.023 C 
ATOM     13  C   UNL     1      -2.946   2.338  24.755  0.00  0.00    +0.022 C 
ATOM     14  C   UNL     1      -2.303   2.852  24.689  0.00  0.00    +0.093 C 
ATOM     15  N   UNL     1      -2.367   3.628  24.962  0.00  0.00    -0.280 N 
ATOM     16  C   UNL     1      -3.073   3.890  25.300  0.00  0.00    +0.093 C 
ATOM     17  C   UNL     1      -3.714   3.377  25.365  0.00  0.00    +0.022 C 
ATOM     18  C   UNL     1      -3.651   2.600  25.092  0.00  0.00    +0.012 C 
ATOM     19  C   UNL     1      -4.352   2.182  25.209  0.00  0.00    +0.085 C 
ATOM     20  C   UNL     1      -4.520   1.397  25.017  0.00  0.00    +0.226 C 
ATOM     21  O   UNL     1      -5.281   1.139  25.207  0.00  0.00    -0.275 OA
ATOM     22  C   UNL     1      -1.724   4.142  24.897  0.00  0.00    +0.226 C 
ATOM     23  O   UNL     1      -1.019   3.880  24.559  0.00  0.00    -0.275 OA
ENDROOT
BRANCH  10   9
ATOM      9  C   UNL     1      -4.364   0.093  24.541  0.00  0.00    +0.098 C 
BRANCH   9   8
ATOM      8  C   UNL     1      -4.071  -0.561  24.951  0.00  0.00    +0.051 C 
BRANCH   8   7
ATOM      3  C   UNL     1      -3.468  -2.605  24.477  0.00  0.00    +0.172 A 
ATOM      4  C   UNL     1      -3.962  -2.769  23.838  0.00  0.00    +0.040 A 
ATOM      5  C   UNL     1      -4.493  -2.197  23.568  0.00  0.00    +0.003 A 
ATOM      6  C   UNL     1      -4.529  -1.461  23.939  0.00  0.00    -0.001 A 
ATOM      7  C   UNL     1      -4.034  -1.297  24.580  0.00  0.00    +0.017 A 
ATOM     29  C   UNL     1      -3.505  -1.869  24.848  0.00  0.00    +0.168 A 
BRANCH   3   2
ATOM      1  C   UNL     1      -2.432  -3.552  24.215  0.00  0.00    +0.253 C 
ATOM      2  O   UNL     1      -2.938  -3.176  24.747  0.00  0.00    -0.468 OA
ENDBRANCH   3   2
BRANCH  29  30
ATOM     30  O   UNL     1      -3.010  -1.704  25.489  0.00  0.00    -0.469 OA
ATOM     31  C   UNL     1      -3.234  -1.930  26.250  0.00  0.00    +0.253 C 
ENDBRANCH  29  30
ENDBRANCH   8   7
ENDBRANCH   9   8
ENDBRANCH  10   9
BRANCH  22  24
ATOM     24  C   UNL     1      -1.788   4.918  25.170  0.00  0.00    +0.085 C 
BRANCH  24  25
ATOM     25  C   UNL     1      -1.220   5.478  24.957  0.00  0.00    +0.009 C 
ATOM     26  C   UNL     1      -0.652   6.037  24.745  0.00  0.00    +0.000 C 
ATOM     27  C   UNL     1      -1.817   5.987  24.702  0.00  0.00    +0.000 C 
ATOM     28  C   UNL     1      -0.623   4.969  25.213  0.00  0.00    +0.000 C 
ENDBRANCH  24  25
ENDBRANCH  22  24
TORSDOF 7
ENDMDL
MODEL 3
REMARK VINA RESULT:      -7.7      1.048      6.300
REMARK  Name = 
REMARK  7 active torsions:
REMARK  status: ('A' for Active; 'I' for Inactive)
REMARK    1  A    between atoms: O_2  and  C_3
REMARK    2  A    between atoms: C_7  and  C_8
REMARK    3  A    between atoms: C_8  and  C_9
REMARK    4  A    between atoms: C_9  and  N_10
REMARK    5  A    between atoms: C_22  and  C_24
REMARK    6  A    between atoms: C_24  and  C_25
REMARK    7  A    between atoms: C_29  and  O_30
REMARK                            x       y       z     vdW  Elec       q    Type
REMARK                         _______ _______ _______ _____ _____    ______ ____
ROOT
ATOM     10  N   UNL     1      -1.004   0.042  24.044  0.00  0.00    -0.279 N 
ATOM     11  C   UNL     1      -1.322   0.754  23.775  0.00  0.00    +0.093 C 
ATOM     12  C   UNL     1      -2.061   1.082  23.939  0.00  0.00    +0.023 C 
ATOM     13  C   UNL     1      -2.665   0.778  24.411  0.00  0.00    +0.022 C 
ATOM     14  C   UNL     1      -3.318   1.283  24.428  0.00  0.00    +0.093 C 
ATOM     15  N   UNL     1      -3.984   1.080  24.869  0.00  0.00    -0.280 N 
ATOM     16  C   UNL     1      -3.999   0.373  25.295  0.00  0.00    +0.093 C 
ATOM     17  C   UNL     1      -3.347  -0.131  25.278  0.00  0.00    +0.022 C 
ATOM     18  C   UNL     1      -2.679   0.071  24.836  0.00  0.00    +0.012 C 
ATOM     19  C   UNL     1      -2.093  -0.506  24.894  0.00  0.00    +0.085 C 
ATOM     20  C   UNL     1      -1.347  -0.519  24.541  0.00  0.00    +0.226 C 
ATOM     21  O   UNL     1      -0.884  -1.181  24.709  0.00  0.00    -0.275 OA
ATOM     22  C   UNL     1      -4.637   1.585  24.886  0.00  0.00    +0.226 C 
ATOM     23  O   UNL     1      -4.623   2.292  24.461  0.00  0.00    -0.275 OA
ENDROOT
BRANCH  10   9
ATOM      9  C   UNL     1      -0.242  -0.133  23.779  0.00  0.00    +0.098 C 
BRANCH   9   8
ATOM      8  C   UNL     1       0.284   0.479  23.605  0.00  0.00    +0.051 C 
BRANCH   8   7
ATOM      3  C   UNL     1       2.364   0.600  22.953  0.00  0.00    +0.172 A 
ATOM      4  C   UNL     1       2.388  -0.007  22.396  0.00  0.00    +0.040 A 
ATOM      5  C   UNL     1       1.711  -0.453  22.241  0.00  0.00    +0.003 A 
ATOM      6  C   UNL     1       1.009  -0.291  22.644  0.00  0.00    -0.001 A 
ATOM      7  C   UNL     1       0.985   0.317  23.202  0.00  0.00    +0.017 A 
ATOM     29  C   UNL     1       1.662   0.762  23.356  0.00  0.00    +0.168 A 
BRANCH   3   2
ATOM      1  C   UNL     1       3.761   0.833  22.766  0.00  0.00    +0.253 C 
ATOM      2  O   UNL     1       3.041   1.045  23.108  0.00  0.00    -0.468 OA
ENDBRANCH   3   2
BRANCH  29  30
ATOM     30  O   UNL     1       1.638   1.369  23.914  0.00  0.00    -0.469 OA
ATOM     31  C   UNL     1       1.451   2.137  23.679  0.00  0.00    +0.253 C 
ENDBRANCH  29  30
ENDBRANCH   8   7
ENDBRANCH   9   8
ENDBRANCH  10   9
BRANCH  22  24
ATOM     24  C   UNL     1      -5.303   1.383  25.328  0.00  0.00    +0.085 C 
BRANCH  24  25
ATOM     25  C   UNL     1      -5.942   1.904  25.373  0.00  0.00    +0.009 C 
ATOM     26  C   UNL     1      -6.580   2.424  25.419  0.00  0.00    +0.000 C 
ATOM     27  C   UNL     1      -6.319   1.494  24.764  0.00  0.00    +0.000 C 
ATOM     28  C   UNL     1      -5.564   2.313  25.982  0.00  0.00    +0.000 C 
ENDBRANCH  24  25
ENDBRANCH  22  24
TORSDOF 7
ENDMDL
MODEL 4
REMARK VINA RESULT:      -7.6      3.006      4.906
REMARK  Name = 
REMARK  7 active torsions:
REMARK  status: ('A' for Active; 'I' for Inactive)
REMARK    1  A    between atoms: O_2  and  C_3
REMARK    2  A    between atoms: C_7  and  C_8
REMARK    3  A    between atoms: C_8  and  C_9
REMARK    4  A    between atoms: C_9  and  N_10
REMARK    5  A    between atoms: C_22  and  C_24
REMARK    6  A    between atoms: C_24  and  C_25
REMARK    7  A    between atoms: C_29  and  O_30
REMARK                            x       y       z     vdW  Elec       q    Type
REMARK                         _______ _______ _______ _____ _____    ______ ____
ROOT
ATOM     10  N   UNL     1      -3.288   2.271  25.058  0.00  0.00    -0.279 N 
ATOM     11  C   UNL     1      -2.657   1.749  24.962  0.00  0.00    +0.093 C 
ATOM     12  C   UNL     1      -2.678   0.935  24.834  0.00  0.00    +0.023 C 
ATOM     13  C   UNL     1      -3.336   0.441  24.770  0.00  0.00    +0.022 C 
ATOM     14  C   UNL     1      -3.113  -0.343  24.641  0.00  0.00    +0.093 C 
ATOM     15  N   UNL     1      -3.690  -0.927  24.561  0.00  0.00    -0.280 N 
ATOM     16  C   UNL     1      -4.489  -0.728  24.609  0.00  0.00    +0.093 C 
ATOM     17  C   UNL     1      -4.711   0.055  24.737  0.00  0.00    +0.022 C 
ATOM     18  C   UNL     1      -4.135   0.640  24.818  0.00  0.00    +0.012 C 
ATOM     19  C   UNL     1      -4.474   1.382  24.942  0.00  0.00    +0.085 C 
ATOM     20  C   UNL     1      -4.097   2.108  25.049  0.00  0.00    +0.226 C 
ATOM     21  O   UNL     1      -4.595   2.756  25.162  0.00  0.00    -0.275 OA
ATOM     22  C   UNL     1      -3.467  -1.712  24.432  0.00  0.00    +0.226 C 
ATOM     23  O   UNL     1      -2.667  -1.911  24.383  0.00  0.00    -0.275 OA
ENDROOT
BRANCH  10   9
ATOM      9  C   UNL     1      -3.084   3.062  25.179  0.00  0.00    +0.098 C 
BRANCH   9   8
ATOM      8  C   UNL     1      -2.304   3.263  25.356  0.00  0.00    +0.051 C 
BRANCH   8   7
ATOM      3  C   UNL     1      -1.026   4.993  24.981  0.00  0.00    +0.172 A 
ATOM      4  C   UNL     1      -1.552   5.610  25.127  0.00  0.00    +0.040 A 
ATOM      5  C   UNL     1      -2.329   5.446  25.350  0.00  0.00    +0.003 A 
ATOM      6  C   UNL     1      -2.580   4.664  25.426  0.00  0.00    -0.001 A 
ATOM      7  C   UNL     1      -2.053   4.045  25.279  0.00  0.00    +0.017 A 
ATOM     29  C   UNL     1      -1.276   4.210  25.057  0.00  0.00    +0.168 A 
BRANCH   3   2
ATOM      1  C   UNL     1      -0.072   5.860  24.365  0.00  0.00    +0.253 C 
ATOM      2  O   UNL     1      -0.248   5.156  24.758  0.00  0.00    -0.468 OA
ENDBRANCH   3   2
BRANCH  29  30
ATOM     30  O   UNL     1      -0.749   3.592  24.910  0.00  0.00    -0.469 OA
ATOM     31  C   UNL     1      -0.159   3.415  25.459  0.00  0.00    +0.253 C 
ENDBRANCH  29  30
ENDBRANCH   8   7
ENDBRANCH   9   8
ENDBRANCH  10   9
BRANCH  22  24
ATOM     24  C   UNL     1      -4.043  -2.296  24.351  0.00  0.00    +0.085 C 
BRANCH  24  25
ATOM     25  C   UNL     1      -3.824  -3.067  24.153  0.00  0.00    +0.009 C 
ATOM     26  C   UNL     1      -3.605  -3.837  23.956  0.00  0.00    +0.000 C 
ATOM     27  C   UNL     1      -3.527  -3.178  24.915  0.00  0.00    +0.000 C 
ATOM     28  C   UNL     1      -4.121  -2.955  23.392  0.00  0.00    +0.000 C 
ENDBRANCH  24  25
ENDBRANCH  22  24
TORSDOF 7
ENDMDL
MODEL 5
REMARK VINA RESULT:      -7.3      2.954      4.779
REMARK  Name = 
REMARK  7 active torsions:
REMARK  status: ('A' for Active; 'I' for Inactive)
REMARK    1  A    between atoms: O_2  and  C_3
REMARK    2  A    between atoms: C_7  and  C_8
REMARK    3  A    between atoms: C_8  and  C_9
REMARK    4  A    between atoms: C_9  and  N_10
REMARK    5  A    between atoms: C_22  and  C_24
REMARK    6  A    between atoms: C_24  and  C_25
REMARK    7  A    between atoms: C_29  and  O_30
REMARK                            x       y       z     vdW  Elec       q    Type
REMARK                         _______ _______ _______ _____ _____    ______ ____
ROOT
ATOM     10  N   UNL     1      -2.007   0.068  25.240  0.00  0.00    -0.279 N 
ATOM     11  C   UNL     1      -2.569   0.612  24.979  0.00  0.00    +0.093 C 
ATOM     12  C   UNL     1      -2.508   1.433  24.934  0.00  0.00    +0.023 C 
ATOM     13  C   UNL     1      -1.869   1.913  25.140  0.00  0.00    +0.022 C 
ATOM     14  C   UNL     1      -2.037   2.711  25.009  0.00  0.00    +0.093 C 
ATOM     15  N   UNL     1      -1.469   3.284  25.179  0.00  0.00    -0.280 N 
ATOM     16  C   UNL     1      -0.734   3.061  25.481  0.00  0.00    +0.093 C 
ATOM     17  C   UNL     1      -0.567   2.265  25.611  0.00  0.00    +0.022 C 
ATOM     18  C   UNL     1      -1.134   1.690  25.441  0.00  0.00    +0.012 C 
ATOM     19  C   UNL     1      -0.856   0.932  25.611  0.00  0.00    +0.085 C 
ATOM     20  C   UNL     1      -1.245   0.210  25.522  0.00  0.00    +0.226 C 
ATOM     21  O   UNL     1      -0.814  -0.457  25.743  0.00  0.00    -0.275 OA
ATOM     22  C   UNL     1      -1.637   4.082  25.048  0.00  0.00    +0.226 C 
ATOM     23  O   UNL     1      -2.372   4.305  24.747  0.00  0.00    -0.275 OA
ENDROOT
BRANCH  10   9
ATOM      9  C   UNL     1      -2.238  -0.724  25.218  0.00  0.00    +0.098 C 
BRANCH   9   8
ATOM      8  C   UNL     1      -2.990  -0.926  24.944  0.00  0.00    +0.051 C 
BRANCH   8   7
ATOM      3  C   UNL     1      -3.929  -2.721  24.131  0.00  0.00    +0.172 A 
ATOM      4  C   UNL     1      -3.580  -3.305  24.597  0.00  0.00    +0.040 A 
ATOM      5  C   UNL     1      -3.034  -3.096  25.180  0.00  0.00    +0.003 A 
ATOM      6  C   UNL     1      -2.838  -2.304  25.295  0.00  0.00    -0.001 A 
ATOM      7  C   UNL     1      -3.187  -1.719  24.828  0.00  0.00    +0.017 A 
ATOM     29  C   UNL     1      -3.733  -1.929  24.246  0.00  0.00    +0.168 A 
BRANCH   3   2
ATOM      1  C   UNL     1      -4.528  -3.713  23.294  0.00  0.00    +0.253 C 
ATOM      2  O   UNL     1      -4.476  -2.930  23.548  0.00  0.00    -0.468 OA
ENDBRANCH   3   2
BRANCH  29  30
ATOM     30  O   UNL     1      -4.082  -1.344  23.779  0.00  0.00    -0.469 OA
ATOM     31  C   UNL     1      -4.846  -1.084  23.949  0.00  0.00    +0.253 C 
ENDBRANCH  29  30
ENDBRANCH   8   7
ENDBRANCH   9   8
ENDBRANCH  10   9
BRANCH  22  24
ATOM     24  C   UNL     1      -1.069   4.656  25.219  0.00  0.00    +0.085 C 
BRANCH  24  25
ATOM     25  C   UNL     1      -1.177   5.433  24.961  0.00  0.00    +0.009 C 
ATOM     26  C   UNL     1      -1.285   6.208  24.703  0.00  0.00    +0.000 C 
ATOM     27  C   UNL     1      -0.507   5.367  24.484  0.00  0.00    +0.000 C 
ATOM     28  C   UNL     1      -1.847   5.497  25.438  0.00  0.00    +0.000 C 
ENDBRANCH  24  25
ENDBRANCH  22  24
TORSDOF 7
ENDMDL
MODEL 6
REMARK VINA RESULT:      -7.2      2.565      4.511
REMARK  Name = 
REMARK  7 active torsions:
REMARK  status: ('A' for Active; 'I' for Inactive)
REMARK    1  A    between atoms: O_2  and  C_3
REMARK    2  A    between atoms: C_7  and  C_8
REMARK    3  A    between atoms: C_8  and  C_9
REMARK    4  A    between atoms: C_9  and  N_10
REMARK    5  A    between atoms: C_22  and  C_24
REMARK    6  A    between atoms: C_24  and  C_25
REMARK    7  A    between atoms: C_29  and  O_30
REMARK                            x       y       z     vdW  Elec       q    Type
REMARK                         _______ _______ _______ _____ _____    ______ ____
ROOT
ATOM     10  N   UNL     1      -1.136   1.691  25.014  0.00  0.00    -0.279 N 
ATOM     11  C   UNL     1      -1.955   1.601  24.971  0.00  0.00    +0.093 C 
ATOM     12  C   UNL     1      -2.392   0.909  24.862  0.00  0.00    +0.023 C 
ATOM     13  C   UNL     1      -2.117   0.137  24.769  0.00  0.00    +0.022 C 
ATOM     14  C   UNL     1      -2.740  -0.396  24.674  0.00  0.00    +0.093 C 
ATOM     15  N   UNL     1      -2.584  -1.199  24.572  0.00  0.00    -0.280 N 
ATOM     16  C   UNL     1      -1.805  -1.471  24.566  0.00  0.00    +0.093 C 
ATOM     17  C   UNL     1      -1.182  -0.939  24.661  0.00  0.00    +0.022 C 
ATOM     18  C   UNL     1      -1.338  -0.135  24.762  0.00  0.00    +0.012 C 
ATOM     19  C   UNL     1      -0.641   0.299  24.847  0.00  0.00    +0.085 C 
ATOM     20  C   UNL     1      -0.552   1.111  24.959  0.00  0.00    +0.226 C 
ATOM     21  O   UNL     1       0.226   1.379  25.024  0.00  0.00    -0.275 OA
ATOM     22  C   UNL     1      -3.208  -1.732  24.477  0.00  0.00    +0.226 C 
ATOM     23  O   UNL     1      -3.987  -1.460  24.484  0.00  0.00    -0.275 OA
ENDROOT
BRANCH  10   9
ATOM      9  C   UNL     1      -0.866   2.462  25.127  0.00  0.00    +0.098 C 
BRANCH   9   8
ATOM      8  C   UNL     1      -1.398   3.058  25.337  0.00  0.00    +0.051 C 
BRANCH   8   7
ATOM      3  C   UNL     1      -1.596   5.223  25.146  0.00  0.00    +0.172 A 
ATOM      4  C   UNL     1      -0.845   5.425  24.872  0.00  0.00    +0.040 A 
ATOM      5  C   UNL     1      -0.278   4.838  24.752  0.00  0.00    +0.003 A 
ATOM      6  C   UNL     1      -0.462   4.049  24.907  0.00  0.00    -0.001 A 
ATOM      7  C   UNL     1      -1.214   3.847  25.182  0.00  0.00    +0.017 A 
ATOM     29  C   UNL     1      -1.780   4.434  25.301  0.00  0.00    +0.168 A 
BRANCH   3   2
ATOM      1  C   UNL     1      -2.092   6.537  24.883  0.00  0.00    +0.253 C 
ATOM      2  O   UNL     1      -2.164   5.810  25.266  0.00  0.00    -0.468 OA
ENDBRANCH   3   2
BRANCH  29  30
ATOM     30  O   UNL     1      -2.532   4.232  25.576  0.00  0.00    -0.469 OA
ATOM     31  C   UNL     1      -2.733   4.369  26.364  0.00  0.00    +0.253 C 
ENDBRANCH  29  30
ENDBRANCH   8   7
ENDBRANCH   9   8
ENDBRANCH  10   9
BRANCH  22  24
ATOM     24  C   UNL     1      -3.052  -2.535  24.376  0.00  0.00    +0.085 C 
BRANCH  24  25
ATOM     25  C   UNL     1      -3.676  -3.071  24.306  0.00  0.00    +0.009 C 
ATOM     26  C   UNL     1      -4.299  -3.606  24.237  0.00  0.00    +0.000 C 
ATOM     27  C   UNL     1      -3.553  -3.314  25.085  0.00  0.00    +0.000 C 
ATOM     28  C   UNL     1      -3.798  -2.827  23.528  0.00  0.00    +0.000 C 
ENDBRANCH  24  25
ENDBRANCH  22  24
TORSDOF 7
ENDMDL
MODEL 7
REMARK VINA RESULT:      -6.6      2.527      6.794
REMARK  Name = 
REMARK  7 active torsions:
REMARK  status: ('A' for Active; 'I' for Inactive)
REMARK    1  A    between atoms: O_2  and  C_3
REMARK    2  A    between atoms: C_7  and  C_8
REMARK    3  A    between atoms: C_8  and  C_9
REMARK    4  A    between atoms: C_9  and  N_10
REMARK    5  A    between atoms: C_22  and  C_24
REMARK    6  A    between atoms: C_24  and  C_25
REMARK    7  A    between atoms: C_29  and  O_30
REMARK                            x       y       z     vdW  Elec       q    Type
REMARK                         _______ _______ _______ _____ _____    ______ ____
ROOT
ATOM     10  N   UNL     1       1.153   0.481  23.501  0.00  0.00    -0.279 N 
ATOM     11  C   UNL     1       0.926  -0.295  23.337  0.00  0.00    +0.093 C 
ATOM     12  C   UNL     1       0.214  -0.672  23.514  0.00  0.00    +0.023 C 
ATOM     13  C   UNL     1      -0.448  -0.364  23.900  0.00  0.00    +0.022 C 
ATOM     14  C   UNL     1      -1.047  -0.928  23.966  0.00  0.00    +0.093 C 
ATOM     15  N   UNL     1      -1.758  -0.732  24.335  0.00  0.00    -0.280 N 
ATOM     16  C   UNL     1      -1.871   0.027  24.638  0.00  0.00    +0.093 C 
ATOM     17  C   UNL     1      -1.272   0.590  24.571  0.00  0.00    +0.022 C 
ATOM     18  C   UNL     1      -0.560   0.395  24.202  0.00  0.00    +0.012 C 
ATOM     19  C   UNL     1      -0.039   1.034  24.195  0.00  0.00    +0.085 C 
ATOM     20  C   UNL     1       0.723   1.072  23.882  0.00  0.00    +0.226 C 
ATOM     21  O   UNL     1       1.106   1.799  23.963  0.00  0.00    -0.275 OA
ATOM     22  C   UNL     1      -2.357  -1.296  24.401  0.00  0.00    +0.226 C 
ATOM     23  O   UNL     1      -2.244  -2.056  24.098  0.00  0.00    -0.275 OA
ENDROOT
BRANCH  10   9
ATOM      9  C   UNL     1       1.910   0.693  23.249  0.00  0.00    +0.098 C 
BRANCH   9   8
ATOM      8  C   UNL     1       2.492   0.115  23.161  0.00  0.00    +0.051 C 
BRANCH   8   7
ATOM      3  C   UNL     1       4.674   0.111  23.219  0.00  0.00    +0.172 A 
ATOM      4  C   UNL     1       4.843   0.780  22.767  0.00  0.00    +0.040 A 
ATOM      5  C   UNL     1       4.229   1.228  22.446  0.00  0.00    +0.003 A 
ATOM      6  C   UNL     1       3.445   1.006  22.577  0.00  0.00    -0.001 A 
ATOM      7  C   UNL     1       3.276   0.337  23.029  0.00  0.00    +0.017 A 
ATOM     29  C   UNL     1       3.890  -0.110  23.350  0.00  0.00    +0.168 A 
BRANCH   3   2
ATOM      1  C   UNL     1       6.053  -0.029  23.565  0.00  0.00    +0.253 C 
ATOM      2  O   UNL     1       5.288  -0.337  23.540  0.00  0.00    -0.468 OA
ENDBRANCH   3   2
BRANCH  29  30
ATOM     30  O   UNL     1       3.721  -0.780  23.802  0.00  0.00    -0.469 OA
ATOM     31  C   UNL     1       4.058  -1.506  23.605  0.00  0.00    +0.253 C 
ENDBRANCH  29  30
ENDBRANCH   8   7
ENDBRANCH   9   8
ENDBRANCH  10   9
BRANCH  22  24
ATOM     24  C   UNL     1      -3.068  -1.100  24.770  0.00  0.00    +0.085 C 
BRANCH  24  25
ATOM     25  C   UNL     1      -3.715  -1.610  24.715  0.00  0.00    +0.009 C 
ATOM     26  C   UNL     1      -4.361  -2.120  24.660  0.00  0.00    +0.000 C 
ATOM     27  C   UNL     1      -3.446  -2.022  25.377  0.00  0.00    +0.000 C 
ATOM     28  C   UNL     1      -3.984  -1.198  24.053  0.00  0.00    +0.000 C 
ENDBRANCH  24  25
ENDBRANCH  22  24
TORSDOF 7
ENDMDL
MODEL 8
REMARK VINA RESULT:      -6.2     14.967     16.010
REMARK  Name = 
REMARK  7 active torsions:
REMARK  status: ('A' for Active; 'I' for Inactive)
REMARK    1  A    between atoms: O_2  and  C_3
REMARK    2  A    between atoms: C_7  and  C_8
REMARK    3  A    between atoms: C_8  and  C_9
REMARK    4  A    between atoms: C_9  and  N_10
REMARK    5  A    between atoms: C_22  and  C_24
REMARK    6  A    between atoms: C_24  and  C_25
REMARK    7  A    between atoms: C_29  and  O_30
REMARK                            x       y       z     vdW  Elec       q    Type
REMARK                         _______ _______ _______ _____ _____    ______ ____
ROOT
ATOM     10  N   UNL     1      -6.731 -10.085  14.639  0.00  0.00    -0.279 N 
ATOM     11  C   UNL     1      -5.937  -9.885  14.538  0.00  0.00    +0.093 C 
ATOM     12  C   UNL     1      -5.521  -9.766  13.836  0.00  0.00    +0.023 C 
ATOM     13  C   UNL     1      -5.797  -9.817  13.060  0.00  0.00    +0.022 C 
ATOM     14  C   UNL     1      -5.197  -9.656  12.516  0.00  0.00    +0.093 C 
ATOM     15  N   UNL     1      -5.358  -9.678  11.707  0.00  0.00    -0.280 N 
ATOM     16  C   UNL     1      -6.118  -9.861  11.442  0.00  0.00    +0.093 C 
ATOM     17  C   UNL     1      -6.716 -10.022  11.986  0.00  0.00    +0.022 C 
ATOM     18  C   UNL     1      -6.556 -10.001  12.795  0.00  0.00    +0.012 C 
ATOM     19  C   UNL     1      -7.227 -10.178  13.241  0.00  0.00    +0.085 C 
ATOM     20  C   UNL     1      -7.305 -10.215  14.061  0.00  0.00    +0.226 C 
ATOM     21  O   UNL     1      -8.057 -10.409  14.340  0.00  0.00    -0.275 OA
ATOM     22  C   UNL     1      -4.759  -9.516  11.163  0.00  0.00    +0.226 C 
ATOM     23  O   UNL     1      -3.999  -9.333  11.428  0.00  0.00    -0.275 OA
ENDROOT
BRANCH  10   9
ATOM      9  C   UNL     1      -6.984 -10.166  15.420  0.00  0.00    +0.098 C 
BRANCH   9   8
ATOM      8  C   UNL     1      -6.437 -10.128  16.036  0.00  0.00    +0.051 C 
BRANCH   8   7
ATOM      3  C   UNL     1      -6.493 -10.425  18.198  0.00  0.00    +0.172 A 
ATOM      4  C   UNL     1      -7.221 -10.085  18.383  0.00  0.00    +0.040 A 
ATOM      5  C   UNL     1      -7.688  -9.758  17.787  0.00  0.00    +0.003 A 
ATOM      6  C   UNL     1      -7.427  -9.772  17.004  0.00  0.00    -0.001 A 
ATOM      7  C   UNL     1      -6.698 -10.113  16.819  0.00  0.00    +0.017 A 
ATOM     29  C   UNL     1      -6.232 -10.440  17.416  0.00  0.00    +0.168 A 
BRANCH   3   2
ATOM      1  C   UNL     1      -6.291 -10.745  19.576  0.00  0.00    +0.253 C 
ATOM      2  O   UNL     1      -6.026 -10.752  18.795  0.00  0.00    -0.468 OA
ENDBRANCH   3   2
BRANCH  29  30
ATOM     30  O   UNL     1      -5.503 -10.781  17.230  0.00  0.00    -0.469 OA
ATOM     31  C   UNL     1      -4.804 -10.394  17.433  0.00  0.00    +0.253 C 
ENDBRANCH  29  30
ENDBRANCH   8   7
ENDBRANCH   9   8
ENDBRANCH  10   9
BRANCH  22  24
ATOM     24  C   UNL     1      -4.920  -9.538  10.355  0.00  0.00    +0.085 C 
BRANCH  24  25
ATOM     25  C   UNL     1      -4.330  -9.341   9.811  0.00  0.00    +0.009 C 
ATOM     26  C   UNL     1      -3.741  -9.145   9.269  0.00  0.00    +0.000 C 
ATOM     27  C   UNL     1      -4.088 -10.130   9.789  0.00  0.00    +0.000 C 
ATOM     28  C   UNL     1      -4.573  -8.553   9.834  0.00  0.00    +0.000 C 
ENDBRANCH  24  25
ENDBRANCH  22  24
TORSDOF 7
ENDMDL
