REMARK  Name = 
REMARK  6 active torsions:
REMARK  status: ('A' for Active; 'I' for Inactive)
REMARK    1  A    between atoms: S_2  and  N_5
REMARK    2  A    between atoms: C_10  and  C_12
REMARK    3  A    between atoms: C_15  and  C_17
REMARK    4  A    between atoms: N_21  and  C_22
REMARK    5  A    between atoms: C_22  and  C_23
REMARK    6  A    between atoms: C_26  and  C_29
REMARK                            x       y       z     vdW  Elec       q    Type
REMARK                         _______ _______ _______ _____ _____    ______ ____
ROOT
ATOM     12  C   UNL     1       0.381  -2.790   0.000  0.00  0.00    +0.203 A 
ATOM     13  N   UNL     1      -0.287  -3.275   0.000  0.00  0.00    -0.056 NA
ATOM     14  O   UNL     1      -0.032  -4.060   0.000  0.00  0.00    -0.336 OA
ATOM     15  C   UNL     1       0.793  -4.060   0.000  0.00  0.00    +0.251 A 
ATOM     16  N   UNL     1       1.048  -3.275   0.000  0.00  0.00    -0.190 NA
ENDROOT
BRANCH  12  10
ATOM      5  N   UNL     1      -1.048  -0.315   0.000  0.00  0.00    -0.081 NA
ATOM      6  C   UNL     1      -0.334  -0.728   0.000  0.00  0.00    +0.171 A 
ATOM      7  N   UNL     1       0.381  -0.315   0.000  0.00  0.00    -0.226 NA
ATOM      8  C   UNL     1       1.095  -0.728   0.000  0.00  0.00    +0.101 A 
ATOM      9  C   UNL     1       1.095  -1.553   0.000  0.00  0.00    +0.024 A 
ATOM     10  C   UNL     1       0.381  -1.965   0.000  0.00  0.00    +0.044 A 
ATOM     11  C   UNL     1      -0.334  -1.553   0.000  0.00  0.00    +0.041 A 
BRANCH   5   2
ATOM      1  C   UNL     1      -1.048   1.335   0.000  0.00  0.00    +0.202 C 
ATOM      2  S   UNL     1      -1.048   0.510   0.000  0.00  0.00    +0.076 S 
ATOM      3  O   UNL     1      -1.873   0.510   0.000  0.00  0.00    -0.153 OA
ATOM      4  O   UNL     1      -0.223   0.510   0.000  0.00  0.00    -0.153 OA
ENDBRANCH   5   2
ENDBRANCH  12  10
BRANCH  15  17
ATOM     17  C   UNL     1       1.278  -4.727   0.000  0.00  0.00    +0.138 C 
ATOM     18  C   UNL     1       1.023  -5.512   0.000  0.00  0.00    +0.027 C 
ATOM     19  C   UNL     1       1.690  -5.997   0.000  0.00  0.00    +0.019 C 
ATOM     20  C   UNL     1       2.358  -5.512   0.000  0.00  0.00    +0.073 C 
ATOM     21  N   UNL     1       2.103  -4.727   0.000  0.00  0.00    -0.263 NA
BRANCH  21  22
ATOM     22  C   UNL     1       2.588  -4.060   0.000  0.00  0.00    +0.099 C 
BRANCH  22  23
ATOM     23  C   UNL     1       3.408  -4.146   0.000  0.00  0.00    -0.006 A 
ATOM     24  C   UNL     1       3.893  -3.479   0.000  0.00  0.00    -0.002 A 
ATOM     25  C   UNL     1       4.714  -3.565   0.000  0.00  0.00    +0.010 A 
ATOM     26  C   UNL     1       5.049  -4.319   0.000  0.00  0.00    +0.068 A 
ATOM     27  C   UNL     1       4.564  -4.986   0.000  0.00  0.00    +0.010 A 
ATOM     28  C   UNL     1       3.744  -4.900   0.000  0.00  0.00    -0.002 A 
BRANCH  26  29
ATOM     29  C   UNL     1       5.870  -4.405   0.000  0.00  0.00    +0.100 C 
ATOM     30  N   UNL     1       6.690  -4.491   0.000  0.00  0.00    -0.191 NA
ENDBRANCH  26  29
ENDBRANCH  22  23
ENDBRANCH  21  22
ENDBRANCH  15  17
TORSDOF 6
