MODEL 1
REMARK VINA RESULT:     -13.1      0.000      0.000
REMARK  Name = 
REMARK  7 active torsions:
REMARK  status: ('A' for Active; 'I' for Inactive)
REMARK    1  A    between atoms: O_2  and  C_3
REMARK    2  A    between atoms: C_3  and  C_4
REMARK    3  A    between atoms: C_4  and  N_5
REMARK    4  A    between atoms: C_6  and  C_8
REMARK    5  A    between atoms: C_8  and  C_9
REMARK    6  A    between atoms: C_14  and  C_16
REMARK    7  A    between atoms: C_27  and  C_29
REMARK                            x       y       z     vdW  Elec       q    Type
REMARK                         _______ _______ _______ _____ _____    ______ ____
ROOT
ATOM      9  C   UNL     1      -3.475   0.146  24.380  0.00  0.00    +0.050 C 
ATOM     10  C   UNL     1      -2.783   0.568  24.535  0.00  0.00    +0.063 A 
ATOM     11  C   UNL     1      -2.079   0.164  24.684  0.00  0.00    +0.023 A 
ATOM     12  C   UNL     1      -2.067  -0.660  24.678  0.00  0.00    +0.034 C 
ATOM     13  C   UNL     1      -2.759  -1.082  24.523  0.00  0.00    +0.010 C 
ATOM     14  C   UNL     1      -2.746  -1.907  24.518  0.00  0.00    +0.059 C 
ATOM     15  C   UNL     1      -1.955  -1.754  24.692  0.00  0.00    +0.005 C 
ATOM     18  C   UNL     1      -3.439  -2.328  24.363  0.00  0.00    +0.154 C 
ATOM     19  O   UNL     1      -3.427  -3.154  24.357  0.00  0.00    -0.223 OA
ATOM     20  C   UNL     1      -4.143  -1.925  24.214  0.00  0.00    +0.033 C 
ATOM     21  C   UNL     1      -4.155  -1.100  24.220  0.00  0.00    +0.003 C 
ATOM     22  C   UNL     1      -3.463  -0.678  24.374  0.00  0.00    +0.006 C 
ATOM     23  C   UNL     1      -4.167  -0.275  24.225  0.00  0.00    +0.000 C 
ATOM     24  S   UNL     1      -1.488   0.725  24.818  0.00  0.00    -0.054 S 
ATOM     25  C   UNL     1      -1.826   1.473  24.752  0.00  0.00    +0.186 A 
ATOM     26  N   UNL     1      -1.434   2.193  24.844  0.00  0.00    -0.148 NA
ATOM     27  C   UNL     1      -1.847   2.902  24.762  0.00  0.00    +0.305 C 
ATOM     28  O   UNL     1      -2.653   2.892  24.586  0.00  0.00    -0.265 OA
ATOM     34  N   UNL     1      -2.627   1.377  24.577  0.00  0.00    -0.227 NA
ENDROOT
BRANCH  27  29
ATOM     29  C   UNL     1      -1.455   3.622  24.854  0.00  0.00    +0.201 A 
ATOM     30  C   UNL     1      -1.757   4.295  25.222  0.00  0.00    +0.046 A 
ATOM     31  C   UNL     1      -1.180   4.884  25.189  0.00  0.00    +0.044 A 
ATOM     32  C   UNL     1      -0.521   4.575  24.802  0.00  0.00    +0.180 A 
ATOM     33  O   UNL     1      -0.691   3.794  24.595  0.00  0.00    -0.446 OA
ENDBRANCH  27  29
BRANCH  14  16
ATOM     16  C   UNL     1      -2.460  -2.678  24.572  0.00  0.00    +0.184 C 
ATOM     17  O   UNL     1      -1.647  -2.813  24.628  0.00  0.00    -0.220 OA
ENDBRANCH  14  16
BRANCH   9   8
ATOM      8  C   UNL     1      -4.179   0.549  24.231  0.00  0.00    +0.093 C 
BRANCH   8   6
ATOM      5  N   UNL     1      -5.076   1.539  24.738  0.00  0.00    -0.203 NA
ATOM      6  C   UNL     1      -4.612   0.868  24.858  0.00  0.00    +0.242 C 
ATOM      7  O   UNL     1      -4.580   0.515  25.602  0.00  0.00    -0.273 OA
BRANCH   5   4
ATOM      4  C   UNL     1      -5.509   1.857  25.365  0.00  0.00    +0.147 C 
BRANCH   4   3
ATOM      3  C   UNL     1      -5.856   2.602  25.289  0.00  0.00    +0.166 C 
BRANCH   3   2
ATOM      1  C   UNL     1      -5.742   3.966  25.698  0.00  0.00    +0.174 C 
ATOM      2  O   UNL     1      -5.760   3.164  25.887  0.00  0.00    -0.349 OA
ENDBRANCH   3   2
ENDBRANCH   4   3
ENDBRANCH   5   4
ENDBRANCH   8   6
ENDBRANCH   9   8
TORSDOF 7
ENDMDL
MODEL 2
REMARK VINA RESULT:     -12.0      1.932      3.654
REMARK  Name = 
REMARK  7 active torsions:
REMARK  status: ('A' for Active; 'I' for Inactive)
REMARK    1  A    between atoms: O_2  and  C_3
REMARK    2  A    between atoms: C_3  and  C_4
REMARK    3  A    between atoms: C_4  and  N_5
REMARK    4  A    between atoms: C_6  and  C_8
REMARK    5  A    between atoms: C_8  and  C_9
REMARK    6  A    between atoms: C_14  and  C_16
REMARK    7  A    between atoms: C_27  and  C_29
REMARK                            x       y       z     vdW  Elec       q    Type
REMARK                         _______ _______ _______ _____ _____    ______ ____
ROOT
ATOM      9  C   UNL     1      -1.509  -0.311  24.635  0.00  0.00    +0.050 C 
ATOM     10  C   UNL     1      -1.888   0.418  24.717  0.00  0.00    +0.063 A 
ATOM     11  C   UNL     1      -2.712   0.454  24.746  0.00  0.00    +0.023 A 
ATOM     12  C   UNL     1      -3.156  -0.238  24.691  0.00  0.00    +0.034 C 
ATOM     13  C   UNL     1      -2.779  -0.967  24.608  0.00  0.00    +0.010 C 
ATOM     14  C   UNL     1      -3.224  -1.659  24.554  0.00  0.00    +0.059 C 
ATOM     15  C   UNL     1      -3.830  -1.105  24.626  0.00  0.00    +0.005 C 
ATOM     18  C   UNL     1      -2.845  -2.387  24.471  0.00  0.00    +0.154 C 
ATOM     19  O   UNL     1      -3.290  -3.080  24.416  0.00  0.00    -0.223 OA
ATOM     20  C   UNL     1      -2.022  -2.423  24.443  0.00  0.00    +0.033 C 
ATOM     21  C   UNL     1      -1.576  -1.731  24.497  0.00  0.00    +0.003 C 
ATOM     22  C   UNL     1      -1.954  -1.002  24.580  0.00  0.00    +0.006 C 
ATOM     23  C   UNL     1      -1.131  -1.039  24.552  0.00  0.00    +0.000 C 
ATOM     24  S   UNL     1      -2.929   1.246  24.830  0.00  0.00    -0.054 S 
ATOM     25  C   UNL     1      -2.241   1.698  24.854  0.00  0.00    +0.186 A 
ATOM     26  N   UNL     1      -2.202   2.519  24.933  0.00  0.00    -0.148 NA
ATOM     27  C   UNL     1      -1.470   2.898  24.948  0.00  0.00    +0.305 C 
ATOM     28  O   UNL     1      -0.776   2.456  24.884  0.00  0.00    -0.265 OA
ATOM     34  N   UNL     1      -1.597   1.187  24.784  0.00  0.00    -0.227 NA
ENDROOT
BRANCH  27  29
ATOM     29  C   UNL     1      -1.430   3.718  25.027  0.00  0.00    +0.201 A 
ATOM     30  C   UNL     1      -0.803   4.199  24.794  0.00  0.00    +0.046 A 
ATOM     31  C   UNL     1      -0.997   4.979  24.977  0.00  0.00    +0.044 A 
ATOM     32  C   UNL     1      -1.745   4.981  25.323  0.00  0.00    +0.180 A 
ATOM     33  O   UNL     1      -2.014   4.202  25.355  0.00  0.00    -0.446 OA
ENDBRANCH  27  29
BRANCH  14  16
ATOM     16  C   UNL     1      -3.879  -2.159  24.524  0.00  0.00    +0.184 C 
ATOM     17  O   UNL     1      -4.557  -1.926  24.114  0.00  0.00    -0.220 OA
ENDBRANCH  14  16
BRANCH   9   8
ATOM      8  C   UNL     1      -0.686  -0.346  24.606  0.00  0.00    +0.093 C 
BRANCH   8   6
ATOM      5  N   UNL     1       0.532  -0.152  23.885  0.00  0.00    -0.203 NA
ATOM      6  C   UNL     1      -0.291  -0.198  23.896  0.00  0.00    +0.242 C 
ATOM      7  O   UNL     1      -0.720  -0.095  23.200  0.00  0.00    -0.273 OA
BRANCH   5   4
ATOM      4  C   UNL     1       0.927  -0.004  23.175  0.00  0.00    +0.147 C 
BRANCH   4   3
ATOM      3  C   UNL     1       1.743   0.116  23.175  0.00  0.00    +0.166 C 
BRANCH   3   2
ATOM      1  C   UNL     1       2.978   0.222  22.463  0.00  0.00    +0.174 C 
ATOM      2  O   UNL     1       2.160   0.117  22.462  0.00  0.00    -0.349 OA
ENDBRANCH   3   2
ENDBRANCH   4   3
ENDBRANCH   5   4
ENDBRANCH   8   6
ENDBRANCH   9   8
TORSDOF 7
ENDMDL
MODEL 3
REMARK VINA RESULT:     -11.8      1.872      5.705
REMARK  Name = 
REMARK  7 active torsions:
REMARK  status: ('A' for Active; 'I' for Inactive)
REMARK    1  A    between atoms: O_2  and  C_3
REMARK    2  A    between atoms: C_3  and  C_4
REMARK    3  A    between atoms: C_4  and  N_5
REMARK    4  A    between atoms: C_6  and  C_8
REMARK    5  A    between atoms: C_8  and  C_9
REMARK    6  A    between atoms: C_14  and  C_16
REMARK    7  A    between atoms: C_27  and  C_29
REMARK                            x       y       z     vdW  Elec       q    Type
REMARK                         _______ _______ _______ _____ _____    ______ ____
ROOT
ATOM      9  C   UNL     1      -1.400   1.800  24.917  0.00  0.00    +0.050 C 
ATOM     10  C   UNL     1      -2.106   1.376  24.853  0.00  0.00    +0.063 A 
ATOM     11  C   UNL     1      -2.828   1.766  24.932  0.00  0.00    +0.023 A 
ATOM     12  C   UNL     1      -2.846   2.577  25.074  0.00  0.00    +0.034 C 
ATOM     13  C   UNL     1      -2.141   3.001  25.137  0.00  0.00    +0.010 C 
ATOM     14  C   UNL     1      -2.159   3.814  25.279  0.00  0.00    +0.059 C 
ATOM     15  C   UNL     1      -2.968   3.654  25.263  0.00  0.00    +0.005 C 
ATOM     18  C   UNL     1      -1.453   4.236  25.343  0.00  0.00    +0.154 C 
ATOM     19  O   UNL     1      -1.471   5.050  25.485  0.00  0.00    -0.223 OA
ATOM     20  C   UNL     1      -0.731   3.848  25.264  0.00  0.00    +0.033 C 
ATOM     21  C   UNL     1      -0.713   3.035  25.122  0.00  0.00    +0.003 C 
ATOM     22  C   UNL     1      -1.418   2.611  25.059  0.00  0.00    +0.006 C 
ATOM     23  C   UNL     1      -0.695   2.223  24.980  0.00  0.00    +0.000 C 
ATOM     24  S   UNL     1      -3.429   1.207  24.843  0.00  0.00    -0.054 S 
ATOM     25  C   UNL     1      -3.078   0.473  24.710  0.00  0.00    +0.186 A 
ATOM     26  N   UNL     1      -3.475  -0.241  24.591  0.00  0.00    -0.148 NA
ATOM     27  C   UNL     1      -3.047  -0.934  24.464  0.00  0.00    +0.305 C 
ATOM     28  O   UNL     1      -2.223  -0.915  24.455  0.00  0.00    -0.265 OA
ATOM     34  N   UNL     1      -2.259   0.577  24.716  0.00  0.00    -0.227 NA
ENDROOT
BRANCH  27  29
ATOM     29  C   UNL     1      -3.444  -1.648  24.345  0.00  0.00    +0.201 A 
ATOM     30  C   UNL     1      -3.255  -2.372  24.692  0.00  0.00    +0.046 A 
ATOM     31  C   UNL     1      -3.793  -2.934  24.419  0.00  0.00    +0.044 A 
ATOM     32  C   UNL     1      -4.316  -2.557  23.904  0.00  0.00    +0.180 A 
ATOM     33  O   UNL     1      -4.100  -1.763  23.858  0.00  0.00    -0.446 OA
ENDBRANCH  27  29
BRANCH  14  16
ATOM     16  C   UNL     1      -2.458   4.570  25.415  0.00  0.00    +0.184 C 
ATOM     17  O   UNL     1      -3.223   4.664  25.711  0.00  0.00    -0.220 OA
ENDBRANCH  14  16
BRANCH   9   8
ATOM      8  C   UNL     1      -0.677   1.410  24.838  0.00  0.00    +0.093 C 
BRANCH   8   6
ATOM      5  N   UNL     1       0.226   0.678  24.008  0.00  0.00    -0.203 NA
ATOM      6  C   UNL     1      -0.392   1.218  24.088  0.00  0.00    +0.242 C 
ATOM      7  O   UNL     1      -0.724   1.567  23.419  0.00  0.00    -0.273 OA
BRANCH   5   4
ATOM      4  C   UNL     1       0.512   0.486  23.257  0.00  0.00    +0.147 C 
BRANCH   4   3
ATOM      3  C   UNL     1       1.162  -0.016  23.180  0.00  0.00    +0.166 C 
BRANCH   3   2
ATOM      1  C   UNL     1       2.383  -0.030  22.438  0.00  0.00    +0.174 C 
ATOM      2  O   UNL     1       1.559  -0.067  22.458  0.00  0.00    -0.349 OA
ENDBRANCH   3   2
ENDBRANCH   4   3
ENDBRANCH   5   4
ENDBRANCH   8   6
ENDBRANCH   9   8
TORSDOF 7
ENDMDL
MODEL 4
REMARK VINA RESULT:     -11.3      1.676      4.276
REMARK  Name = 
REMARK  7 active torsions:
REMARK  status: ('A' for Active; 'I' for Inactive)
REMARK    1  A    between atoms: O_2  and  C_3
REMARK    2  A    between atoms: C_3  and  C_4
REMARK    3  A    between atoms: C_4  and  N_5
REMARK    4  A    between atoms: C_6  and  C_8
REMARK    5  A    between atoms: C_8  and  C_9
REMARK    6  A    between atoms: C_14  and  C_16
REMARK    7  A    between atoms: C_27  and  C_29
REMARK                            x       y       z     vdW  Elec       q    Type
REMARK                         _______ _______ _______ _____ _____    ______ ____
ROOT
ATOM      9  C   UNL     1      -3.802   1.379  24.482  0.00  0.00    +0.050 C 
ATOM     10  C   UNL     1      -3.001   1.578  24.472  0.00  0.00    +0.063 A 
ATOM     11  C   UNL     1      -2.752   2.301  24.783  0.00  0.00    +0.023 A 
ATOM     12  C   UNL     1      -3.303   2.823  25.104  0.00  0.00    +0.034 C 
ATOM     13  C   UNL     1      -4.103   2.624  25.115  0.00  0.00    +0.010 C 
ATOM     14  C   UNL     1      -4.655   3.146  25.437  0.00  0.00    +0.059 C 
ATOM     15  C   UNL     1      -3.963   3.580  25.552  0.00  0.00    +0.005 C 
ATOM     18  C   UNL     1      -5.455   2.946  25.447  0.00  0.00    +0.154 C 
ATOM     19  O   UNL     1      -6.007   3.469  25.769  0.00  0.00    -0.223 OA
ATOM     20  C   UNL     1      -5.704   2.224  25.136  0.00  0.00    +0.033 C 
ATOM     21  C   UNL     1      -5.153   1.702  24.815  0.00  0.00    +0.003 C 
ATOM     22  C   UNL     1      -4.353   1.901  24.804  0.00  0.00    +0.006 C 
ATOM     23  C   UNL     1      -4.602   1.179  24.493  0.00  0.00    +0.000 C 
ATOM     24  S   UNL     1      -1.933   2.346  24.696  0.00  0.00    -0.054 S 
ATOM     25  C   UNL     1      -1.676   1.653  24.332  0.00  0.00    +0.186 A 
ATOM     26  N   UNL     1      -0.895   1.466  24.140  0.00  0.00    -0.148 NA
ATOM     27  C   UNL     1      -0.721   0.748  23.774  0.00  0.00    +0.305 C 
ATOM     28  O   UNL     1      -1.327   0.215  23.601  0.00  0.00    -0.265 OA
ATOM     34  N   UNL     1      -2.336   1.178  24.193  0.00  0.00    -0.227 NA
ENDROOT
BRANCH  27  29
ATOM     29  C   UNL     1       0.060   0.560  23.582  0.00  0.00    +0.201 A 
ATOM     30  C   UNL     1       0.328  -0.163  23.292  0.00  0.00    +0.046 A 
ATOM     31  C   UNL     1       1.143  -0.105  23.177  0.00  0.00    +0.044 A 
ATOM     32  C   UNL     1       1.378   0.653  23.397  0.00  0.00    +0.180 A 
ATOM     33  O   UNL     1       0.709   1.066  23.647  0.00  0.00    -0.446 OA
ENDBRANCH  27  29
BRANCH  14  16
ATOM     16  C   UNL     1      -4.966   3.819  25.798  0.00  0.00    +0.184 C 
ATOM     17  O   UNL     1      -4.459   4.401  26.091  0.00  0.00    -0.220 OA
ENDBRANCH  14  16
BRANCH   9   8
ATOM      8  C   UNL     1      -4.050   0.656  24.171  0.00  0.00    +0.093 C 
BRANCH   8   6
ATOM      5  N   UNL     1      -3.984  -0.769  24.241  0.00  0.00    -0.203 NA
ATOM      6  C   UNL     1      -3.966  -0.035  24.615  0.00  0.00    +0.242 C 
ATOM      7  O   UNL     1      -3.865   0.010  25.432  0.00  0.00    -0.273 OA
BRANCH   5   4
ATOM      4  C   UNL     1      -3.900  -1.460  24.686  0.00  0.00    +0.147 C 
BRANCH   4   3
ATOM      3  C   UNL     1      -3.821  -2.188  24.305  0.00  0.00    +0.166 C 
BRANCH   3   2
ATOM      1  C   UNL     1      -3.061  -3.374  24.547  0.00  0.00    +0.174 C 
ATOM      2  O   UNL     1      -3.684  -2.872  24.747  0.00  0.00    -0.349 OA
ENDBRANCH   3   2
ENDBRANCH   4   3
ENDBRANCH   5   4
ENDBRANCH   8   6
ENDBRANCH   9   8
TORSDOF 7
ENDMDL
MODEL 5
REMARK VINA RESULT:     -11.3      1.027      3.134
REMARK  Name = 
REMARK  7 active torsions:
REMARK  status: ('A' for Active; 'I' for Inactive)
REMARK    1  A    between atoms: O_2  and  C_3
REMARK    2  A    between atoms: C_3  and  C_4
REMARK    3  A    between atoms: C_4  and  N_5
REMARK    4  A    between atoms: C_6  and  C_8
REMARK    5  A    between atoms: C_8  and  C_9
REMARK    6  A    between atoms: C_14  and  C_16
REMARK    7  A    between atoms: C_27  and  C_29
REMARK                            x       y       z     vdW  Elec       q    Type
REMARK                         _______ _______ _______ _____ _____    ______ ____
ROOT
ATOM      9  C   UNL     1      -2.591  -0.132  25.011  0.00  0.00    +0.050 C 
ATOM     10  C   UNL     1      -3.319   0.254  24.962  0.00  0.00    +0.063 A 
ATOM     11  C   UNL     1      -3.991  -0.162  24.727  0.00  0.00    +0.023 A 
ATOM     12  C   UNL     1      -3.936  -0.963  24.542  0.00  0.00    +0.034 C 
ATOM     13  C   UNL     1      -3.208  -1.349  24.590  0.00  0.00    +0.010 C 
ATOM     14  C   UNL     1      -3.153  -2.151  24.404  0.00  0.00    +0.059 C 
ATOM     15  C   UNL     1      -3.958  -2.030  24.275  0.00  0.00    +0.005 C 
ATOM     18  C   UNL     1      -2.425  -2.536  24.453  0.00  0.00    +0.154 C 
ATOM     19  O   UNL     1      -2.370  -3.339  24.267  0.00  0.00    -0.223 OA
ATOM     20  C   UNL     1      -1.753  -2.120  24.688  0.00  0.00    +0.033 C 
ATOM     21  C   UNL     1      -1.808  -1.319  24.874  0.00  0.00    +0.003 C 
ATOM     22  C   UNL     1      -2.536  -0.932  24.825  0.00  0.00    +0.006 C 
ATOM     23  C   UNL     1      -1.864  -0.517  25.060  0.00  0.00    +0.000 C 
ATOM     24  S   UNL     1      -4.629   0.362  24.730  0.00  0.00    -0.054 S 
ATOM     25  C   UNL     1      -4.351   1.101  24.967  0.00  0.00    +0.186 A 
ATOM     26  N   UNL     1      -4.802   1.787  25.046  0.00  0.00    -0.148 NA
ATOM     27  C   UNL     1      -4.447   2.490  25.289  0.00  0.00    +0.305 C 
ATOM     28  O   UNL     1      -3.638   2.508  25.453  0.00  0.00    -0.265 OA
ATOM     34  N   UNL     1      -3.541   1.035  25.111  0.00  0.00    -0.227 NA
ENDROOT
BRANCH  27  29
ATOM     29  C   UNL     1      -4.898   3.176  25.369  0.00  0.00    +0.201 A 
ATOM     30  C   UNL     1      -4.681   3.931  25.121  0.00  0.00    +0.046 A 
ATOM     31  C   UNL     1      -5.295   4.448  25.309  0.00  0.00    +0.044 A 
ATOM     32  C   UNL     1      -5.892   4.012  25.674  0.00  0.00    +0.180 A 
ATOM     33  O   UNL     1      -5.648   3.226  25.711  0.00  0.00    -0.446 OA
ENDBRANCH  27  29
BRANCH  14  16
ATOM     16  C   UNL     1      -3.378  -2.910  24.173  0.00  0.00    +0.184 C 
ATOM     17  O   UNL     1      -4.140  -3.046  23.888  0.00  0.00    -0.220 OA
ENDBRANCH  14  16
BRANCH   9   8
ATOM      8  C   UNL     1      -1.919   0.285  25.246  0.00  0.00    +0.093 C 
BRANCH   8   6
ATOM      5  N   UNL     1      -1.079   1.412  24.988  0.00  0.00    -0.203 NA
ATOM      6  C   UNL     1      -1.534   0.782  24.711  0.00  0.00    +0.242 C 
ATOM      7  O   UNL     1      -1.605   0.649  23.901  0.00  0.00    -0.273 OA
BRANCH   5   4
ATOM      4  C   UNL     1      -0.694   1.909  24.452  0.00  0.00    +0.147 C 
BRANCH   4   3
ATOM      3  C   UNL     1      -0.340   2.605  24.718  0.00  0.00    +0.166 C 
BRANCH   3   2
ATOM      1  C   UNL     1      -0.497   4.025  24.663  0.00  0.00    +0.174 C 
ATOM      2  O   UNL     1      -0.415   3.300  24.278  0.00  0.00    -0.349 OA
ENDBRANCH   3   2
ENDBRANCH   4   3
ENDBRANCH   5   4
ENDBRANCH   8   6
ENDBRANCH   9   8
TORSDOF 7
ENDMDL
MODEL 6
REMARK VINA RESULT:     -11.3      1.669      5.376
REMARK  Name = 
REMARK  7 active torsions:
REMARK  status: ('A' for Active; 'I' for Inactive)
REMARK    1  A    between atoms: O_2  and  C_3
REMARK    2  A    between atoms: C_3  and  C_4
REMARK    3  A    between atoms: C_4  and  N_5
REMARK    4  A    between atoms: C_6  and  C_8
REMARK    5  A    between atoms: C_8  and  C_9
REMARK    6  A    between atoms: C_14  and  C_16
REMARK    7  A    between atoms: C_27  and  C_29
REMARK                            x       y       z     vdW  Elec       q    Type
REMARK                         _______ _______ _______ _____ _____    ______ ____
ROOT
ATOM      9  C   UNL     1      -3.544   1.869  24.227  0.00  0.00    +0.050 C 
ATOM     10  C   UNL     1      -3.866   1.153  24.483  0.00  0.00    +0.063 A 
ATOM     11  C   UNL     1      -4.525   1.152  24.980  0.00  0.00    +0.023 A 
ATOM     12  C   UNL     1      -4.861   1.865  25.221  0.00  0.00    +0.034 C 
ATOM     13  C   UNL     1      -4.539   2.581  24.966  0.00  0.00    +0.010 C 
ATOM     14  C   UNL     1      -4.875   3.294  25.207  0.00  0.00    +0.059 C 
ATOM     15  C   UNL     1      -5.374   2.763  25.593  0.00  0.00    +0.005 C 
ATOM     18  C   UNL     1      -4.552   4.009  24.951  0.00  0.00    +0.154 C 
ATOM     19  O   UNL     1      -4.889   4.724  25.193  0.00  0.00    -0.223 OA
ATOM     20  C   UNL     1      -3.894   4.011  24.455  0.00  0.00    +0.033 C 
ATOM     21  C   UNL     1      -3.558   3.297  24.213  0.00  0.00    +0.003 C 
ATOM     22  C   UNL     1      -3.880   2.582  24.468  0.00  0.00    +0.006 C 
ATOM     23  C   UNL     1      -3.222   2.584  23.972  0.00  0.00    +0.000 C 
ATOM     24  S   UNL     1      -4.720   0.367  25.141  0.00  0.00    -0.054 S 
ATOM     25  C   UNL     1      -4.183  -0.117  24.744  0.00  0.00    +0.186 A 
ATOM     26  N   UNL     1      -4.175  -0.942  24.751  0.00  0.00    -0.148 NA
ATOM     27  C   UNL     1      -3.601  -1.353  24.326  0.00  0.00    +0.305 C 
ATOM     28  O   UNL     1      -3.035  -0.939  23.891  0.00  0.00    -0.265 OA
ATOM     34  N   UNL     1      -3.655   0.369  24.337  0.00  0.00    -0.227 NA
ENDROOT
BRANCH  27  29
ATOM     29  C   UNL     1      -3.592  -2.178  24.333  0.00  0.00    +0.201 A 
ATOM     30  C   UNL     1      -3.062  -2.654  24.748  0.00  0.00    +0.046 A 
ATOM     31  C   UNL     1      -3.255  -3.442  24.598  0.00  0.00    +0.044 A 
ATOM     32  C   UNL     1      -3.905  -3.453  24.090  0.00  0.00    +0.180 A 
ATOM     33  O   UNL     1      -4.114  -2.672  23.926  0.00  0.00    -0.446 OA
ENDBRANCH  27  29
BRANCH  14  16
ATOM     16  C   UNL     1      -5.384   3.823  25.583  0.00  0.00    +0.184 C 
ATOM     17  O   UNL     1      -6.029   3.540  26.013  0.00  0.00    -0.220 OA
ENDBRANCH  14  16
BRANCH   9   8
ATOM      8  C   UNL     1      -2.886   1.870  23.730  0.00  0.00    +0.093 C 
BRANCH   8   6
ATOM      5  N   UNL     1      -1.526   1.465  23.557  0.00  0.00    -0.203 NA
ATOM      6  C   UNL     1      -2.133   1.741  24.043  0.00  0.00    +0.242 C 
ATOM      7  O   UNL     1      -1.987   1.887  24.841  0.00  0.00    -0.273 OA
BRANCH   5   4
ATOM      4  C   UNL     1      -0.773   1.336  23.870  0.00  0.00    +0.147 C 
BRANCH   4   3
ATOM      3  C   UNL     1      -0.173   1.038  23.390  0.00  0.00    +0.166 C 
BRANCH   3   2
ATOM      1  C   UNL     1       0.852   0.071  23.153  0.00  0.00    +0.174 C 
ATOM      2  O   UNL     1       0.301   0.418  23.659  0.00  0.00    -0.349 OA
ENDBRANCH   3   2
ENDBRANCH   4   3
ENDBRANCH   5   4
ENDBRANCH   8   6
ENDBRANCH   9   8
TORSDOF 7
ENDMDL
MODEL 7
REMARK VINA RESULT:     -10.5      1.033      4.759
REMARK  Name = 
REMARK  7 active torsions:
REMARK  status: ('A' for Active; 'I' for Inactive)
REMARK    1  A    between atoms: O_2  and  C_3
REMARK    2  A    between atoms: C_3  and  C_4
REMARK    3  A    between atoms: C_4  and  N_5
REMARK    4  A    between atoms: C_6  and  C_8
REMARK    5  A    between atoms: C_8  and  C_9
REMARK    6  A    between atoms: C_14  and  C_16
REMARK    7  A    between atoms: C_27  and  C_29
REMARK                            x       y       z     vdW  Elec       q    Type
REMARK                         _______ _______ _______ _____ _____    ______ ____
ROOT
ATOM      9  C   UNL     1      -2.582   2.816  25.285  0.00  0.00    +0.050 C 
ATOM     10  C   UNL     1      -2.366   2.084  24.969  0.00  0.00    +0.063 A 
ATOM     11  C   UNL     1      -1.656   2.008  24.556  0.00  0.00    +0.023 A 
ATOM     12  C   UNL     1      -1.163   2.661  24.458  0.00  0.00    +0.034 C 
ATOM     13  C   UNL     1      -1.379   3.392  24.774  0.00  0.00    +0.010 C 
ATOM     14  C   UNL     1      -0.885   4.046  24.676  0.00  0.00    +0.059 C 
ATOM     15  C   UNL     1      -0.445   3.474  24.279  0.00  0.00    +0.005 C 
ATOM     18  C   UNL     1      -1.102   4.777  24.993  0.00  0.00    +0.154 C 
ATOM     19  O   UNL     1      -0.608   5.431  24.895  0.00  0.00    -0.223 OA
ATOM     20  C   UNL     1      -1.812   4.854  25.406  0.00  0.00    +0.033 C 
ATOM     21  C   UNL     1      -2.305   4.200  25.503  0.00  0.00    +0.003 C 
ATOM     22  C   UNL     1      -2.089   3.469  25.187  0.00  0.00    +0.006 C 
ATOM     23  C   UNL     1      -2.799   3.546  25.600  0.00  0.00    +0.000 C 
ATOM     24  S   UNL     1      -1.589   1.223  24.308  0.00  0.00    -0.054 S 
ATOM     25  C   UNL     1      -2.257   0.816  24.568  0.00  0.00    +0.186 A 
ATOM     26  N   UNL     1      -2.418   0.016  24.442  0.00  0.00    -0.148 NA
ATOM     27  C   UNL     1      -3.112  -0.317  24.737  0.00  0.00    +0.305 C 
ATOM     28  O   UNL     1      -3.647   0.149  25.158  0.00  0.00    -0.265 OA
ATOM     34  N   UNL     1      -2.738   1.348  24.977  0.00  0.00    -0.227 NA
ENDROOT
BRANCH  27  29
ATOM     29  C   UNL     1      -3.272  -1.116  24.611  0.00  0.00    +0.201 A 
ATOM     30  C   UNL     1      -3.914  -1.423  24.194  0.00  0.00    +0.046 A 
ATOM     31  C   UNL     1      -3.857  -2.246  24.206  0.00  0.00    +0.044 A 
ATOM     32  C   UNL     1      -3.180  -2.448  24.631  0.00  0.00    +0.180 A 
ATOM     33  O   UNL     1      -2.818  -1.750  24.882  0.00  0.00    -0.446 OA
ENDBRANCH  27  29
BRANCH  14  16
ATOM     16  C   UNL     1      -0.239   4.501  24.441  0.00  0.00    +0.184 C 
ATOM     17  O   UNL     1       0.214   4.268  23.791  0.00  0.00    -0.220 OA
ENDBRANCH  14  16
BRANCH   9   8
ATOM      8  C   UNL     1      -3.292   2.892  25.698  0.00  0.00    +0.093 C 
BRANCH   8   6
ATOM      5  N   UNL     1      -4.709   2.718  25.634  0.00  0.00    -0.203 NA
ATOM      6  C   UNL     1      -4.004   2.964  25.285  0.00  0.00    +0.242 C 
ATOM      7  O   UNL     1      -4.008   3.282  24.525  0.00  0.00    -0.273 OA
BRANCH   5   4
ATOM      4  C   UNL     1      -5.421   2.791  25.221  0.00  0.00    +0.147 C 
BRANCH   4   3
ATOM      3  C   UNL     1      -6.116   2.484  25.542  0.00  0.00    +0.166 C 
BRANCH   3   2
ATOM      1  C   UNL     1      -6.924   1.715  24.649  0.00  0.00    +0.174 C 
ATOM      2  O   UNL     1      -6.401   1.753  25.285  0.00  0.00    -0.349 OA
ENDBRANCH   3   2
ENDBRANCH   4   3
ENDBRANCH   5   4
ENDBRANCH   8   6
ENDBRANCH   9   8
TORSDOF 7
ENDMDL
