MODEL 1
REMARK VINA RESULT:     -14.0      0.000      0.000
REMARK  Name = 
REMARK  4 active torsions:
REMARK  status: ('A' for Active; 'I' for Inactive)
REMARK    1  A    between atoms: N_4  and  C_5
REMARK    2  A    between atoms: C_8  and  C_11
REMARK    3  A    between atoms: N_17  and  C_18
REMARK    4  A    between atoms: C_18  and  C_19
REMARK                            x       y       z     vdW  Elec       q    Type
REMARK                         _______ _______ _______ _____ _____    ______ ____
ROOT
ATOM     11  C   UNL     1      -3.355   1.988  24.965  0.00  0.00    +0.012 A 
ATOM     12  C   UNL     1      -2.863   1.344  24.810  0.00  0.00    +0.041 A 
ATOM     13  C   UNL     1      -1.981   1.141  24.651  0.00  0.00    +0.054 C 
ATOM     14  C   UNL     1      -1.349   1.441  24.591  0.00  0.00    +0.011 C 
ATOM     15  C   UNL     1      -1.667   0.692  24.547  0.00  0.00    +0.039 C 
ATOM     16  C   UNL     1      -1.857  -0.273  24.457  0.00  0.00    +0.074 C 
ATOM     17  N   UNL     1      -2.683  -0.266  24.584  0.00  0.00    -0.269 NA
ATOM     26  C   UNL     1      -2.149   0.205  24.560  0.00  0.00    +0.078 C 
ATOM     27  C   UNL     1      -2.591   0.894  24.713  0.00  0.00    +0.110 C 
ATOM     28  N   UNL     1      -3.181   0.584  24.765  0.00  0.00    -0.299 N 
ATOM     29  C   UNL     1      -3.991   0.468  24.874  0.00  0.00    +0.261 A 
ATOM     30  O   UNL     1      -4.309  -0.292  24.829  0.00  0.00    -0.267 OA
ATOM     31  C   UNL     1      -4.482   1.112  25.029  0.00  0.00    +0.061 A 
ATOM     32  C   UNL     1      -4.164   1.872  25.074  0.00  0.00    +0.006 A 
ENDROOT
BRANCH  11   8
ATOM      5  C   UNL     1      -2.401   4.268  25.101  0.00  0.00    +0.073 A 
ATOM      6  C   UNL     1      -2.694   3.986  24.384  0.00  0.00    +0.017 A 
ATOM      7  C   UNL     1      -3.012   3.226  24.339  0.00  0.00    +0.001 A 
ATOM      8  C   UNL     1      -3.037   2.748  25.010  0.00  0.00    +0.001 A 
ATOM      9  C   UNL     1      -2.743   3.030  25.728  0.00  0.00    +0.001 A 
ATOM     10  C   UNL     1      -2.425   3.790  25.773  0.00  0.00    +0.017 A 
BRANCH   5   4
ATOM      1  C   UNL     1      -0.968   5.912  25.017  0.00  0.00    +0.097 C 
ATOM      2  C   UNL     1      -1.286   5.153  24.972  0.00  0.00    +0.246 C 
ATOM      3  O   UNL     1      -0.808   4.518  24.752  0.00  0.00    -0.273 OA
ATOM      4  N   UNL     1      -2.083   5.027  25.147  0.00  0.00    -0.179 NA
ENDBRANCH   5   4
ENDBRANCH  11   8
BRANCH  17  18
ATOM     18  C   UNL     1      -3.451  -0.554  24.665  0.00  0.00    +0.099 C 
BRANCH  18  19
ATOM     19  C   UNL     1      -3.603  -1.358  24.562  0.00  0.00    -0.006 A 
ATOM     20  C   UNL     1      -3.975  -1.624  23.875  0.00  0.00    -0.001 A 
ATOM     21  C   UNL     1      -4.126  -2.429  23.772  0.00  0.00    +0.029 A 
ATOM     22  C   UNL     1      -3.905  -2.967  24.356  0.00  0.00    +0.140 A 
ATOM     23  F   UNL     1      -4.057  -3.772  24.253  0.00  0.00    -0.204 F 
ATOM     24  C   UNL     1      -3.534  -2.703  25.043  0.00  0.00    +0.029 A 
ATOM     25  C   UNL     1      -3.382  -1.898  25.146  0.00  0.00    -0.001 A 
ENDBRANCH  18  19
ENDBRANCH  17  18
TORSDOF 4
ENDMDL
MODEL 2
REMARK VINA RESULT:     -13.7      2.163      5.494
REMARK  Name = 
REMARK  4 active torsions:
REMARK  status: ('A' for Active; 'I' for Inactive)
REMARK    1  A    between atoms: N_4  and  C_5
REMARK    2  A    between atoms: C_8  and  C_11
REMARK    3  A    between atoms: N_17  and  C_18
REMARK    4  A    between atoms: C_18  and  C_19
REMARK                            x       y       z     vdW  Elec       q    Type
REMARK                         _______ _______ _______ _____ _____    ______ ____
ROOT
ATOM     11  C   UNL     1      -1.932   0.324  25.195  0.00  0.00    +0.012 A 
ATOM     12  C   UNL     1      -2.298   0.971  24.836  0.00  0.00    +0.041 A 
ATOM     13  C   UNL     1      -3.008   1.177  24.289  0.00  0.00    +0.054 C 
ATOM     14  C   UNL     1      -3.540   0.879  23.942  0.00  0.00    +0.011 C 
ATOM     15  C   UNL     1      -3.240   1.627  24.057  0.00  0.00    +0.039 C 
ATOM     16  C   UNL     1      -3.032   2.593  24.073  0.00  0.00    +0.074 C 
ATOM     17  N   UNL     1      -2.358   2.583  24.567  0.00  0.00    -0.269 NA
ATOM     26  C   UNL     1      -2.819   2.113  24.296  0.00  0.00    +0.078 C 
ATOM     27  C   UNL     1      -2.496   1.422  24.629  0.00  0.00    +0.110 C 
ATOM     28  N   UNL     1      -1.997   1.731  24.950  0.00  0.00    -0.299 N 
ATOM     29  C   UNL     1      -1.330   1.844  25.422  0.00  0.00    +0.261 A 
ATOM     30  O   UNL     1      -1.029   2.603  25.536  0.00  0.00    -0.267 OA
ATOM     31  C   UNL     1      -0.964   1.197  25.780  0.00  0.00    +0.061 A 
ATOM     32  C   UNL     1      -1.265   0.437  25.666  0.00  0.00    +0.006 A 
ENDROOT
BRANCH  11   8
ATOM      5  C   UNL     1      -2.836  -1.955  24.854  0.00  0.00    +0.073 A 
ATOM      6  C   UNL     1      -3.147  -1.472  25.446  0.00  0.00    +0.017 A 
ATOM      7  C   UNL     1      -2.846  -0.713  25.560  0.00  0.00    +0.001 A 
ATOM      8  C   UNL     1      -2.234  -0.435  25.081  0.00  0.00    +0.001 A 
ATOM      9  C   UNL     1      -1.923  -0.918  24.489  0.00  0.00    +0.001 A 
ATOM     10  C   UNL     1      -2.224  -1.678  24.375  0.00  0.00    +0.017 A 
BRANCH   5   4
ATOM      1  C   UNL     1      -4.077  -3.592  24.118  0.00  0.00    +0.097 C 
ATOM      2  C   UNL     1      -3.776  -2.833  24.232  0.00  0.00    +0.246 C 
ATOM      3  O   UNL     1      -4.113  -2.192  23.837  0.00  0.00    -0.273 OA
ATOM      4  N   UNL     1      -3.137  -2.714  24.740  0.00  0.00    -0.179 NA
ENDBRANCH   5   4
ENDBRANCH  11   8
BRANCH  17  18
ATOM     18  C   UNL     1      -1.714   2.869  24.997  0.00  0.00    +0.099 C 
BRANCH  18  19
ATOM     19  C   UNL     1      -1.564   3.679  25.023  0.00  0.00    -0.006 A 
ATOM     20  C   UNL     1      -2.063   4.179  25.449  0.00  0.00    -0.001 A 
ATOM     21  C   UNL     1      -1.912   4.990  25.474  0.00  0.00    +0.029 A 
ATOM     22  C   UNL     1      -1.261   5.301  25.074  0.00  0.00    +0.140 A 
ATOM     23  F   UNL     1      -1.110   6.112  25.099  0.00  0.00    -0.204 F 
ATOM     24  C   UNL     1      -0.761   4.802  24.648  0.00  0.00    +0.029 A 
ATOM     25  C   UNL     1      -0.912   3.991  24.622  0.00  0.00    -0.001 A 
ENDBRANCH  18  19
ENDBRANCH  17  18
TORSDOF 4
ENDMDL
MODEL 3
REMARK VINA RESULT:     -10.6      2.657      4.072
REMARK  Name = 
REMARK  4 active torsions:
REMARK  status: ('A' for Active; 'I' for Inactive)
REMARK    1  A    between atoms: N_4  and  C_5
REMARK    2  A    between atoms: C_8  and  C_11
REMARK    3  A    between atoms: N_17  and  C_18
REMARK    4  A    between atoms: C_18  and  C_19
REMARK                            x       y       z     vdW  Elec       q    Type
REMARK                         _______ _______ _______ _____ _____    ______ ____
ROOT
ATOM     11  C   UNL     1      -1.207   0.714  24.454  0.00  0.00    +0.012 A 
ATOM     12  C   UNL     1      -1.779   1.144  24.044  0.00  0.00    +0.041 A 
ATOM     13  C   UNL     1      -1.895   1.613  23.262  0.00  0.00    +0.054 C 
ATOM     14  C   UNL     1      -1.553   1.808  22.681  0.00  0.00    +0.011 C 
ATOM     15  C   UNL     1      -2.296   1.899  23.001  0.00  0.00    +0.039 C 
ATOM     16  C   UNL     1      -3.235   2.118  23.218  0.00  0.00    +0.074 C 
ATOM     17  N   UNL     1      -3.301   1.736  23.958  0.00  0.00    -0.269 NA
ATOM     26  C   UNL     1      -2.804   1.832  23.457  0.00  0.00    +0.078 C 
ATOM     27  C   UNL     1      -2.184   1.411  23.821  0.00  0.00    +0.110 C 
ATOM     28  N   UNL     1      -2.533   1.238  24.365  0.00  0.00    -0.299 N 
ATOM     29  C   UNL     1      -2.715   0.903  25.097  0.00  0.00    +0.261 A 
ATOM     30  O   UNL     1      -3.469   0.998  25.418  0.00  0.00    -0.267 OA
ATOM     31  C   UNL     1      -2.143   0.474  25.507  0.00  0.00    +0.061 A 
ATOM     32  C   UNL     1      -1.389   0.379  25.186  0.00  0.00    +0.006 A 
ENDROOT
BRANCH  11   8
ATOM      5  C   UNL     1       1.056   0.430  23.490  0.00  0.00    +0.073 A 
ATOM      6  C   UNL     1       0.855   1.134  23.870  0.00  0.00    +0.017 A 
ATOM      7  C   UNL     1       0.101   1.229  24.192  0.00  0.00    +0.001 A 
ATOM      8  C   UNL     1      -0.453   0.619  24.133  0.00  0.00    +0.001 A 
ATOM      9  C   UNL     1      -0.252  -0.084  23.752  0.00  0.00    +0.001 A 
ATOM     10  C   UNL     1       0.502  -0.179  23.431  0.00  0.00    +0.017 A 
BRANCH   5   4
ATOM      1  C   UNL     1       2.650  -0.036  22.076  0.00  0.00    +0.097 C 
ATOM      2  C   UNL     1       1.897   0.058  22.397  0.00  0.00    +0.246 C 
ATOM      3  O   UNL     1       1.231  -0.125  21.947  0.00  0.00    -0.273 OA
ATOM      4  N   UNL     1       1.809   0.336  23.169  0.00  0.00    -0.179 NA
ENDBRANCH   5   4
ENDBRANCH  11   8
BRANCH  17  18
ATOM     18  C   UNL     1      -3.644   1.475  24.662  0.00  0.00    +0.099 C 
BRANCH  18  19
ATOM     19  C   UNL     1      -4.425   1.674  24.838  0.00  0.00    -0.006 A 
ATOM     20  C   UNL     1      -4.601   2.416  25.152  0.00  0.00    -0.001 A 
ATOM     21  C   UNL     1      -5.382   2.615  25.329  0.00  0.00    +0.029 A 
ATOM     22  C   UNL     1      -5.987   2.071  25.191  0.00  0.00    +0.140 A 
ATOM     23  F   UNL     1      -6.768   2.270  25.367  0.00  0.00    -0.204 F 
ATOM     24  C   UNL     1      -5.812   1.329  24.877  0.00  0.00    +0.029 A 
ATOM     25  C   UNL     1      -5.030   1.130  24.701  0.00  0.00    -0.001 A 
ENDBRANCH  18  19
ENDBRANCH  17  18
TORSDOF 4
ENDMDL
MODEL 4
REMARK VINA RESULT:     -10.1      1.856      2.575
REMARK  Name = 
REMARK  4 active torsions:
REMARK  status: ('A' for Active; 'I' for Inactive)
REMARK    1  A    between atoms: N_4  and  C_5
REMARK    2  A    between atoms: C_8  and  C_11
REMARK    3  A    between atoms: N_17  and  C_18
REMARK    4  A    between atoms: C_18  and  C_19
REMARK                            x       y       z     vdW  Elec       q    Type
REMARK                         _______ _______ _______ _____ _____    ______ ____
ROOT
ATOM     11  C   UNL     1      -2.945   1.904  24.673  0.00  0.00    +0.012 A 
ATOM     12  C   UNL     1      -3.202   1.135  24.826  0.00  0.00    +0.041 A 
ATOM     13  C   UNL     1      -3.953   0.673  25.085  0.00  0.00    +0.054 C 
ATOM     14  C   UNL     1      -4.625   0.769  25.263  0.00  0.00    +0.011 C 
ATOM     15  C   UNL     1      -4.107   0.146  25.183  0.00  0.00    +0.039 C 
ATOM     16  C   UNL     1      -3.640  -0.724  25.144  0.00  0.00    +0.074 C 
ATOM     17  N   UNL     1      -2.882  -0.466  24.904  0.00  0.00    -0.269 NA
ATOM     26  C   UNL     1      -3.516  -0.176  25.051  0.00  0.00    +0.078 C 
ATOM     27  C   UNL     1      -3.317   0.621  24.912  0.00  0.00    +0.110 C 
ATOM     28  N   UNL     1      -2.680   0.502  24.746  0.00  0.00    -0.299 N 
ATOM     29  C   UNL     1      -1.900   0.636  24.513  0.00  0.00    +0.261 A 
ATOM     30  O   UNL     1      -1.378   0.002  24.433  0.00  0.00    -0.267 OA
ATOM     31  C   UNL     1      -1.643   1.405  24.360  0.00  0.00    +0.061 A 
ATOM     32  C   UNL     1      -2.165   2.039  24.440  0.00  0.00    +0.006 A 
ENDROOT
BRANCH  11   8
ATOM      5  C   UNL     1      -4.511   3.805  24.913  0.00  0.00    +0.073 A 
ATOM      6  C   UNL     1      -4.477   3.387  24.203  0.00  0.00    +0.017 A 
ATOM      7  C   UNL     1      -3.954   2.753  24.123  0.00  0.00    +0.001 A 
ATOM      8  C   UNL     1      -3.467   2.538  24.753  0.00  0.00    +0.001 A 
ATOM      9  C   UNL     1      -3.502   2.956  25.463  0.00  0.00    +0.001 A 
ATOM     10  C   UNL     1      -4.024   3.590  25.543  0.00  0.00    +0.017 A 
BRANCH   5   4
ATOM      1  C   UNL     1      -6.238   4.989  25.529  0.00  0.00    +0.097 C 
ATOM      2  C   UNL     1      -5.716   4.356  25.449  0.00  0.00    +0.246 C 
ATOM      3  O   UNL     1      -5.876   3.640  25.825  0.00  0.00    -0.273 OA
ATOM      4  N   UNL     1      -5.033   4.438  24.993  0.00  0.00    -0.179 NA
ENDBRANCH   5   4
ENDBRANCH  11   8
BRANCH  17  18
ATOM     18  C   UNL     1      -2.088  -0.510  24.686  0.00  0.00    +0.099 C 
BRANCH  18  19
ATOM     19  C   UNL     1      -1.673  -1.217  24.779  0.00  0.00    -0.006 A 
ATOM     20  C   UNL     1      -1.846  -1.863  24.297  0.00  0.00    -0.001 A 
ATOM     21  C   UNL     1      -1.430  -2.571  24.391  0.00  0.00    +0.029 A 
ATOM     22  C   UNL     1      -0.843  -2.631  24.966  0.00  0.00    +0.140 A 
ATOM     23  F   UNL     1      -0.428  -3.338  25.060  0.00  0.00    -0.204 F 
ATOM     24  C   UNL     1      -0.670  -1.985  25.449  0.00  0.00    +0.029 A 
ATOM     25  C   UNL     1      -1.085  -1.277  25.355  0.00  0.00    -0.001 A 
ENDBRANCH  18  19
ENDBRANCH  17  18
TORSDOF 4
ENDMDL
