MODEL 1
REMARK VINA RESULT:     -10.7      0.000      0.000
REMARK  Name = 
REMARK  9 active torsions:
REMARK  status: ('A' for Active; 'I' for Inactive)
REMARK    1  A    between atoms: N_2  and  C_4
REMARK    2  A    between atoms: C_4  and  C_5
REMARK    3  A    between atoms: C_7  and  C_8
REMARK    4  A    between atoms: C_8  and  C_9
REMARK    5  A    between atoms: C_9  and  N_13
REMARK    6  A    between atoms: N_13  and  C_14
REMARK    7  A    between atoms: C_14  and  C_15
REMARK    8  A    between atoms: C_18  and  O_19
REMARK    9  A    between atoms: O_19  and  C_20
REMARK                            x       y       z     vdW  Elec       q    Type
REMARK                         _______ _______ _______ _____ _____    ______ ____
ROOT
ATOM      9  C   UNL     1      -4.752   2.085  24.919  0.00  0.00    +0.120 C 
ATOM     10  C   UNL     1      -5.336   1.790  25.423  0.00  0.00    +0.161 C 
ATOM     11  O   UNL     1      -5.751   2.501  25.356  0.00  0.00    -0.351 OA
ATOM     12  C   UNL     1      -5.167   2.795  24.853  0.00  0.00    +0.161 C 
ENDROOT
BRANCH   9   8
ATOM      8  C   UNL     1      -4.168   2.379  24.416  0.00  0.00    +0.070 C 
BRANCH   8   7
ATOM      5  C   UNL     1      -2.674   3.686  25.200  0.00  0.00    +0.170 A 
ATOM      6  C   UNL     1      -2.967   2.928  25.063  0.00  0.00    +0.055 A 
ATOM      7  C   UNL     1      -3.685   3.000  24.663  0.00  0.00    +0.102 A 
ATOM     26  N   UNL     1      -3.836   3.803  24.553  0.00  0.00    -0.082 NA
ATOM     27  O   UNL     1      -3.211   4.228  24.885  0.00  0.00    -0.357 OA
BRANCH   5   4
ATOM      4  C   UNL     1      -1.968   3.871  25.585  0.00  0.00    +0.141 C 
BRANCH   4   2
ATOM      1  C   UNL     1      -0.771   3.732  24.817  0.00  0.00    +0.090 C 
ATOM      2  N   UNL     1      -1.346   4.212  25.164  0.00  0.00    -0.264 NA
ATOM      3  C   UNL     1      -1.297   5.032  25.090  0.00  0.00    +0.090 C 
ENDBRANCH   4   2
ENDBRANCH   5   4
ENDBRANCH   8   7
ENDBRANCH   9   8
BRANCH   9  13
ATOM     13  N   UNL     1      -4.337   1.375  24.986  0.00  0.00    -0.211 NA
BRANCH  13  14
ATOM     14  C   UNL     1      -4.735   0.656  24.901  0.00  0.00    +0.115 C 
BRANCH  14  15
ATOM     15  C   UNL     1      -4.308  -0.049  24.867  0.00  0.00    -0.005 A 
ATOM     16  C   UNL     1      -4.219  -0.443  24.147  0.00  0.00    +0.000 A 
ATOM     17  C   UNL     1      -3.792  -1.148  24.112  0.00  0.00    +0.037 A 
ATOM     18  C   UNL     1      -3.454  -1.459  24.798  0.00  0.00    +0.147 A 
ATOM     24  C   UNL     1      -3.543  -1.065  25.518  0.00  0.00    +0.037 A 
ATOM     25  C   UNL     1      -3.970  -0.360  25.551  0.00  0.00    +0.000 A 
BRANCH  18  19
ATOM     19  O   UNL     1      -3.027  -2.165  24.763  0.00  0.00    -0.404 OA
BRANCH  19  20
ATOM     20  C   UNL     1      -3.424  -2.884  24.680  0.00  0.00    +0.575 C 
ATOM     21  F   UNL     1      -3.821  -3.601  24.595  0.00  0.00    -0.133 F 
ATOM     22  F   UNL     1      -3.311  -2.850  23.863  0.00  0.00    -0.133 F 
ATOM     23  F   UNL     1      -3.537  -2.917  25.497  0.00  0.00    -0.133 F 
ENDBRANCH  19  20
ENDBRANCH  18  19
ENDBRANCH  14  15
ENDBRANCH  13  14
ENDBRANCH   9  13
TORSDOF 9
ENDMDL
MODEL 2
REMARK VINA RESULT:     -10.3      3.060      5.309
REMARK  Name = 
REMARK  9 active torsions:
REMARK  status: ('A' for Active; 'I' for Inactive)
REMARK    1  A    between atoms: N_2  and  C_4
REMARK    2  A    between atoms: C_4  and  C_5
REMARK    3  A    between atoms: C_7  and  C_8
REMARK    4  A    between atoms: C_8  and  C_9
REMARK    5  A    between atoms: C_9  and  N_13
REMARK    6  A    between atoms: N_13  and  C_14
REMARK    7  A    between atoms: C_14  and  C_15
REMARK    8  A    between atoms: C_18  and  O_19
REMARK    9  A    between atoms: O_19  and  C_20
REMARK                            x       y       z     vdW  Elec       q    Type
REMARK                         _______ _______ _______ _____ _____    ______ ____
ROOT
ATOM      9  C   UNL     1      -5.011   1.906  25.030  0.00  0.00    +0.120 C 
ATOM     10  C   UNL     1      -5.383   2.390  25.586  0.00  0.00    +0.161 C 
ATOM     11  O   UNL     1      -6.102   2.019  25.426  0.00  0.00    -0.351 OA
ATOM     12  C   UNL     1      -5.731   1.535  24.872  0.00  0.00    +0.161 C 
ENDROOT
BRANCH   9   8
ATOM      8  C   UNL     1      -4.639   1.422  24.475  0.00  0.00    +0.070 C 
BRANCH   8   7
ATOM      5  C   UNL     1      -3.797  -0.531  24.659  0.00  0.00    +0.170 A 
ATOM      6  C   UNL     1      -3.921   0.163  24.230  0.00  0.00    +0.055 A 
ATOM      7  C   UNL     1      -4.383   0.668  24.690  0.00  0.00    +0.102 A 
ATOM     26  N   UNL     1      -4.545   0.287  25.404  0.00  0.00    -0.082 NA
ATOM     27  O   UNL     1      -4.183  -0.454  25.385  0.00  0.00    -0.357 OA
BRANCH   5   4
ATOM      4  C   UNL     1      -3.364  -1.186  24.408  0.00  0.00    +0.141 C 
BRANCH   4   2
ATOM      1  C   UNL     1      -4.208  -2.216  23.891  0.00  0.00    +0.090 C 
ATOM      2  N   UNL     1      -3.687  -1.943  24.469  0.00  0.00    -0.264 NA
ATOM      3  C   UNL     1      -3.488  -2.426  25.107  0.00  0.00    +0.090 C 
ENDBRANCH   4   2
ENDBRANCH   5   4
ENDBRANCH   8   7
ENDBRANCH   9   8
BRANCH   9  13
ATOM     13  N   UNL     1      -4.291   2.277  25.190  0.00  0.00    -0.211 NA
BRANCH  13  14
ATOM     14  C   UNL     1      -4.221   3.094  25.100  0.00  0.00    +0.115 C 
BRANCH  14  15
ATOM     15  C   UNL     1      -3.492   3.461  25.222  0.00  0.00    -0.005 A 
ATOM     16  C   UNL     1      -2.940   3.493  24.609  0.00  0.00    +0.000 A 
ATOM     17  C   UNL     1      -2.210   3.860  24.729  0.00  0.00    +0.037 A 
ATOM     18  C   UNL     1      -2.033   4.193  25.463  0.00  0.00    +0.147 A 
ATOM     24  C   UNL     1      -2.585   4.160  26.076  0.00  0.00    +0.037 A 
ATOM     25  C   UNL     1      -3.314   3.794  25.954  0.00  0.00    +0.000 A 
BRANCH  18  19
ATOM     19  O   UNL     1      -1.303   4.559  25.584  0.00  0.00    -0.404 OA
BRANCH  19  20
ATOM     20  C   UNL     1      -1.029   5.121  25.045  0.00  0.00    +0.575 C 
ATOM     21  F   UNL     1      -0.757   5.683  24.508  0.00  0.00    -0.133 F 
ATOM     22  F   UNL     1      -1.502   5.694  25.405  0.00  0.00    -0.133 F 
ATOM     23  F   UNL     1      -0.557   4.548  24.687  0.00  0.00    -0.133 F 
ENDBRANCH  19  20
ENDBRANCH  18  19
ENDBRANCH  14  15
ENDBRANCH  13  14
ENDBRANCH   9  13
TORSDOF 9
ENDMDL
MODEL 3
REMARK VINA RESULT:      -9.7      2.945      4.687
REMARK  Name = 
REMARK  9 active torsions:
REMARK  status: ('A' for Active; 'I' for Inactive)
REMARK    1  A    between atoms: N_2  and  C_4
REMARK    2  A    between atoms: C_4  and  C_5
REMARK    3  A    between atoms: C_7  and  C_8
REMARK    4  A    between atoms: C_8  and  C_9
REMARK    5  A    between atoms: C_9  and  N_13
REMARK    6  A    between atoms: N_13  and  C_14
REMARK    7  A    between atoms: C_14  and  C_15
REMARK    8  A    between atoms: C_18  and  O_19
REMARK    9  A    between atoms: O_19  and  C_20
REMARK                            x       y       z     vdW  Elec       q    Type
REMARK                         _______ _______ _______ _____ _____    ______ ____
ROOT
ATOM      9  C   UNL     1      -3.708  -1.298  24.577  0.00  0.00    +0.120 C 
ATOM     10  C   UNL     1      -4.302  -1.305  24.004  0.00  0.00    +0.161 C 
ATOM     11  O   UNL     1      -4.245  -2.127  23.957  0.00  0.00    -0.351 OA
ATOM     12  C   UNL     1      -3.652  -2.119  24.529  0.00  0.00    +0.161 C 
ENDROOT
BRANCH   9   8
ATOM      8  C   UNL     1      -3.115  -1.290  25.150  0.00  0.00    +0.070 C 
BRANCH   8   7
ATOM      5  C   UNL     1      -1.033  -1.046  24.746  0.00  0.00    +0.170 A 
ATOM      6  C   UNL     1      -1.743  -0.770  25.063  0.00  0.00    +0.055 A 
ATOM      7  C   UNL     1      -2.323  -1.340  24.925  0.00  0.00    +0.102 A 
ATOM     26  N   UNL     1      -1.972  -1.968  24.523  0.00  0.00    -0.082 NA
ATOM     27  O   UNL     1      -1.175  -1.787  24.412  0.00  0.00    -0.357 OA
BRANCH   5   4
ATOM      4  C   UNL     1      -0.309  -0.651  24.760  0.00  0.00    +0.141 C 
BRANCH   4   2
ATOM      1  C   UNL     1       0.289  -0.404  23.486  0.00  0.00    +0.090 C 
ATOM      2  N   UNL     1      -0.112  -0.129  24.152  0.00  0.00    -0.264 NA
ATOM      3  C   UNL     1      -0.316   0.669  24.211  0.00  0.00    +0.090 C 
ENDBRANCH   4   2
ENDBRANCH   5   4
ENDBRANCH   8   7
ENDBRANCH   9   8
BRANCH   9  13
ATOM     13  N   UNL     1      -3.764  -0.476  24.624  0.00  0.00    -0.211 NA
BRANCH  13  14
ATOM     14  C   UNL     1      -4.498  -0.108  24.543  0.00  0.00    +0.115 C 
BRANCH  14  15
ATOM     15  C   UNL     1      -4.568   0.704  24.670  0.00  0.00    -0.005 A 
ATOM     16  C   UNL     1      -5.072   0.987  25.260  0.00  0.00    +0.000 A 
ATOM     17  C   UNL     1      -5.142   1.799  25.388  0.00  0.00    +0.037 A 
ATOM     18  C   UNL     1      -4.709   2.328  24.925  0.00  0.00    +0.147 A 
ATOM     24  C   UNL     1      -4.206   2.045  24.335  0.00  0.00    +0.037 A 
ATOM     25  C   UNL     1      -4.136   1.233  24.209  0.00  0.00    +0.000 A 
BRANCH  18  19
ATOM     19  O   UNL     1      -4.780   3.141  25.053  0.00  0.00    -0.404 OA
BRANCH  19  20
ATOM     20  C   UNL     1      -4.253   3.526  25.558  0.00  0.00    +0.575 C 
ATOM     21  F   UNL     1      -3.728   3.911  26.063  0.00  0.00    -0.133 F 
ATOM     22  F   UNL     1      -4.732   3.334  26.202  0.00  0.00    -0.133 F 
ATOM     23  F   UNL     1      -3.775   3.718  24.913  0.00  0.00    -0.133 F 
ENDBRANCH  19  20
ENDBRANCH  18  19
ENDBRANCH  14  15
ENDBRANCH  13  14
ENDBRANCH   9  13
TORSDOF 9
ENDMDL
MODEL 4
REMARK VINA RESULT:      -9.6      1.611      2.729
REMARK  Name = 
REMARK  9 active torsions:
REMARK  status: ('A' for Active; 'I' for Inactive)
REMARK    1  A    between atoms: N_2  and  C_4
REMARK    2  A    between atoms: C_4  and  C_5
REMARK    3  A    between atoms: C_7  and  C_8
REMARK    4  A    between atoms: C_8  and  C_9
REMARK    5  A    between atoms: C_9  and  N_13
REMARK    6  A    between atoms: N_13  and  C_14
REMARK    7  A    between atoms: C_14  and  C_15
REMARK    8  A    between atoms: C_18  and  O_19
REMARK    9  A    between atoms: O_19  and  C_20
REMARK                            x       y       z     vdW  Elec       q    Type
REMARK                         _______ _______ _______ _____ _____    ______ ____
ROOT
ATOM      9  C   UNL     1      -1.223   1.366  25.104  0.00  0.00    +0.120 C 
ATOM     10  C   UNL     1      -0.805   1.030  25.732  0.00  0.00    +0.161 C 
ATOM     11  O   UNL     1      -0.257   1.646  25.696  0.00  0.00    -0.351 OA
ATOM     12  C   UNL     1      -0.674   1.982  25.069  0.00  0.00    +0.161 C 
ENDROOT
BRANCH   9   8
ATOM      8  C   UNL     1      -1.640   1.702  24.477  0.00  0.00    +0.070 C 
BRANCH   8   7
ATOM      5  C   UNL     1      -3.321   3.014  24.584  0.00  0.00    +0.170 A 
ATOM      6  C   UNL     1      -2.951   2.340  24.286  0.00  0.00    +0.055 A 
ATOM      7  C   UNL     1      -2.199   2.291  24.622  0.00  0.00    +0.102 A 
ATOM     26  N   UNL     1      -2.104   2.935  25.128  0.00  0.00    -0.082 NA
ATOM     27  O   UNL     1      -2.797   3.382  25.105  0.00  0.00    -0.357 OA
BRANCH   5   4
ATOM      4  C   UNL     1      -4.080   3.275  24.396  0.00  0.00    +0.141 C 
BRANCH   4   2
ATOM      1  C   UNL     1      -5.141   2.391  24.758  0.00  0.00    +0.090 C 
ATOM      2  N   UNL     1      -4.715   3.086  24.886  0.00  0.00    -0.264 NA
ATOM      3  C   UNL     1      -4.924   3.591  25.504  0.00  0.00    +0.090 C 
ENDBRANCH   4   2
ENDBRANCH   5   4
ENDBRANCH   8   7
ENDBRANCH   9   8
BRANCH   9  13
ATOM     13  N   UNL     1      -1.771   0.750  25.140  0.00  0.00    -0.211 NA
BRANCH  13  14
ATOM     14  C   UNL     1      -1.517  -0.017  25.304  0.00  0.00    +0.115 C 
BRANCH  14  15
ATOM     15  C   UNL     1      -2.037  -0.652  25.213  0.00  0.00    -0.005 A 
ATOM     16  C   UNL     1      -1.883  -1.232  24.647  0.00  0.00    +0.000 A 
ATOM     17  C   UNL     1      -2.403  -1.867  24.555  0.00  0.00    +0.037 A 
ATOM     18  C   UNL     1      -3.076  -1.920  25.030  0.00  0.00    +0.147 A 
ATOM     24  C   UNL     1      -3.229  -1.339  25.595  0.00  0.00    +0.037 A 
ATOM     25  C   UNL     1      -2.709  -0.705  25.686  0.00  0.00    +0.000 A 
BRANCH  18  19
ATOM     19  O   UNL     1      -3.596  -2.555  24.938  0.00  0.00    -0.404 OA
BRANCH  19  20
ATOM     20  C   UNL     1      -4.006  -2.653  24.228  0.00  0.00    +0.575 C 
ATOM     21  F   UNL     1      -4.415  -2.751  23.520  0.00  0.00    -0.133 F 
ATOM     22  F   UNL     1      -4.496  -2.019  24.424  0.00  0.00    -0.133 F 
ATOM     23  F   UNL     1      -3.515  -3.287  24.033  0.00  0.00    -0.133 F 
ENDBRANCH  19  20
ENDBRANCH  18  19
ENDBRANCH  14  15
ENDBRANCH  13  14
ENDBRANCH   9  13
TORSDOF 9
ENDMDL
MODEL 5
REMARK VINA RESULT:      -9.4      2.748      4.863
REMARK  Name = 
REMARK  9 active torsions:
REMARK  status: ('A' for Active; 'I' for Inactive)
REMARK    1  A    between atoms: N_2  and  C_4
REMARK    2  A    between atoms: C_4  and  C_5
REMARK    3  A    between atoms: C_7  and  C_8
REMARK    4  A    between atoms: C_8  and  C_9
REMARK    5  A    between atoms: C_9  and  N_13
REMARK    6  A    between atoms: N_13  and  C_14
REMARK    7  A    between atoms: C_14  and  C_15
REMARK    8  A    between atoms: C_18  and  O_19
REMARK    9  A    between atoms: O_19  and  C_20
REMARK                            x       y       z     vdW  Elec       q    Type
REMARK                         _______ _______ _______ _____ _____    ______ ____
ROOT
ATOM      9  C   UNL     1      -0.936   2.342  24.803  0.00  0.00    +0.120 C 
ATOM     10  C   UNL     1      -0.941   2.920  24.213  0.00  0.00    +0.161 C 
ATOM     11  O   UNL     1      -0.117   2.906  24.193  0.00  0.00    -0.351 OA
ATOM     12  C   UNL     1      -0.112   2.328  24.781  0.00  0.00    +0.161 C 
ENDROOT
BRANCH   9   8
ATOM      8  C   UNL     1      -0.931   1.764  25.391  0.00  0.00    +0.070 C 
BRANCH   8   7
ATOM      5  C   UNL     1      -0.989  -0.362  25.216  0.00  0.00    +0.170 A 
ATOM      6  C   UNL     1      -1.168   0.332  25.624  0.00  0.00    +0.055 A 
ATOM      7  C   UNL     1      -0.875   0.967  25.187  0.00  0.00    +0.102 A 
ATOM     26  N   UNL     1      -0.516   0.666  24.508  0.00  0.00    -0.082 NA
ATOM     27  O   UNL     1      -0.586  -0.156  24.527  0.00  0.00    -0.357 OA
BRANCH   5   4
ATOM      4  C   UNL     1      -1.180  -1.128  25.455  0.00  0.00    +0.141 C 
BRANCH   4   2
ATOM      1  C   UNL     1      -1.484  -2.128  24.481  0.00  0.00    +0.090 C 
ATOM      2  N   UNL     1      -1.735  -1.567  25.032  0.00  0.00    -0.264 NA
ATOM      3  C   UNL     1      -2.542  -1.445  25.158  0.00  0.00    +0.090 C 
ENDBRANCH   4   2
ENDBRANCH   5   4
ENDBRANCH   8   7
ENDBRANCH   9   8
BRANCH   9  13
ATOM     13  N   UNL     1      -1.761   2.357  24.823  0.00  0.00    -0.211 NA
BRANCH  13  14
ATOM     14  C   UNL     1      -2.161   3.077  24.788  0.00  0.00    +0.115 C 
BRANCH  14  15
ATOM     15  C   UNL     1      -2.975   3.103  24.919  0.00  0.00    -0.005 A 
ATOM     16  C   UNL     1      -3.272   3.470  25.596  0.00  0.00    +0.000 A 
ATOM     17  C   UNL     1      -4.086   3.496  25.728  0.00  0.00    +0.037 A 
ATOM     18  C   UNL     1      -4.603   3.156  25.182  0.00  0.00    +0.147 A 
ATOM     24  C   UNL     1      -4.307   2.790  24.505  0.00  0.00    +0.037 A 
ATOM     25  C   UNL     1      -3.492   2.764  24.374  0.00  0.00    +0.000 A 
BRANCH  18  19
ATOM     19  O   UNL     1      -5.418   3.182  25.314  0.00  0.00    -0.404 OA
BRANCH  19  20
ATOM     20  C   UNL     1      -5.808   2.521  25.616  0.00  0.00    +0.575 C 
ATOM     21  F   UNL     1      -6.198   1.861  25.917  0.00  0.00    -0.133 F 
ATOM     22  F   UNL     1      -5.986   2.276  24.849  0.00  0.00    -0.133 F 
ATOM     23  F   UNL     1      -5.630   2.767  26.384  0.00  0.00    -0.133 F 
ENDBRANCH  19  20
ENDBRANCH  18  19
ENDBRANCH  14  15
ENDBRANCH  13  14
ENDBRANCH   9  13
TORSDOF 9
ENDMDL
