MODEL 1
REMARK VINA RESULT:     -11.8      0.000      0.000
REMARK  Name = 
REMARK  8 active torsions:
REMARK  status: ('A' for Active; 'I' for Inactive)
REMARK    1  A    between atoms: N_4  and  C_22
REMARK    2  A    between atoms: C_7  and  C_8
REMARK    3  A    between atoms: C_10  and  N_11
REMARK    4  A    between atoms: C_12  and  C_14
REMARK    5  A    between atoms: C_14  and  C_15
REMARK    6  A    between atoms: C_15  and  C_16
REMARK    7  A    between atoms: C_16  and  C_17
REMARK    8  A    between atoms: C_25  and  C_28
REMARK                            x       y       z     vdW  Elec       q    Type
REMARK                         _______ _______ _______ _____ _____    ______ ____
ROOT
ATOM      1  C   UNL     1      -6.260   1.663  25.094  0.00  0.00    +0.054 C 
ATOM      2  C   UNL     1      -5.538   1.271  25.016  0.00  0.00    +0.077 A 
ATOM      3  N   UNL     1      -5.438   0.458  24.917  0.00  0.00    -0.170 NA
ATOM      4  N   UNL     1      -4.628   0.307  24.862  0.00  0.00    -0.234 N 
ATOM      5  C   UNL     1      -4.230   1.026  24.927  0.00  0.00    +0.058 A 
ATOM      6  C   UNL     1      -3.412   1.132  24.902  0.00  0.00    +0.052 C 
ATOM      7  C   UNL     1      -4.792   1.622  25.022  0.00  0.00    +0.010 A 
ENDROOT
BRANCH   4  22
ATOM     22  C   UNL     1      -4.279  -0.434  24.760  0.00  0.00    +0.082 A 
ATOM     23  C   UNL     1      -4.285  -0.793  24.018  0.00  0.00    +0.019 A 
ATOM     24  C   UNL     1      -3.936  -1.534  23.916  0.00  0.00    -0.003 A 
ATOM     25  C   UNL     1      -3.581  -1.914  24.556  0.00  0.00    -0.023 A 
ATOM     26  C   UNL     1      -3.574  -1.554  25.298  0.00  0.00    -0.003 A 
ATOM     27  C   UNL     1      -3.924  -0.814  25.400  0.00  0.00    +0.019 A 
BRANCH  25  28
ATOM     28  C   UNL     1      -3.232  -2.655  24.454  0.00  0.00    +0.019 C 
ATOM     29  C   UNL     1      -2.883  -3.395  24.351  0.00  0.00    +0.004 C 
ATOM     30  C   UNL     1      -3.959  -2.965  24.217  0.00  0.00    +0.004 C 
ATOM     31  C   UNL     1      -2.505  -2.345  24.690  0.00  0.00    +0.004 C 
ENDBRANCH  25  28
ENDBRANCH   4  22
BRANCH   7   8
ATOM      8  C   UNL     1      -4.636   2.427  25.108  0.00  0.00    +0.048 C 
ATOM      9  C   UNL     1      -3.939   2.812  24.894  0.00  0.00    +0.035 C 
ATOM     10  C   UNL     1      -4.021   3.612  25.077  0.00  0.00    +0.118 C 
ATOM     20  C   UNL     1      -4.770   3.722  25.404  0.00  0.00    -0.009 C 
ATOM     21  C   UNL     1      -5.150   2.991  25.424  0.00  0.00    -0.025 C 
BRANCH  10  11
ATOM     11  N   UNL     1      -3.455   4.198  24.955  0.00  0.00    -0.203 NA
ATOM     12  C   UNL     1      -2.934   4.403  25.561  0.00  0.00    +0.242 C 
ATOM     13  O   UNL     1      -2.980   4.021  26.291  0.00  0.00    -0.273 OA
BRANCH  12  14
ATOM     14  C   UNL     1      -2.367   4.990  25.439  0.00  0.00    +0.087 C 
BRANCH  14  15
ATOM     15  C   UNL     1      -1.569   4.788  25.384  0.00  0.00    +0.021 C 
BRANCH  15  16
ATOM     16  C   UNL     1      -1.056   5.251  24.934  0.00  0.00    +0.115 C 
BRANCH  16  17
ATOM     17  C   UNL     1      -0.392   4.910  24.583  0.00  0.00    +0.365 C 
ATOM     18  O   UNL     1      -0.016   4.271  24.944  0.00  0.00    -0.246 OA
ATOM     19  O   UNL     1      -0.104   5.208  23.870  0.00  0.00    -0.246 OA
ENDBRANCH  16  17
ENDBRANCH  15  16
ENDBRANCH  14  15
ENDBRANCH  12  14
ENDBRANCH  10  11
ENDBRANCH   7   8
TORSDOF 8
ENDMDL
MODEL 2
REMARK VINA RESULT:     -11.4      4.114      5.592
REMARK  Name = 
REMARK  8 active torsions:
REMARK  status: ('A' for Active; 'I' for Inactive)
REMARK    1  A    between atoms: N_4  and  C_22
REMARK    2  A    between atoms: C_7  and  C_8
REMARK    3  A    between atoms: C_10  and  N_11
REMARK    4  A    between atoms: C_12  and  C_14
REMARK    5  A    between atoms: C_14  and  C_15
REMARK    6  A    between atoms: C_15  and  C_16
REMARK    7  A    between atoms: C_16  and  C_17
REMARK    8  A    between atoms: C_25  and  C_28
REMARK                            x       y       z     vdW  Elec       q    Type
REMARK                         _______ _______ _______ _____ _____    ______ ____
ROOT
ATOM      1  C   UNL     1      -0.477  -0.986  24.998  0.00  0.00    +0.054 C 
ATOM      2  C   UNL     1      -0.956  -0.380  24.709  0.00  0.00    +0.077 A 
ATOM      3  N   UNL     1      -1.712  -0.189  24.979  0.00  0.00    -0.170 NA
ATOM      4  N   UNL     1      -1.987   0.451  24.537  0.00  0.00    -0.234 N 
ATOM      5  C   UNL     1      -1.400   0.655  23.994  0.00  0.00    +0.058 A 
ATOM      6  C   UNL     1      -1.443   1.266  23.440  0.00  0.00    +0.052 C 
ATOM      7  C   UNL     1      -0.763   0.142  24.100  0.00  0.00    +0.010 A 
ENDROOT
BRANCH   4  22
ATOM     22  C   UNL     1      -2.719   0.822  24.622  0.00  0.00    +0.082 A 
ATOM     23  C   UNL     1      -2.774   1.537  25.029  0.00  0.00    +0.019 A 
ATOM     24  C   UNL     1      -3.506   1.907  25.115  0.00  0.00    -0.003 A 
ATOM     25  C   UNL     1      -4.183   1.563  24.794  0.00  0.00    -0.023 A 
ATOM     26  C   UNL     1      -4.128   0.847  24.386  0.00  0.00    -0.003 A 
ATOM     27  C   UNL     1      -3.396   0.477  24.301  0.00  0.00    +0.019 A 
BRANCH  25  28
ATOM     28  C   UNL     1      -4.915   1.933  24.879  0.00  0.00    +0.019 C 
ATOM     29  C   UNL     1      -5.647   2.304  24.965  0.00  0.00    +0.004 C 
ATOM     30  C   UNL     1      -4.650   2.564  24.418  0.00  0.00    +0.004 C 
ATOM     31  C   UNL     1      -5.180   1.303  25.341  0.00  0.00    +0.004 C 
ENDBRANCH  25  28
ENDBRANCH   4  22
BRANCH   7   8
ATOM      8  C   UNL     1      -0.058   0.149  23.673  0.00  0.00    +0.048 C 
ATOM      9  C   UNL     1       0.602   0.617  23.835  0.00  0.00    +0.035 C 
ATOM     10  C   UNL     1       1.181   0.446  23.272  0.00  0.00    +0.118 C 
ATOM     20  C   UNL     1       0.879  -0.127  22.762  0.00  0.00    -0.009 C 
ATOM     21  C   UNL     1       0.113  -0.311  23.010  0.00  0.00    -0.025 C 
BRANCH  10  11
ATOM     11  N   UNL     1       1.929   0.789  23.227  0.00  0.00    -0.203 NA
ATOM     12  C   UNL     1       2.535   0.405  22.818  0.00  0.00    +0.242 C 
ATOM     13  O   UNL     1       2.391  -0.321  22.454  0.00  0.00    -0.273 OA
BRANCH  12  14
ATOM     14  C   UNL     1       3.283   0.748  22.773  0.00  0.00    +0.087 C 
BRANCH  14  15
ATOM     15  C   UNL     1       3.941   0.345  23.067  0.00  0.00    +0.021 C 
BRANCH  15  16
ATOM     16  C   UNL     1       4.676   0.717  23.091  0.00  0.00    +0.115 C 
BRANCH  16  17
ATOM     17  C   UNL     1       5.291   0.387  23.532  0.00  0.00    +0.365 C 
ATOM     18  O   UNL     1       5.775  -0.191  23.197  0.00  0.00    -0.246 OA
ATOM     19  O   UNL     1       5.423   0.637  24.307  0.00  0.00    -0.246 OA
ENDBRANCH  16  17
ENDBRANCH  15  16
ENDBRANCH  14  15
ENDBRANCH  12  14
ENDBRANCH  10  11
ENDBRANCH   7   8
TORSDOF 8
ENDMDL
MODEL 3
REMARK VINA RESULT:     -11.2      3.125      5.005
REMARK  Name = 
REMARK  8 active torsions:
REMARK  status: ('A' for Active; 'I' for Inactive)
REMARK    1  A    between atoms: N_4  and  C_22
REMARK    2  A    between atoms: C_7  and  C_8
REMARK    3  A    between atoms: C_10  and  N_11
REMARK    4  A    between atoms: C_12  and  C_14
REMARK    5  A    between atoms: C_14  and  C_15
REMARK    6  A    between atoms: C_15  and  C_16
REMARK    7  A    between atoms: C_16  and  C_17
REMARK    8  A    between atoms: C_25  and  C_28
REMARK                            x       y       z     vdW  Elec       q    Type
REMARK                         _______ _______ _______ _____ _____    ______ ____
ROOT
ATOM      1  C   UNL     1      -2.781  -1.842  24.303  0.00  0.00    +0.054 C 
ATOM      2  C   UNL     1      -2.882  -1.042  24.476  0.00  0.00    +0.077 A 
ATOM      3  N   UNL     1      -3.604  -0.656  24.578  0.00  0.00    -0.170 NA
ATOM      4  N   UNL     1      -3.448   0.137  24.743  0.00  0.00    -0.234 N 
ATOM      5  C   UNL     1      -2.630   0.240  24.743  0.00  0.00    +0.058 A 
ATOM      6  C   UNL     1      -2.230   0.949  24.884  0.00  0.00    +0.052 C 
ATOM      7  C   UNL     1      -2.280  -0.488  24.579  0.00  0.00    +0.010 A 
ENDROOT
BRANCH   4  22
ATOM     22  C   UNL     1      -4.011   0.723  24.883  0.00  0.00    +0.082 A 
ATOM     23  C   UNL     1      -4.047   1.386  24.393  0.00  0.00    +0.019 A 
ATOM     24  C   UNL     1      -4.610   1.972  24.533  0.00  0.00    -0.003 A 
ATOM     25  C   UNL     1      -5.138   1.896  25.162  0.00  0.00    -0.023 A 
ATOM     26  C   UNL     1      -5.102   1.233  25.653  0.00  0.00    -0.003 A 
ATOM     27  C   UNL     1      -4.538   0.647  25.513  0.00  0.00    +0.019 A 
BRANCH  25  28
ATOM     28  C   UNL     1      -5.701   2.482  25.302  0.00  0.00    +0.019 C 
ATOM     29  C   UNL     1      -6.264   3.069  25.442  0.00  0.00    +0.004 C 
ATOM     30  C   UNL     1      -5.117   2.964  25.631  0.00  0.00    +0.004 C 
ATOM     31  C   UNL     1      -6.284   2.001  24.973  0.00  0.00    +0.004 C 
ENDBRANCH  25  28
ENDBRANCH   4  22
BRANCH   7   8
ATOM      8  C   UNL     1      -1.470  -0.637  24.526  0.00  0.00    +0.048 C 
ATOM      9  C   UNL     1      -1.014  -0.592  23.840  0.00  0.00    +0.035 C 
ATOM     10  C   UNL     1      -0.236  -0.785  24.038  0.00  0.00    +0.118 C 
ATOM     20  C   UNL     1      -0.212  -0.949  24.846  0.00  0.00    -0.009 C 
ATOM     21  C   UNL     1      -0.975  -0.858  25.147  0.00  0.00    -0.025 C 
BRANCH  10  11
ATOM     11  N   UNL     1       0.405  -0.809  23.520  0.00  0.00    -0.203 NA
ATOM     12  C   UNL     1       0.793  -0.112  23.310  0.00  0.00    +0.242 C 
ATOM     13  O   UNL     1       0.540   0.610  23.619  0.00  0.00    -0.273 OA
BRANCH  12  14
ATOM     14  C   UNL     1       1.434  -0.136  22.792  0.00  0.00    +0.087 C 
BRANCH  14  15
ATOM     15  C   UNL     1       2.130   0.265  22.977  0.00  0.00    +0.021 C 
BRANCH  15  16
ATOM     16  C   UNL     1       2.781   0.216  22.473  0.00  0.00    +0.115 C 
BRANCH  16  17
ATOM     17  C   UNL     1       3.511   0.519  22.711  0.00  0.00    +0.365 C 
ATOM     18  O   UNL     1       3.646   1.332  22.696  0.00  0.00    -0.246 OA
ATOM     19  O   UNL     1       4.107   0.007  22.964  0.00  0.00    -0.246 OA
ENDBRANCH  16  17
ENDBRANCH  15  16
ENDBRANCH  14  15
ENDBRANCH  12  14
ENDBRANCH  10  11
ENDBRANCH   7   8
TORSDOF 8
ENDMDL
MODEL 4
REMARK VINA RESULT:     -10.7      2.248      5.716
REMARK  Name = 
REMARK  8 active torsions:
REMARK  status: ('A' for Active; 'I' for Inactive)
REMARK    1  A    between atoms: N_4  and  C_22
REMARK    2  A    between atoms: C_7  and  C_8
REMARK    3  A    between atoms: C_10  and  N_11
REMARK    4  A    between atoms: C_12  and  C_14
REMARK    5  A    between atoms: C_14  and  C_15
REMARK    6  A    between atoms: C_15  and  C_16
REMARK    7  A    between atoms: C_16  and  C_17
REMARK    8  A    between atoms: C_25  and  C_28
REMARK                            x       y       z     vdW  Elec       q    Type
REMARK                         _______ _______ _______ _____ _____    ______ ____
ROOT
ATOM      1  C   UNL     1      -5.613   2.409  25.764  0.00  0.00    +0.054 C 
ATOM      2  C   UNL     1      -4.837   2.515  25.504  0.00  0.00    +0.077 A 
ATOM      3  N   UNL     1      -4.401   3.214  25.553  0.00  0.00    -0.170 NA
ATOM      4  N   UNL     1      -3.655   3.072  25.229  0.00  0.00    -0.234 N 
ATOM      5  C   UNL     1      -3.631   2.286  24.981  0.00  0.00    +0.058 A 
ATOM      6  C   UNL     1      -2.989   1.909  24.625  0.00  0.00    +0.052 C 
ATOM      7  C   UNL     1      -4.361   1.941  25.151  0.00  0.00    +0.010 A 
ENDROOT
BRANCH   4  22
ATOM     22  C   UNL     1      -3.042   3.620  25.165  0.00  0.00    +0.082 A 
ATOM     23  C   UNL     1      -2.493   3.697  25.776  0.00  0.00    +0.019 A 
ATOM     24  C   UNL     1      -1.880   4.245  25.712  0.00  0.00    -0.003 A 
ATOM     25  C   UNL     1      -1.815   4.716  25.037  0.00  0.00    -0.023 A 
ATOM     26  C   UNL     1      -2.365   4.638  24.426  0.00  0.00    -0.003 A 
ATOM     27  C   UNL     1      -2.978   4.090  24.490  0.00  0.00    +0.019 A 
BRANCH  25  28
ATOM     28  C   UNL     1      -1.202   5.264  24.973  0.00  0.00    +0.019 C 
ATOM     29  C   UNL     1      -0.589   5.812  24.909  0.00  0.00    +0.004 C 
ATOM     30  C   UNL     1      -1.742   5.880  25.071  0.00  0.00    +0.004 C 
ATOM     31  C   UNL     1      -0.662   4.648  24.875  0.00  0.00    +0.004 C 
ENDBRANCH  25  28
ENDBRANCH   4  22
BRANCH   7   8
ATOM      8  C   UNL     1      -4.578   1.161  24.995  0.00  0.00    +0.048 C 
ATOM      9  C   UNL     1      -4.135   0.489  25.177  0.00  0.00    +0.035 C 
ATOM     10  C   UNL     1      -4.558  -0.172  24.926  0.00  0.00    +0.118 C 
ATOM     20  C   UNL     1      -5.263   0.090  24.588  0.00  0.00    -0.009 C 
ATOM     21  C   UNL     1      -5.276   0.914  24.631  0.00  0.00    -0.025 C 
BRANCH  10  11
ATOM     11  N   UNL     1      -4.319  -0.958  24.998  0.00  0.00    -0.203 NA
ATOM     12  C   UNL     1      -4.082  -1.381  24.331  0.00  0.00    +0.242 C 
ATOM     13  O   UNL     1      -4.083  -1.018  23.591  0.00  0.00    -0.273 OA
BRANCH  12  14
ATOM     14  C   UNL     1      -3.843  -2.167  24.404  0.00  0.00    +0.087 C 
BRANCH  14  15
ATOM     15  C   UNL     1      -3.093  -2.396  24.148  0.00  0.00    +0.021 C 
BRANCH  15  16
ATOM     16  C   UNL     1      -2.588  -2.802  24.658  0.00  0.00    +0.115 C 
BRANCH  16  17
ATOM     17  C   UNL     1      -1.775  -2.808  24.516  0.00  0.00    +0.365 C 
ATOM     18  O   UNL     1      -1.250  -2.583  25.111  0.00  0.00    -0.246 OA
ATOM     19  O   UNL     1      -1.487  -3.039  23.779  0.00  0.00    -0.246 OA
ENDBRANCH  16  17
ENDBRANCH  15  16
ENDBRANCH  14  15
ENDBRANCH  12  14
ENDBRANCH  10  11
ENDBRANCH   7   8
TORSDOF 8
ENDMDL
MODEL 5
REMARK VINA RESULT:     -10.2      2.955      3.559
REMARK  Name = 
REMARK  8 active torsions:
REMARK  status: ('A' for Active; 'I' for Inactive)
REMARK    1  A    between atoms: N_4  and  C_22
REMARK    2  A    between atoms: C_7  and  C_8
REMARK    3  A    between atoms: C_10  and  N_11
REMARK    4  A    between atoms: C_12  and  C_14
REMARK    5  A    between atoms: C_14  and  C_15
REMARK    6  A    between atoms: C_15  and  C_16
REMARK    7  A    between atoms: C_16  and  C_17
REMARK    8  A    between atoms: C_25  and  C_28
REMARK                            x       y       z     vdW  Elec       q    Type
REMARK                         _______ _______ _______ _____ _____    ______ ____
ROOT
ATOM      1  C   UNL     1      -2.851   2.828  25.116  0.00  0.00    +0.054 C 
ATOM      2  C   UNL     1      -2.649   2.032  25.039  0.00  0.00    +0.077 A 
ATOM      3  N   UNL     1      -3.169   1.415  24.868  0.00  0.00    -0.170 NA
ATOM      4  N   UNL     1      -2.733   0.714  24.843  0.00  0.00    -0.234 N 
ATOM      5  C   UNL     1      -1.945   0.899  24.999  0.00  0.00    +0.058 A 
ATOM      6  C   UNL     1      -1.318   0.363  25.028  0.00  0.00    +0.052 C 
ATOM      7  C   UNL     1      -1.892   1.713  25.120  0.00  0.00    +0.010 A 
ENDROOT
BRANCH   4  22
ATOM     22  C   UNL     1      -3.034  -0.039  24.689  0.00  0.00    +0.082 A 
ATOM     23  C   UNL     1      -3.197  -0.267  23.914  0.00  0.00    +0.019 A 
ATOM     24  C   UNL     1      -3.497  -1.020  23.760  0.00  0.00    -0.003 A 
ATOM     25  C   UNL     1      -3.635  -1.544  24.381  0.00  0.00    -0.023 A 
ATOM     26  C   UNL     1      -3.472  -1.316  25.158  0.00  0.00    -0.003 A 
ATOM     27  C   UNL     1      -3.171  -0.563  25.311  0.00  0.00    +0.019 A 
BRANCH  25  28
ATOM     28  C   UNL     1      -3.936  -2.297  24.228  0.00  0.00    +0.019 C 
ATOM     29  C   UNL     1      -4.236  -3.050  24.074  0.00  0.00    +0.004 C 
ATOM     30  C   UNL     1      -3.441  -2.613  24.807  0.00  0.00    +0.004 C 
ATOM     31  C   UNL     1      -4.430  -1.981  23.648  0.00  0.00    +0.004 C 
ENDBRANCH  25  28
ENDBRANCH   4  22
BRANCH   7   8
ATOM      8  C   UNL     1      -1.205   2.135  25.292  0.00  0.00    +0.048 C 
ATOM      9  C   UNL     1      -0.653   1.945  25.875  0.00  0.00    +0.035 C 
ATOM     10  C   UNL     1      -0.055   2.513  25.856  0.00  0.00    +0.118 C 
ATOM     20  C   UNL     1      -0.237   3.054  25.261  0.00  0.00    -0.009 C 
ATOM     21  C   UNL     1      -0.948   2.821  24.913  0.00  0.00    -0.025 C 
BRANCH  10  11
ATOM     11  N   UNL     1       0.609   2.536  26.344  0.00  0.00    -0.203 NA
ATOM     12  C   UNL     1       0.518   2.600  27.162  0.00  0.00    +0.242 C 
ATOM     13  O   UNL     1      -0.238   2.640  27.491  0.00  0.00    -0.273 OA
BRANCH  12  14
ATOM     14  C   UNL     1       1.181   2.623  27.651  0.00  0.00    +0.087 C 
BRANCH  14  15
ATOM     15  C   UNL     1       1.103   2.483  28.461  0.00  0.00    +0.021 C 
BRANCH  15  16
ATOM     16  C   UNL     1       1.726   2.657  28.971  0.00  0.00    +0.115 C 
BRANCH  16  17
ATOM     17  C   UNL     1       1.696   2.411  29.758  0.00  0.00    +0.365 C 
ATOM     18  O   UNL     1       2.200   1.815  30.024  0.00  0.00    -0.246 OA
ATOM     19  O   UNL     1       1.161   2.761  30.280  0.00  0.00    -0.246 OA
ENDBRANCH  16  17
ENDBRANCH  15  16
ENDBRANCH  14  15
ENDBRANCH  12  14
ENDBRANCH  10  11
ENDBRANCH   7   8
TORSDOF 8
ENDMDL
MODEL 6
REMARK VINA RESULT:      -9.8      3.611      5.147
REMARK  Name = 
REMARK  8 active torsions:
REMARK  status: ('A' for Active; 'I' for Inactive)
REMARK    1  A    between atoms: N_4  and  C_22
REMARK    2  A    between atoms: C_7  and  C_8
REMARK    3  A    between atoms: C_10  and  N_11
REMARK    4  A    between atoms: C_12  and  C_14
REMARK    5  A    between atoms: C_14  and  C_15
REMARK    6  A    between atoms: C_15  and  C_16
REMARK    7  A    between atoms: C_16  and  C_17
REMARK    8  A    between atoms: C_25  and  C_28
REMARK                            x       y       z     vdW  Elec       q    Type
REMARK                         _______ _______ _______ _____ _____    ______ ____
ROOT
ATOM      1  C   UNL     1      -1.786   1.394  22.216  0.00  0.00    +0.054 C 
ATOM      2  C   UNL     1      -2.119   1.411  22.971  0.00  0.00    +0.077 A 
ATOM      3  N   UNL     1      -2.893   1.631  23.154  0.00  0.00    -0.170 NA
ATOM      4  N   UNL     1      -2.989   1.566  23.971  0.00  0.00    -0.234 N 
ATOM      5  C   UNL     1      -2.275   1.306  24.292  0.00  0.00    +0.058 A 
ATOM      6  C   UNL     1      -2.124   1.166  25.091  0.00  0.00    +0.052 C 
ATOM      7  C   UNL     1      -1.737   1.209  23.674  0.00  0.00    +0.010 A 
ENDROOT
BRANCH   4  22
ATOM     22  C   UNL     1      -3.678   1.733  24.393  0.00  0.00    +0.082 A 
ATOM     23  C   UNL     1      -3.864   2.512  24.587  0.00  0.00    +0.019 A 
ATOM     24  C   UNL     1      -4.553   2.679  25.009  0.00  0.00    -0.003 A 
ATOM     25  C   UNL     1      -5.056   2.066  25.237  0.00  0.00    -0.023 A 
ATOM     26  C   UNL     1      -4.870   1.286  25.043  0.00  0.00    -0.003 A 
ATOM     27  C   UNL     1      -4.181   1.119  24.621  0.00  0.00    +0.019 A 
BRANCH  25  28
ATOM     28  C   UNL     1      -5.745   2.233  25.659  0.00  0.00    +0.019 C 
ATOM     29  C   UNL     1      -6.434   2.399  26.080  0.00  0.00    +0.004 C 
ATOM     30  C   UNL     1      -5.350   2.829  26.069  0.00  0.00    +0.004 C 
ATOM     31  C   UNL     1      -6.141   1.636  25.248  0.00  0.00    +0.004 C 
ENDBRANCH  25  28
ENDBRANCH   4  22
BRANCH   7   8
ATOM      8  C   UNL     1      -0.955   0.957  23.745  0.00  0.00    +0.048 C 
ATOM      9  C   UNL     1      -0.284   1.427  23.651  0.00  0.00    +0.035 C 
ATOM     10  C   UNL     1       0.380   0.951  23.770  0.00  0.00    +0.118 C 
ATOM     20  C   UNL     1       0.118   0.187  23.938  0.00  0.00    -0.009 C 
ATOM     21  C   UNL     1      -0.707   0.191  23.923  0.00  0.00    -0.025 C 
BRANCH  10  11
ATOM     11  N   UNL     1       1.166   1.196  23.729  0.00  0.00    -0.203 NA
ATOM     12  C   UNL     1       1.689   0.820  23.214  0.00  0.00    +0.242 C 
ATOM     13  O   UNL     1       1.426   0.198  22.741  0.00  0.00    -0.273 OA
BRANCH  12  14
ATOM     14  C   UNL     1       2.475   1.064  23.173  0.00  0.00    +0.087 C 
BRANCH  14  15
ATOM     15  C   UNL     1       3.074   0.512  23.044  0.00  0.00    +0.021 C 
BRANCH  15  16
ATOM     16  C   UNL     1       3.835   0.764  22.850  0.00  0.00    +0.115 C 
BRANCH  16  17
ATOM     17  C   UNL     1       4.491   0.409  23.203  0.00  0.00    +0.365 C 
ATOM     18  O   UNL     1       5.030   0.867  23.626  0.00  0.00    -0.246 OA
ATOM     19  O   UNL     1       4.607  -0.404  23.132  0.00  0.00    -0.246 OA
ENDBRANCH  16  17
ENDBRANCH  15  16
ENDBRANCH  14  15
ENDBRANCH  12  14
ENDBRANCH  10  11
ENDBRANCH   7   8
TORSDOF 8
ENDMDL
MODEL 7
REMARK VINA RESULT:      -9.2      3.218      6.649
REMARK  Name = 
REMARK  8 active torsions:
REMARK  status: ('A' for Active; 'I' for Inactive)
REMARK    1  A    between atoms: N_4  and  C_22
REMARK    2  A    between atoms: C_7  and  C_8
REMARK    3  A    between atoms: C_10  and  N_11
REMARK    4  A    between atoms: C_12  and  C_14
REMARK    5  A    between atoms: C_14  and  C_15
REMARK    6  A    between atoms: C_15  and  C_16
REMARK    7  A    between atoms: C_16  and  C_17
REMARK    8  A    between atoms: C_25  and  C_28
REMARK                            x       y       z     vdW  Elec       q    Type
REMARK                         _______ _______ _______ _____ _____    ______ ____
ROOT
ATOM      1  C   UNL     1       0.645   0.411  23.608  0.00  0.00    +0.054 C 
ATOM      2  C   UNL     1       0.123   0.882  24.040  0.00  0.00    +0.077 A 
ATOM      3  N   UNL     1       0.072   1.705  24.007  0.00  0.00    -0.170 NA
ATOM      4  N   UNL     1      -0.522   1.944  24.528  0.00  0.00    -0.234 N 
ATOM      5  C   UNL     1      -0.838   1.269  24.881  0.00  0.00    +0.058 A 
ATOM      6  C   UNL     1      -1.446   1.253  25.439  0.00  0.00    +0.052 C 
ATOM      7  C   UNL     1      -0.440   0.613  24.580  0.00  0.00    +0.010 A 
ENDROOT
BRANCH   4  22
ATOM     22  C   UNL     1      -0.758   2.722  24.669  0.00  0.00    +0.082 A 
ATOM     23  C   UNL     1      -1.396   3.041  24.254  0.00  0.00    +0.019 A 
ATOM     24  C   UNL     1      -1.632   3.819  24.396  0.00  0.00    -0.003 A 
ATOM     25  C   UNL     1      -1.231   4.277  24.952  0.00  0.00    -0.023 A 
ATOM     26  C   UNL     1      -0.593   3.958  25.367  0.00  0.00    -0.003 A 
ATOM     27  C   UNL     1      -0.357   3.180  25.226  0.00  0.00    +0.019 A 
BRANCH  25  28
ATOM     28  C   UNL     1      -1.467   5.055  25.094  0.00  0.00    +0.019 C 
ATOM     29  C   UNL     1      -1.704   5.832  25.235  0.00  0.00    +0.004 C 
ATOM     30  C   UNL     1      -0.767   5.329  24.756  0.00  0.00    +0.004 C 
ATOM     31  C   UNL     1      -2.168   4.780  25.432  0.00  0.00    +0.004 C 
ENDBRANCH  25  28
ENDBRANCH   4  22
BRANCH   7   8
ATOM      8  C   UNL     1      -0.579  -0.175  24.782  0.00  0.00    +0.048 C 
ATOM      9  C   UNL     1      -1.314  -0.548  24.797  0.00  0.00    +0.035 C 
ATOM     10  C   UNL     1      -1.198  -1.332  25.029  0.00  0.00    +0.118 C 
ATOM     20  C   UNL     1      -0.391  -1.442  25.158  0.00  0.00    -0.009 C 
ATOM     21  C   UNL     1      -0.008  -0.727  25.006  0.00  0.00    -0.025 C 
BRANCH  10  11
ATOM     11  N   UNL     1      -1.785  -1.904  25.117  0.00  0.00    -0.203 NA
ATOM     12  C   UNL     1      -1.963  -2.412  24.492  0.00  0.00    +0.242 C 
ATOM     13  O   UNL     1      -1.554  -2.348  23.779  0.00  0.00    -0.273 OA
BRANCH  12  14
ATOM     14  C   UNL     1      -2.550  -2.984  24.580  0.00  0.00    +0.087 C 
BRANCH  14  15
ATOM     15  C   UNL     1      -3.200  -2.992  24.071  0.00  0.00    +0.021 C 
BRANCH  15  16
ATOM     16  C   UNL     1      -3.956  -2.847  24.364  0.00  0.00    +0.115 C 
BRANCH  16  17
ATOM     17  C   UNL     1      -4.538  -2.531  23.871  0.00  0.00    +0.365 C 
ATOM     18  O   UNL     1      -4.742  -1.734  23.932  0.00  0.00    -0.246 OA
ATOM     19  O   UNL     1      -4.915  -3.012  23.317  0.00  0.00    -0.246 OA
ENDBRANCH  16  17
ENDBRANCH  15  16
ENDBRANCH  14  15
ENDBRANCH  12  14
ENDBRANCH  10  11
ENDBRANCH   7   8
TORSDOF 8
ENDMDL
MODEL 8
REMARK VINA RESULT:      -9.0      3.053      4.726
REMARK  Name = 
REMARK  8 active torsions:
REMARK  status: ('A' for Active; 'I' for Inactive)
REMARK    1  A    between atoms: N_4  and  C_22
REMARK    2  A    between atoms: C_7  and  C_8
REMARK    3  A    between atoms: C_10  and  N_11
REMARK    4  A    between atoms: C_12  and  C_14
REMARK    5  A    between atoms: C_14  and  C_15
REMARK    6  A    between atoms: C_15  and  C_16
REMARK    7  A    between atoms: C_16  and  C_17
REMARK    8  A    between atoms: C_25  and  C_28
REMARK                            x       y       z     vdW  Elec       q    Type
REMARK                         _______ _______ _______ _____ _____    ______ ____
ROOT
ATOM      1  C   UNL     1      -2.141  -1.796  25.408  0.00  0.00    +0.054 C 
ATOM      2  C   UNL     1      -1.789  -1.220  24.935  0.00  0.00    +0.077 A 
ATOM      3  N   UNL     1      -0.991  -1.184  24.728  0.00  0.00    -0.170 NA
ATOM      4  N   UNL     1      -0.881  -0.520  24.250  0.00  0.00    -0.234 N 
ATOM      5  C   UNL     1      -1.611  -0.146  24.162  0.00  0.00    +0.058 A 
ATOM      6  C   UNL     1      -1.755   0.540  23.727  0.00  0.00    +0.052 C 
ATOM      7  C   UNL     1      -2.172  -0.578  24.585  0.00  0.00    +0.010 A 
ENDROOT
BRANCH   4  22
ATOM     22  C   UNL     1      -0.167  -0.274  23.919  0.00  0.00    +0.082 A 
ATOM     23  C   UNL     1       0.195  -0.729  23.334  0.00  0.00    +0.019 A 
ATOM     24  C   UNL     1       0.909  -0.482  23.003  0.00  0.00    -0.003 A 
ATOM     25  C   UNL     1       1.262   0.219  23.256  0.00  0.00    -0.023 A 
ATOM     26  C   UNL     1       0.899   0.674  23.842  0.00  0.00    -0.003 A 
ATOM     27  C   UNL     1       0.185   0.428  24.173  0.00  0.00    +0.019 A 
BRANCH  25  28
ATOM     28  C   UNL     1       1.976   0.466  22.925  0.00  0.00    +0.019 C 
ATOM     29  C   UNL     1       2.690   0.712  22.594  0.00  0.00    +0.004 C 
ATOM     30  C   UNL     1       2.000   1.101  23.451  0.00  0.00    +0.004 C 
ATOM     31  C   UNL     1       1.951  -0.170  22.400  0.00  0.00    +0.004 C 
ENDBRANCH  25  28
ENDBRANCH   4  22
BRANCH   7   8
ATOM      8  C   UNL     1      -2.975  -0.401  24.648  0.00  0.00    +0.048 C 
ATOM      9  C   UNL     1      -3.302   0.216  25.087  0.00  0.00    +0.035 C 
ATOM     10  C   UNL     1      -4.121   0.190  24.994  0.00  0.00    +0.118 C 
ATOM     20  C   UNL     1      -4.301  -0.444  24.498  0.00  0.00    -0.009 C 
ATOM     21  C   UNL     1      -3.593  -0.810  24.285  0.00  0.00    -0.025 C 
BRANCH  10  11
ATOM     11  N   UNL     1      -4.665   0.706  25.337  0.00  0.00    -0.203 NA
ATOM     12  C   UNL     1      -4.977   1.330  24.896  0.00  0.00    +0.242 C 
ATOM     13  O   UNL     1      -4.743   1.438  24.112  0.00  0.00    -0.273 OA
BRANCH  12  14
ATOM     14  C   UNL     1      -5.521   1.846  25.239  0.00  0.00    +0.087 C 
BRANCH  14  15
ATOM     15  C   UNL     1      -5.435   2.661  25.142  0.00  0.00    +0.021 C 
BRANCH  15  16
ATOM     16  C   UNL     1      -5.684   3.176  25.736  0.00  0.00    +0.115 C 
BRANCH  16  17
ATOM     17  C   UNL     1      -5.555   3.988  25.660  0.00  0.00    +0.365 C 
ATOM     18  O   UNL     1      -4.787   4.277  25.575  0.00  0.00    -0.246 OA
ATOM     19  O   UNL     1      -6.193   4.510  25.671  0.00  0.00    -0.246 OA
ENDBRANCH  16  17
ENDBRANCH  15  16
ENDBRANCH  14  15
ENDBRANCH  12  14
ENDBRANCH  10  11
ENDBRANCH   7   8
TORSDOF 8
ENDMDL
MODEL 9
REMARK VINA RESULT:      -8.6      3.422      5.042
REMARK  Name = 
REMARK  8 active torsions:
REMARK  status: ('A' for Active; 'I' for Inactive)
REMARK    1  A    between atoms: N_4  and  C_22
REMARK    2  A    between atoms: C_7  and  C_8
REMARK    3  A    between atoms: C_10  and  N_11
REMARK    4  A    between atoms: C_12  and  C_14
REMARK    5  A    between atoms: C_14  and  C_15
REMARK    6  A    between atoms: C_15  and  C_16
REMARK    7  A    between atoms: C_16  and  C_17
REMARK    8  A    between atoms: C_25  and  C_28
REMARK                            x       y       z     vdW  Elec       q    Type
REMARK                         _______ _______ _______ _____ _____    ______ ____
ROOT
ATOM      1  C   UNL     1      -0.197   2.717  26.436  0.00  0.00    +0.054 C 
ATOM      2  C   UNL     1      -0.134   2.462  25.654  0.00  0.00    +0.077 A 
ATOM      3  N   UNL     1       0.450   1.962  25.353  0.00  0.00    -0.170 NA
ATOM      4  N   UNL     1       0.302   1.853  24.549  0.00  0.00    -0.234 N 
ATOM      5  C   UNL     1      -0.373   2.286  24.353  0.00  0.00    +0.058 A 
ATOM      6  C   UNL     1      -0.718   2.334  23.605  0.00  0.00    +0.052 C 
ATOM      7  C   UNL     1      -0.642   2.662  25.036  0.00  0.00    +0.010 A 
ENDROOT
BRANCH   4  22
ATOM     22  C   UNL     1       0.750   1.393  24.031  0.00  0.00    +0.082 A 
ATOM     23  C   UNL     1       1.462   1.682  23.734  0.00  0.00    +0.019 A 
ATOM     24  C   UNL     1       1.910   1.222  23.217  0.00  0.00    -0.003 A 
ATOM     25  C   UNL     1       1.646   0.472  22.996  0.00  0.00    -0.023 A 
ATOM     26  C   UNL     1       0.932   0.183  23.294  0.00  0.00    -0.003 A 
ATOM     27  C   UNL     1       0.484   0.643  23.811  0.00  0.00    +0.019 A 
BRANCH  25  28
ATOM     28  C   UNL     1       2.094   0.011  22.479  0.00  0.00    +0.019 C 
ATOM     29  C   UNL     1       2.542  -0.449  21.961  0.00  0.00    +0.004 C 
ATOM     30  C   UNL     1       2.785   0.341  22.784  0.00  0.00    +0.004 C 
ATOM     31  C   UNL     1       1.402  -0.318  22.173  0.00  0.00    +0.004 C 
ENDBRANCH  25  28
ENDBRANCH   4  22
BRANCH   7   8
ATOM      8  C   UNL     1      -1.303   3.152  25.092  0.00  0.00    +0.048 C 
ATOM      9  C   UNL     1      -2.089   2.917  25.006  0.00  0.00    +0.035 C 
ATOM     10  C   UNL     1      -2.567   3.582  25.105  0.00  0.00    +0.118 C 
ATOM     20  C   UNL     1      -2.077   4.228  25.251  0.00  0.00    -0.009 C 
ATOM     21  C   UNL     1      -1.296   3.963  25.244  0.00  0.00    -0.025 C 
BRANCH  10  11
ATOM     11  N   UNL     1      -3.391   3.598  25.064  0.00  0.00    -0.203 NA
ATOM     12  C   UNL     1      -3.839   3.605  25.757  0.00  0.00    +0.242 C 
ATOM     13  O   UNL     1      -3.462   3.597  26.491  0.00  0.00    -0.273 OA
BRANCH  12  14
ATOM     14  C   UNL     1      -4.662   3.621  25.716  0.00  0.00    +0.087 C 
BRANCH  14  15
ATOM     15  C   UNL     1      -5.090   2.916  25.719  0.00  0.00    +0.021 C 
BRANCH  15  16
ATOM     16  C   UNL     1      -5.911   2.931  25.649  0.00  0.00    +0.115 C 
BRANCH  16  17
ATOM     17  C   UNL     1      -6.335   2.224  25.607  0.00  0.00    +0.365 C 
ATOM     18  O   UNL     1      -6.571   1.842  26.298  0.00  0.00    -0.246 OA
ATOM     19  O   UNL     1      -6.523   1.900  24.872  0.00  0.00    -0.246 OA
ENDBRANCH  16  17
ENDBRANCH  15  16
ENDBRANCH  14  15
ENDBRANCH  12  14
ENDBRANCH  10  11
ENDBRANCH   7   8
TORSDOF 8
ENDMDL
