MODEL 1
REMARK VINA RESULT:     -12.5      0.000      0.000
REMARK  Name = 
REMARK  7 active torsions:
REMARK  status: ('A' for Active; 'I' for Inactive)
REMARK    1  A    between atoms: C_5  and  C_8
REMARK    2  A    between atoms: C_10  and  C_11
REMARK    3  A    between atoms: C_11  and  C_12
REMARK    4  A    between atoms: C_17  and  C_18
REMARK    5  A    between atoms: C_18  and  C_19
REMARK    6  A    between atoms: N_21  and  C_22
REMARK    7  A    between atoms: C_22  and  C_23
REMARK                            x       y       z     vdW  Elec       q    Type
REMARK                         _______ _______ _______ _____ _____    ______ ____
ROOT
ATOM     12  C   UNL     1      -4.870   1.868  24.913  0.00  0.00    +0.024 C 
ATOM     13  C   UNL     1      -5.417   1.484  25.396  0.00  0.00    +0.089 C 
ATOM     14  N   UNL     1      -5.905   1.922  25.896  0.00  0.00    -0.218 NA
ATOM     15  C   UNL     1      -5.847   2.744  25.913  0.00  0.00    +0.089 C 
ATOM     16  C   UNL     1      -5.300   3.129  25.430  0.00  0.00    +0.019 C 
ATOM     17  C   UNL     1      -4.811   2.691  24.930  0.00  0.00    +0.012 C 
ENDROOT
BRANCH  12  11
ATOM     11  C   UNL     1      -4.382   1.430  24.413  0.00  0.00    +0.051 C 
BRANCH  11  10
ATOM      8  C   UNL     1      -3.801  -0.596  24.749  0.00  0.00    +0.177 A 
ATOM      9  C   UNL     1      -4.218  -0.028  24.320  0.00  0.00    +0.058 A 
ATOM     10  C   UNL     1      -4.074   0.708  24.665  0.00  0.00    +0.101 A 
ATOM     28  N   UNL     1      -3.568   0.594  25.307  0.00  0.00    -0.081 NA
ATOM     29  O   UNL     1      -3.399  -0.212  25.358  0.00  0.00    -0.354 OA
BRANCH   8   5
ATOM      1  F   UNL     1      -3.750  -3.838  24.132  0.00  0.00    -0.204 F 
ATOM      2  C   UNL     1      -3.763  -3.027  24.286  0.00  0.00    +0.140 A 
ATOM      3  C   UNL     1      -4.177  -2.518  23.785  0.00  0.00    +0.030 A 
ATOM      4  C   UNL     1      -4.190  -1.708  23.939  0.00  0.00    +0.005 A 
ATOM      5  C   UNL     1      -3.788  -1.407  24.595  0.00  0.00    +0.037 A 
ATOM      6  C   UNL     1      -3.375  -1.915  25.095  0.00  0.00    +0.005 A 
ATOM      7  C   UNL     1      -3.363  -2.725  24.941  0.00  0.00    +0.030 A 
ENDBRANCH   8   5
ENDBRANCH  11  10
ENDBRANCH  12  11
BRANCH  17  18
ATOM     18  C   UNL     1      -4.265   3.076  24.447  0.00  0.00    +0.087 C 
BRANCH  18  19
ATOM     19  C   UNL     1      -3.883   3.755  24.716  0.00  0.00    +0.242 C 
ATOM     20  O   UNL     1      -4.324   4.422  24.923  0.00  0.00    -0.273 OA
ATOM     21  N   UNL     1      -3.060   3.770  24.777  0.00  0.00    -0.197 NA
BRANCH  21  22
ATOM     22  C   UNL     1      -2.678   4.451  25.046  0.00  0.00    +0.179 C 
BRANCH  22  23
ATOM     23  C   UNL     1      -1.855   4.494  25.033  0.00  0.00    +0.145 A 
ATOM     24  C   UNL     1      -1.406   5.186  25.019  0.00  0.00    +0.038 A 
ATOM     25  C   UNL     1      -0.609   4.973  25.008  0.00  0.00    +0.043 A 
ATOM     26  C   UNL     1      -0.566   4.149  25.016  0.00  0.00    +0.179 A 
ATOM     27  O   UNL     1      -1.335   3.853  25.031  0.00  0.00    -0.453 OA
ENDBRANCH  22  23
ENDBRANCH  21  22
ENDBRANCH  18  19
ENDBRANCH  17  18
TORSDOF 7
ENDMDL
MODEL 2
REMARK VINA RESULT:     -12.4      1.027      1.240
REMARK  Name = 
REMARK  7 active torsions:
REMARK  status: ('A' for Active; 'I' for Inactive)
REMARK    1  A    between atoms: C_5  and  C_8
REMARK    2  A    between atoms: C_10  and  C_11
REMARK    3  A    between atoms: C_11  and  C_12
REMARK    4  A    between atoms: C_17  and  C_18
REMARK    5  A    between atoms: C_18  and  C_19
REMARK    6  A    between atoms: N_21  and  C_22
REMARK    7  A    between atoms: C_22  and  C_23
REMARK                            x       y       z     vdW  Elec       q    Type
REMARK                         _______ _______ _______ _____ _____    ______ ____
ROOT
ATOM     12  C   UNL     1      -4.620   2.373  24.722  0.00  0.00    +0.024 C 
ATOM     13  C   UNL     1      -5.327   2.335  25.147  0.00  0.00    +0.089 C 
ATOM     14  N   UNL     1      -5.572   2.979  25.600  0.00  0.00    -0.218 NA
ATOM     15  C   UNL     1      -5.111   3.663  25.628  0.00  0.00    +0.089 C 
ATOM     16  C   UNL     1      -4.404   3.702  25.203  0.00  0.00    +0.019 C 
ATOM     17  C   UNL     1      -4.159   3.056  24.751  0.00  0.00    +0.012 C 
ENDROOT
BRANCH  12  11
ATOM     11  C   UNL     1      -4.376   1.729  24.270  0.00  0.00    +0.051 C 
BRANCH  11  10
ATOM      8  C   UNL     1      -4.246  -0.348  24.748  0.00  0.00    +0.177 A 
ATOM      9  C   UNL     1      -4.078   0.289  24.251  0.00  0.00    +0.058 A 
ATOM     10  C   UNL     1      -4.411   0.967  24.584  0.00  0.00    +0.101 A 
ATOM     28  N   UNL     1      -4.784   0.748  25.287  0.00  0.00    -0.081 NA
ATOM     29  O   UNL     1      -4.682  -0.064  25.388  0.00  0.00    -0.354 OA
BRANCH   8   5
ATOM      1  F   UNL     1      -3.334  -3.482  24.258  0.00  0.00    -0.204 F 
ATOM      2  C   UNL     1      -3.562  -2.698  24.381  0.00  0.00    +0.140 A 
ATOM      3  C   UNL     1      -4.084  -2.333  23.855  0.00  0.00    +0.030 A 
ATOM      4  C   UNL     1      -4.312  -1.550  23.978  0.00  0.00    +0.005 A 
ATOM      5  C   UNL     1      -4.018  -1.132  24.625  0.00  0.00    +0.037 A 
ATOM      6  C   UNL     1      -3.497  -1.496  25.150  0.00  0.00    +0.005 A 
ATOM      7  C   UNL     1      -3.269  -2.279  25.027  0.00  0.00    +0.030 A 
ENDBRANCH   8   5
ENDBRANCH  11  10
ENDBRANCH  12  11
BRANCH  17  18
ATOM     18  C   UNL     1      -3.453   3.095  24.326  0.00  0.00    +0.087 C 
BRANCH  18  19
ATOM     19  C   UNL     1      -2.803   3.492  24.641  0.00  0.00    +0.242 C 
ATOM     20  O   UNL     1      -2.819   4.314  24.719  0.00  0.00    -0.273 OA
ATOM     21  N   UNL     1      -2.136   3.069  24.880  0.00  0.00    -0.197 NA
BRANCH  21  22
ATOM     22  C   UNL     1      -1.485   3.467  25.196  0.00  0.00    +0.179 C 
BRANCH  22  23
ATOM     23  C   UNL     1      -0.824   3.043  25.444  0.00  0.00    +0.145 A 
ATOM     24  C   UNL     1      -0.638   2.848  26.224  0.00  0.00    +0.038 A 
ATOM     25  C   UNL     1       0.069   2.423  26.219  0.00  0.00    +0.043 A 
ATOM     26  C   UNL     1       0.320   2.355  25.436  0.00  0.00    +0.179 A 
ATOM     27  O   UNL     1      -0.231   2.738  24.957  0.00  0.00    -0.453 OA
ENDBRANCH  22  23
ENDBRANCH  21  22
ENDBRANCH  18  19
ENDBRANCH  17  18
TORSDOF 7
ENDMDL
MODEL 3
REMARK VINA RESULT:     -11.9      2.006      3.380
REMARK  Name = 
REMARK  7 active torsions:
REMARK  status: ('A' for Active; 'I' for Inactive)
REMARK    1  A    between atoms: C_5  and  C_8
REMARK    2  A    between atoms: C_10  and  C_11
REMARK    3  A    between atoms: C_11  and  C_12
REMARK    4  A    between atoms: C_17  and  C_18
REMARK    5  A    between atoms: C_18  and  C_19
REMARK    6  A    between atoms: N_21  and  C_22
REMARK    7  A    between atoms: C_22  and  C_23
REMARK                            x       y       z     vdW  Elec       q    Type
REMARK                         _______ _______ _______ _____ _____    ______ ____
ROOT
ATOM     12  C   UNL     1      -0.586   0.831  25.074  0.00  0.00    +0.024 C 
ATOM     13  C   UNL     1      -0.186   0.456  24.456  0.00  0.00    +0.089 C 
ATOM     14  N   UNL     1       0.266   0.899  23.929  0.00  0.00    -0.218 NA
ATOM     15  C   UNL     1       0.320   1.718  24.018  0.00  0.00    +0.089 C 
ATOM     16  C   UNL     1      -0.079   2.093  24.635  0.00  0.00    +0.019 C 
ATOM     17  C   UNL     1      -0.532   1.649  25.163  0.00  0.00    +0.012 C 
ENDROOT
BRANCH  12  11
ATOM     11  C   UNL     1      -1.038   0.387  25.601  0.00  0.00    +0.051 C 
BRANCH  11  10
ATOM      8  C   UNL     1      -2.201  -1.263  24.905  0.00  0.00    +0.177 A 
ATOM      9  C   UNL     1      -2.117  -0.459  25.070  0.00  0.00    +0.058 A 
ATOM     10  C   UNL     1      -1.356  -0.337  25.365  0.00  0.00    +0.101 A 
ATOM     28  N   UNL     1      -0.970  -1.065  25.383  0.00  0.00    -0.081 NA
ATOM     29  O   UNL     1      -1.492  -1.638  25.098  0.00  0.00    -0.354 OA
BRANCH   8   5
ATOM      1  F   UNL     1      -4.898  -2.723  23.687  0.00  0.00    -0.204 F 
ATOM      2  C   UNL     1      -4.224  -2.358  23.992  0.00  0.00    +0.140 A 
ATOM      3  C   UNL     1      -3.615  -2.816  24.312  0.00  0.00    +0.030 A 
ATOM      4  C   UNL     1      -2.941  -2.451  24.616  0.00  0.00    +0.005 A 
ATOM      5  C   UNL     1      -2.875  -1.628  24.601  0.00  0.00    +0.037 A 
ATOM      6  C   UNL     1      -3.482  -1.171  24.282  0.00  0.00    +0.005 A 
ATOM      7  C   UNL     1      -4.157  -1.536  23.977  0.00  0.00    +0.030 A 
ENDBRANCH   8   5
ENDBRANCH  11  10
ENDBRANCH  12  11
BRANCH  17  18
ATOM     18  C   UNL     1      -0.930   2.024  25.780  0.00  0.00    +0.087 C 
BRANCH  18  19
ATOM     19  C   UNL     1      -1.269   2.766  25.662  0.00  0.00    +0.242 C 
ATOM     20  O   UNL     1      -0.793   3.439  25.647  0.00  0.00    -0.273 OA
ATOM     21  N   UNL     1      -2.085   2.836  25.559  0.00  0.00    -0.197 NA
BRANCH  21  22
ATOM     22  C   UNL     1      -2.424   3.579  25.441  0.00  0.00    +0.179 C 
BRANCH  22  23
ATOM     23  C   UNL     1      -3.241   3.649  25.346  0.00  0.00    +0.145 A 
ATOM     24  C   UNL     1      -3.661   3.512  24.649  0.00  0.00    +0.038 A 
ATOM     25  C   UNL     1      -4.461   3.646  24.804  0.00  0.00    +0.043 A 
ATOM     26  C   UNL     1      -4.534   3.866  25.596  0.00  0.00    +0.179 A 
ATOM     27  O   UNL     1      -3.780   3.867  25.931  0.00  0.00    -0.453 OA
ENDBRANCH  22  23
ENDBRANCH  21  22
ENDBRANCH  18  19
ENDBRANCH  17  18
TORSDOF 7
ENDMDL
MODEL 4
REMARK VINA RESULT:     -11.9      3.158      6.483
REMARK  Name = 
REMARK  7 active torsions:
REMARK  status: ('A' for Active; 'I' for Inactive)
REMARK    1  A    between atoms: C_5  and  C_8
REMARK    2  A    between atoms: C_10  and  C_11
REMARK    3  A    between atoms: C_11  and  C_12
REMARK    4  A    between atoms: C_17  and  C_18
REMARK    5  A    between atoms: C_18  and  C_19
REMARK    6  A    between atoms: N_21  and  C_22
REMARK    7  A    between atoms: C_22  and  C_23
REMARK                            x       y       z     vdW  Elec       q    Type
REMARK                         _______ _______ _______ _____ _____    ______ ____
ROOT
ATOM     12  C   UNL     1      -0.484   0.477  24.715  0.00  0.00    +0.024 C 
ATOM     13  C   UNL     1      -0.069   0.898  24.138  0.00  0.00    +0.089 C 
ATOM     14  N   UNL     1       0.339   0.494  23.546  0.00  0.00    -0.218 NA
ATOM     15  C   UNL     1       0.333  -0.330  23.530  0.00  0.00    +0.089 C 
ATOM     16  C   UNL     1      -0.081  -0.752  24.106  0.00  0.00    +0.019 C 
ATOM     17  C   UNL     1      -0.490  -0.348  24.698  0.00  0.00    +0.012 C 
ENDROOT
BRANCH  12  11
ATOM     11  C   UNL     1      -0.892   0.880  25.307  0.00  0.00    +0.051 C 
BRANCH  11  10
ATOM      8  C   UNL     1      -0.803   3.006  25.484  0.00  0.00    +0.177 A 
ATOM      9  C   UNL     1      -1.174   2.320  25.214  0.00  0.00    +0.058 A 
ATOM     10  C   UNL     1      -0.723   1.673  25.457  0.00  0.00    +0.101 A 
ATOM     28  N   UNL     1      -0.073   1.959  25.877  0.00  0.00    -0.081 NA
ATOM     29  O   UNL     1      -0.123   2.783  25.894  0.00  0.00    -0.354 OA
BRANCH   8   5
ATOM      1  F   UNL     1      -1.856   6.097  25.009  0.00  0.00    -0.204 F 
ATOM      2  C   UNL     1      -1.593   5.324  25.128  0.00  0.00    +0.140 A 
ATOM      3  C   UNL     1      -0.852   5.093  24.847  0.00  0.00    +0.030 A 
ATOM      4  C   UNL     1      -0.588   4.320  24.966  0.00  0.00    +0.005 A 
ATOM      5  C   UNL     1      -1.066   3.779  25.365  0.00  0.00    +0.037 A 
ATOM      6  C   UNL     1      -1.807   4.010  25.645  0.00  0.00    +0.005 A 
ATOM      7  C   UNL     1      -2.070   4.782  25.526  0.00  0.00    +0.030 A 
ENDBRANCH   8   5
ENDBRANCH  11  10
ENDBRANCH  12  11
BRANCH  17  18
ATOM     18  C   UNL     1      -0.904  -0.769  25.274  0.00  0.00    +0.087 C 
BRANCH  18  19
ATOM     19  C   UNL     1      -1.272  -1.481  25.080  0.00  0.00    +0.242 C 
ATOM     20  O   UNL     1      -0.837  -2.182  25.073  0.00  0.00    -0.273 OA
ATOM     21  N   UNL     1      -2.075  -1.493  24.893  0.00  0.00    -0.197 NA
BRANCH  21  22
ATOM     22  C   UNL     1      -2.444  -2.206  24.699  0.00  0.00    +0.179 C 
BRANCH  22  23
ATOM     23  C   UNL     1      -3.205  -2.203  24.382  0.00  0.00    +0.145 A 
ATOM     24  C   UNL     1      -3.669  -2.869  24.228  0.00  0.00    +0.038 A 
ATOM     25  C   UNL     1      -4.387  -2.612  23.914  0.00  0.00    +0.043 A 
ATOM     26  C   UNL     1      -4.368  -1.788  23.874  0.00  0.00    +0.179 A 
ATOM     27  O   UNL     1      -3.638  -1.535  24.163  0.00  0.00    -0.453 OA
ENDBRANCH  22  23
ENDBRANCH  21  22
ENDBRANCH  18  19
ENDBRANCH  17  18
TORSDOF 7
ENDMDL
MODEL 5
REMARK VINA RESULT:     -11.5      2.662      4.911
REMARK  Name = 
REMARK  7 active torsions:
REMARK  status: ('A' for Active; 'I' for Inactive)
REMARK    1  A    between atoms: C_5  and  C_8
REMARK    2  A    between atoms: C_10  and  C_11
REMARK    3  A    between atoms: C_11  and  C_12
REMARK    4  A    between atoms: C_17  and  C_18
REMARK    5  A    between atoms: C_18  and  C_19
REMARK    6  A    between atoms: N_21  and  C_22
REMARK    7  A    between atoms: C_22  and  C_23
REMARK                            x       y       z     vdW  Elec       q    Type
REMARK                         _______ _______ _______ _____ _____    ______ ____
ROOT
ATOM     12  C   UNL     1      -3.796  -1.210  24.838  0.00  0.00    +0.024 C 
ATOM     13  C   UNL     1      -4.456  -1.361  24.366  0.00  0.00    +0.089 C 
ATOM     14  N   UNL     1      -4.453  -2.000  23.844  0.00  0.00    -0.218 NA
ATOM     15  C   UNL     1      -3.789  -2.487  23.793  0.00  0.00    +0.089 C 
ATOM     16  C   UNL     1      -3.129  -2.337  24.264  0.00  0.00    +0.019 C 
ATOM     17  C   UNL     1      -3.133  -1.698  24.787  0.00  0.00    +0.012 C 
ENDROOT
BRANCH  12  11
ATOM     11  C   UNL     1      -3.800  -0.572  25.360  0.00  0.00    +0.051 C 
BRANCH  11  10
ATOM      8  C   UNL     1      -4.376   1.405  24.795  0.00  0.00    +0.177 A 
ATOM      9  C   UNL     1      -3.795   0.849  24.982  0.00  0.00    +0.058 A 
ATOM     10  C   UNL     1      -4.171   0.133  25.147  0.00  0.00    +0.101 A 
ATOM     28  N   UNL     1      -4.984   0.247  25.062  0.00  0.00    -0.081 NA
ATOM     29  O   UNL     1      -5.110   1.033  24.844  0.00  0.00    -0.354 OA
BRANCH   8   5
ATOM      1  F   UNL     1      -3.850   4.562  23.991  0.00  0.00    -0.204 F 
ATOM      2  C   UNL     1      -3.981   3.773  24.192  0.00  0.00    +0.140 A 
ATOM      3  C   UNL     1      -3.763   3.172  23.669  0.00  0.00    +0.030 A 
ATOM      4  C   UNL     1      -3.895   2.382  23.870  0.00  0.00    +0.005 A 
ATOM      5  C   UNL     1      -4.244   2.194  24.594  0.00  0.00    +0.037 A 
ATOM      6  C   UNL     1      -4.462   2.794  25.116  0.00  0.00    +0.005 A 
ATOM      7  C   UNL     1      -4.330   3.583  24.915  0.00  0.00    +0.030 A 
ENDBRANCH   8   5
ENDBRANCH  11  10
ENDBRANCH  12  11
BRANCH  17  18
ATOM     18  C   UNL     1      -2.473  -1.547  25.258  0.00  0.00    +0.087 C 
BRANCH  18  19
ATOM     19  C   UNL     1      -1.715  -1.669  24.958  0.00  0.00    +0.242 C 
ATOM     20  O   UNL     1      -1.416  -2.435  24.889  0.00  0.00    -0.273 OA
ATOM     21  N   UNL     1      -1.254  -1.025  24.726  0.00  0.00    -0.197 NA
BRANCH  21  22
ATOM     22  C   UNL     1      -0.495  -1.147  24.425  0.00  0.00    +0.179 C 
BRANCH  22  23
ATOM     23  C   UNL     1      -0.099  -0.532  24.044  0.00  0.00    +0.145 A 
ATOM     24  C   UNL     1      -0.188   0.274  24.203  0.00  0.00    +0.038 A 
ATOM     25  C   UNL     1       0.311   0.690  23.695  0.00  0.00    +0.043 A 
ATOM     26  C   UNL     1       0.709   0.142  23.223  0.00  0.00    +0.179 A 
ATOM     27  O   UNL     1       0.456  -0.612  23.439  0.00  0.00    -0.453 OA
ENDBRANCH  22  23
ENDBRANCH  21  22
ENDBRANCH  18  19
ENDBRANCH  17  18
TORSDOF 7
ENDMDL
MODEL 6
REMARK VINA RESULT:     -11.2      2.523      5.348
REMARK  Name = 
REMARK  7 active torsions:
REMARK  status: ('A' for Active; 'I' for Inactive)
REMARK    1  A    between atoms: C_5  and  C_8
REMARK    2  A    between atoms: C_10  and  C_11
REMARK    3  A    between atoms: C_11  and  C_12
REMARK    4  A    between atoms: C_17  and  C_18
REMARK    5  A    between atoms: C_18  and  C_19
REMARK    6  A    between atoms: N_21  and  C_22
REMARK    7  A    between atoms: C_22  and  C_23
REMARK                            x       y       z     vdW  Elec       q    Type
REMARK                         _______ _______ _______ _____ _____    ______ ____
ROOT
ATOM     12  C   UNL     1      -1.606   0.160  24.736  0.00  0.00    +0.024 C 
ATOM     13  C   UNL     1      -1.027  -0.101  25.263  0.00  0.00    +0.089 C 
ATOM     14  N   UNL     1      -1.207  -0.685  25.816  0.00  0.00    -0.218 NA
ATOM     15  C   UNL     1      -1.966  -1.009  25.844  0.00  0.00    +0.089 C 
ATOM     16  C   UNL     1      -2.545  -0.748  25.317  0.00  0.00    +0.019 C 
ATOM     17  C   UNL     1      -2.364  -0.163  24.763  0.00  0.00    +0.012 C 
ENDROOT
BRANCH  12  11
ATOM     11  C   UNL     1      -1.426   0.744  24.182  0.00  0.00    +0.051 C 
BRANCH  11  10
ATOM      8  C   UNL     1      -0.904   2.735  24.749  0.00  0.00    +0.177 A 
ATOM      9  C   UNL     1      -1.457   2.183  24.484  0.00  0.00    +0.058 A 
ATOM     10  C   UNL     1      -1.079   1.451  24.427  0.00  0.00    +0.101 A 
ATOM     28  N   UNL     1      -0.293   1.552  24.656  0.00  0.00    -0.081 NA
ATOM     29  O   UNL     1      -0.185   2.346  24.856  0.00  0.00    -0.354 OA
BRANCH   8   5
ATOM      1  F   UNL     1      -1.472   5.941  25.289  0.00  0.00    -0.204 F 
ATOM      2  C   UNL     1      -1.330   5.140  25.154  0.00  0.00    +0.140 A 
ATOM      3  C   UNL     1      -0.680   4.906  24.701  0.00  0.00    +0.030 A 
ATOM      4  C   UNL     1      -0.538   4.104  24.567  0.00  0.00    +0.005 A 
ATOM      5  C   UNL     1      -1.046   3.537  24.884  0.00  0.00    +0.037 A 
ATOM      6  C   UNL     1      -1.695   3.770  25.336  0.00  0.00    +0.005 A 
ATOM      7  C   UNL     1      -1.837   4.571  25.471  0.00  0.00    +0.030 A 
ENDBRANCH   8   5
ENDBRANCH  11  10
ENDBRANCH  12  11
BRANCH  17  18
ATOM     18  C   UNL     1      -2.944   0.098  24.236  0.00  0.00    +0.087 C 
BRANCH  18  19
ATOM     19  C   UNL     1      -3.734   0.116  24.468  0.00  0.00    +0.242 C 
ATOM     20  O   UNL     1      -4.168  -0.585  24.510  0.00  0.00    -0.273 OA
ATOM     21  N   UNL     1      -4.093   0.834  24.658  0.00  0.00    -0.197 NA
BRANCH  21  22
ATOM     22  C   UNL     1      -4.885   0.852  24.889  0.00  0.00    +0.179 C 
BRANCH  22  23
ATOM     23  C   UNL     1      -5.216   1.553  25.172  0.00  0.00    +0.145 A 
ATOM     24  C   UNL     1      -5.158   2.295  24.814  0.00  0.00    +0.038 A 
ATOM     25  C   UNL     1      -5.569   2.836  25.282  0.00  0.00    +0.043 A 
ATOM     26  C   UNL     1      -5.880   2.428  25.929  0.00  0.00    +0.179 A 
ATOM     27  O   UNL     1      -5.662   1.636  25.861  0.00  0.00    -0.453 OA
ENDBRANCH  22  23
ENDBRANCH  21  22
ENDBRANCH  18  19
ENDBRANCH  17  18
TORSDOF 7
ENDMDL
MODEL 7
REMARK VINA RESULT:     -11.1      2.288      5.076
REMARK  Name = 
REMARK  7 active torsions:
REMARK  status: ('A' for Active; 'I' for Inactive)
REMARK    1  A    between atoms: C_5  and  C_8
REMARK    2  A    between atoms: C_10  and  C_11
REMARK    3  A    between atoms: C_11  and  C_12
REMARK    4  A    between atoms: C_17  and  C_18
REMARK    5  A    between atoms: C_18  and  C_19
REMARK    6  A    between atoms: N_21  and  C_22
REMARK    7  A    between atoms: C_22  and  C_23
REMARK                            x       y       z     vdW  Elec       q    Type
REMARK                         _______ _______ _______ _____ _____    ______ ____
ROOT
ATOM     12  C   UNL     1      -1.128   2.636  24.810  0.00  0.00    +0.024 C 
ATOM     13  C   UNL     1      -1.026   3.194  25.410  0.00  0.00    +0.089 C 
ATOM     14  N   UNL     1      -0.443   3.082  25.981  0.00  0.00    -0.218 NA
ATOM     15  C   UNL     1       0.039   2.414  25.954  0.00  0.00    +0.089 C 
ATOM     16  C   UNL     1      -0.062   1.856  25.355  0.00  0.00    +0.019 C 
ATOM     17  C   UNL     1      -0.646   1.968  24.782  0.00  0.00    +0.012 C 
ENDROOT
BRANCH  12  11
ATOM     11  C   UNL     1      -1.712   2.748  24.238  0.00  0.00    +0.051 C 
BRANCH  11  10
ATOM      8  C   UNL     1      -3.753   2.955  24.827  0.00  0.00    +0.177 A 
ATOM      9  C   UNL     1      -3.105   2.485  24.626  0.00  0.00    +0.058 A 
ATOM     10  C   UNL     1      -2.469   2.985  24.462  0.00  0.00    +0.101 A 
ATOM     28  N   UNL     1      -2.724   3.763  24.561  0.00  0.00    -0.081 NA
ATOM     29  O   UNL     1      -3.518   3.745  24.787  0.00  0.00    -0.354 OA
BRANCH   8   5
ATOM      1  F   UNL     1      -6.758   1.866  25.646  0.00  0.00    -0.204 F 
ATOM      2  C   UNL     1      -6.007   2.138  25.442  0.00  0.00    +0.140 A 
ATOM      3  C   UNL     1      -5.692   2.802  25.818  0.00  0.00    +0.030 A 
ATOM      4  C   UNL     1      -4.940   3.075  25.613  0.00  0.00    +0.005 A 
ATOM      5  C   UNL     1      -4.504   2.683  25.032  0.00  0.00    +0.037 A 
ATOM      6  C   UNL     1      -4.819   2.020  24.656  0.00  0.00    +0.005 A 
ATOM      7  C   UNL     1      -5.570   1.748  24.861  0.00  0.00    +0.030 A 
ENDBRANCH   8   5
ENDBRANCH  11  10
ENDBRANCH  12  11
BRANCH  17  18
ATOM     18  C   UNL     1      -0.747   1.410  24.183  0.00  0.00    +0.087 C 
BRANCH  18  19
ATOM     19  C   UNL     1      -0.507   0.630  24.300  0.00  0.00    +0.242 C 
ATOM     20  O   UNL     1       0.296   0.441  24.295  0.00  0.00    -0.273 OA
ATOM     21  N   UNL     1      -1.069   0.038  24.421  0.00  0.00    -0.197 NA
BRANCH  21  22
ATOM     22  C   UNL     1      -0.828  -0.743  24.538  0.00  0.00    +0.179 C 
BRANCH  22  23
ATOM     23  C   UNL     1      -1.391  -1.343  24.598  0.00  0.00    +0.145 A 
ATOM     24  C   UNL     1      -2.083  -1.315  25.047  0.00  0.00    +0.038 A 
ATOM     25  C   UNL     1      -2.481  -2.030  24.946  0.00  0.00    +0.043 A 
ATOM     26  C   UNL     1      -2.035  -2.500  24.435  0.00  0.00    +0.179 A 
ATOM     27  O   UNL     1      -1.362  -2.075  24.220  0.00  0.00    -0.453 OA
ENDBRANCH  22  23
ENDBRANCH  21  22
ENDBRANCH  18  19
ENDBRANCH  17  18
TORSDOF 7
ENDMDL
MODEL 8
REMARK VINA RESULT:      -8.8     16.630     19.012
REMARK  Name = 
REMARK  7 active torsions:
REMARK  status: ('A' for Active; 'I' for Inactive)
REMARK    1  A    between atoms: C_5  and  C_8
REMARK    2  A    between atoms: C_10  and  C_11
REMARK    3  A    between atoms: C_11  and  C_12
REMARK    4  A    between atoms: C_17  and  C_18
REMARK    5  A    between atoms: C_18  and  C_19
REMARK    6  A    between atoms: N_21  and  C_22
REMARK    7  A    between atoms: C_22  and  C_23
REMARK                            x       y       z     vdW  Elec       q    Type
REMARK                         _______ _______ _______ _____ _____    ______ ____
ROOT
ATOM     12  C   UNL     1      12.405   7.580  21.134  0.00  0.00    +0.024 C 
ATOM     13  C   UNL     1      12.422   6.925  21.637  0.00  0.00    +0.089 C 
ATOM     14  N   UNL     1      11.747   6.461  21.732  0.00  0.00    -0.218 NA
ATOM     15  C   UNL     1      11.055   6.650  21.325  0.00  0.00    +0.089 C 
ATOM     16  C   UNL     1      11.038   7.304  20.822  0.00  0.00    +0.019 C 
ATOM     17  C   UNL     1      11.714   7.768  20.726  0.00  0.00    +0.012 C 
ENDROOT
BRANCH  12  11
ATOM     11  C   UNL     1      13.080   8.044  21.039  0.00  0.00    +0.051 C 
BRANCH  11  10
ATOM      8  C   UNL     1      14.980   7.113  20.756  0.00  0.00    +0.177 A 
ATOM      9  C   UNL     1      14.269   7.405  20.456  0.00  0.00    +0.058 A 
ATOM     10  C   UNL     1      13.828   7.700  21.088  0.00  0.00    +0.101 A 
ATOM     28  N   UNL     1      14.267   7.591  21.778  0.00  0.00    -0.081 NA
ATOM     29  O   UNL     1      14.979   7.228  21.572  0.00  0.00    -0.354 OA
BRANCH   8   5
ATOM      1  F   UNL     1      17.404   5.730  18.994  0.00  0.00    -0.204 F 
ATOM      2  C   UNL     1      16.798   6.075  19.435  0.00  0.00    +0.140 A 
ATOM      3  C   UNL     1      16.866   6.133  20.256  0.00  0.00    +0.030 A 
ATOM      4  C   UNL     1      16.260   6.479  20.696  0.00  0.00    +0.005 A 
ATOM      5  C   UNL     1      15.586   6.767  20.315  0.00  0.00    +0.037 A 
ATOM      6  C   UNL     1      15.519   6.709  19.496  0.00  0.00    +0.005 A 
ATOM      7  C   UNL     1      16.125   6.364  19.055  0.00  0.00    +0.030 A 
ENDBRANCH   8   5
ENDBRANCH  11  10
ENDBRANCH  12  11
BRANCH  17  18
ATOM     18  C   UNL     1      11.696   8.422  20.223  0.00  0.00    +0.087 C 
BRANCH  18  19
ATOM     19  C   UNL     1      11.158   8.449  19.600  0.00  0.00    +0.242 C 
ATOM     20  O   UNL     1      10.348   8.395  19.751  0.00  0.00    -0.273 OA
ATOM     21  N   UNL     1      11.428   8.530  18.824  0.00  0.00    -0.197 NA
BRANCH  21  22
ATOM     22  C   UNL     1      10.888   8.557  18.200  0.00  0.00    +0.179 C 
BRANCH  22  23
ATOM     23  C   UNL     1      11.152   8.713  17.434  0.00  0.00    +0.145 A 
ATOM     24  C   UNL     1      10.691   8.694  16.749  0.00  0.00    +0.038 A 
ATOM     25  C   UNL     1      11.176   8.885  16.110  0.00  0.00    +0.043 A 
ATOM     26  C   UNL     1      11.937   9.022  16.400  0.00  0.00    +0.179 A 
ATOM     27  O   UNL     1      11.922   8.916  17.217  0.00  0.00    -0.453 OA
ENDBRANCH  22  23
ENDBRANCH  21  22
ENDBRANCH  18  19
ENDBRANCH  17  18
TORSDOF 7
ENDMDL
