REMARK  Name = 
REMARK  6 active torsions:
REMARK  status: ('A' for Active; 'I' for Inactive)
REMARK    1  A    between atoms: C_4  and  C_7
REMARK    2  A    between atoms: N_9  and  C_10
REMARK    3  A    between atoms: C_13  and  C_16
REMARK    4  A    between atoms: N_21  and  C_22
REMARK    5  A    between atoms: C_22  and  C_23
REMARK    6  A    between atoms: C_29  and  C_30
REMARK                            x       y       z     vdW  Elec       q    Type
REMARK                         _______ _______ _______ _____ _____    ______ ____
ROOT
ATOM     16  C   UNL     1      10.696  -2.230   0.000  0.00  0.00    +0.159 C 
ATOM     17  O   UNL     1      11.516  -2.144   0.000  0.00  0.00    -0.341 OA
ATOM     18  C   UNL     1      12.001  -2.812   0.000  0.00  0.00    +0.227 C 
ATOM     19  C   UNL     1      11.665  -3.565   0.000  0.00  0.00    +0.256 C 
ATOM     20  O   UNL     1      12.150  -4.233   0.000  0.00  0.00    -0.272 OA
ATOM     21  N   UNL     1      10.845  -3.651   0.000  0.00  0.00    -0.270 N 
ATOM     29  C   UNL     1      10.360  -2.984   0.000  0.00  0.00    +0.140 C 
ENDROOT
BRANCH  16  13
ATOM     10  C   UNL     1       9.241  -0.228   0.000  0.00  0.00    +0.074 A 
ATOM     11  C   UNL     1      10.061  -0.142   0.000  0.00  0.00    +0.016 A 
ATOM     12  C   UNL     1      10.546  -0.809   0.000  0.00  0.00    -0.001 A 
ATOM     13  C   UNL     1      10.211  -1.563   0.000  0.00  0.00    +0.006 A 
ATOM     14  C   UNL     1       9.390  -1.649   0.000  0.00  0.00    -0.001 A 
ATOM     15  C   UNL     1       8.905  -0.982   0.000  0.00  0.00    +0.016 A 
BRANCH  10   9
ATOM      7  C   UNL     1       7.935   0.353   0.000  0.00  0.00    +0.290 C 
ATOM      8  O   UNL     1       7.600  -0.401   0.000  0.00  0.00    -0.266 OA
ATOM      9  N   UNL     1       8.756   0.439   0.000  0.00  0.00    -0.174 NA
BRANCH   7   4
ATOM      1  C   UNL     1       7.038   3.115   0.000  0.00  0.00    +0.075 C 
ATOM      2  C   UNL     1       7.038   2.290   0.000  0.00  0.00    +0.155 A 
ATOM      3  C   UNL     1       7.705   1.805   0.000  0.00  0.00    +0.063 A 
ATOM      4  C   UNL     1       7.450   1.021   0.000  0.00  0.00    +0.178 A 
ATOM      5  N   UNL     1       6.625   1.021   0.000  0.00  0.00    -0.073 NA
ATOM      6  O   UNL     1       6.371   1.805   0.000  0.00  0.00    -0.358 OA
ENDBRANCH   7   4
ENDBRANCH  10   9
ENDBRANCH  16  13
BRANCH  29  30
ATOM     30  C   UNL     1       9.540  -3.070   0.000  0.00  0.00    +0.205 C 
ATOM     31  O   UNL     1       9.055  -2.403   0.000  0.00  0.00    -0.218 OA
ENDBRANCH  29  30
BRANCH  21  22
ATOM     22  C   UNL     1      10.509  -4.405   0.000  0.00  0.00    +0.122 C 
BRANCH  22  23
ATOM     23  C   UNL     1       9.689  -4.491   0.000  0.00  0.00    +0.017 A 
ATOM     24  C   UNL     1       9.353  -5.245   0.000  0.00  0.00    +0.001 A 
ATOM     25  C   UNL     1       8.533  -5.331   0.000  0.00  0.00    +0.020 A 
ATOM     26  C   UNL     1       8.048  -4.664   0.000  0.00  0.00    +0.099 A 
ATOM     27  N   UNL     1       8.383  -3.910   0.000  0.00  0.00    -0.243 NA
ATOM     28  C   UNL     1       9.204  -3.824   0.000  0.00  0.00    +0.096 A 
ENDBRANCH  22  23
ENDBRANCH  21  22
TORSDOF 6
