REMARK  Name = 
REMARK  5 active torsions:
REMARK  status: ('A' for Active; 'I' for Inactive)
REMARK    1  A    between atoms: S_2  and  N_4
REMARK    2  A    between atoms: S_2  and  C_24
REMARK    3  A    between atoms: N_4  and  C_5
REMARK    4  A    between atoms: C_9  and  N_13
REMARK    5  A    between atoms: C_17  and  C_18
REMARK                            x       y       z     vdW  Elec       q    Type
REMARK                         _______ _______ _______ _____ _____    ______ ____
ROOT
ATOM      5  C   UNL     1      -1.429   0.000   0.000  0.00  0.00    +0.157 C 
ATOM      6  C   UNL     1      -1.515  -0.821   0.000  0.00  0.00    +0.164 C 
ATOM      7  O   UNL     1      -2.322  -0.992   0.000  0.00  0.00    -0.350 OA
ATOM      8  C   UNL     1      -2.735  -0.278   0.000  0.00  0.00    +0.169 C 
ATOM      9  C   UNL     1      -3.488   0.058   0.000  0.00  0.00    +0.167 C 
ATOM     10  C   UNL     1      -3.402   0.878   0.000  0.00  0.00    +0.169 C 
ATOM     11  O   UNL     1      -2.595   1.050   0.000  0.00  0.00    -0.350 OA
ATOM     12  C   UNL     1      -2.183   0.336   0.000  0.00  0.00    +0.164 C 
ENDROOT
BRANCH   9  13
ATOM     13  N   UNL     1      -4.203  -0.354   0.000  0.00  0.00    -0.210 N 
ATOM     14  N   UNL     1      -4.289  -1.175   0.000  0.00  0.00    -0.043 NA
ATOM     15  N   UNL     1      -5.096  -1.347   0.000  0.00  0.00    -0.023 NA
ATOM     16  N   UNL     1      -5.508  -0.632   0.000  0.00  0.00    -0.108 NA
ATOM     17  C   UNL     1      -4.957  -0.019   0.000  0.00  0.00    +0.184 A 
BRANCH  17  18
ATOM     18  C   UNL     1      -5.128   0.788   0.000  0.00  0.00    +0.037 A 
ATOM     19  C   UNL     1      -5.913   1.043   0.000  0.00  0.00    +0.003 A 
ATOM     20  C   UNL     1      -6.084   1.850   0.000  0.00  0.00    +0.000 A 
ATOM     21  C   UNL     1      -5.471   2.402   0.000  0.00  0.00    +0.000 A 
ATOM     22  C   UNL     1      -4.686   2.147   0.000  0.00  0.00    +0.000 A 
ATOM     23  C   UNL     1      -4.515   1.340   0.000  0.00  0.00    +0.003 A 
ENDBRANCH  17  18
ENDBRANCH   9  13
BRANCH   5   4
ATOM      4  N   UNL     1      -0.715   0.412   0.000  0.00  0.00    -0.074 NA
BRANCH   4   2
ATOM      1  O   UNL     1      -0.412  -0.715   0.000  0.00  0.00    -0.152 OA
ATOM      2  S   UNL     1       0.000   0.000   0.000  0.00  0.00    +0.077 S 
ATOM      3  O   UNL     1       0.412   0.715   0.000  0.00  0.00    -0.152 OA
BRANCH   2  24
ATOM     24  C   UNL     1       0.715  -0.412   0.000  0.00  0.00    +0.124 A 
ATOM     25  C   UNL     1       1.429   0.000   0.000  0.00  0.00    +0.020 A 
ATOM     26  C   UNL     1       2.143  -0.412   0.000  0.00  0.00    +0.001 A 
ATOM     27  C   UNL     1       2.858   0.000   0.000  0.00  0.00    +0.000 A 
ATOM     28  C   UNL     1       3.572  -0.412   0.000  0.00  0.00    +0.000 A 
ATOM     29  C   UNL     1       3.572  -1.238   0.000  0.00  0.00    +0.000 A 
ATOM     30  C   UNL     1       2.858  -1.650   0.000  0.00  0.00    +0.000 A 
ATOM     31  C   UNL     1       2.143  -1.238   0.000  0.00  0.00    +0.000 A 
ATOM     32  C   UNL     1       1.429  -1.650   0.000  0.00  0.00    +0.001 A 
ATOM     33  C   UNL     1       0.715  -1.238   0.000  0.00  0.00    +0.020 A 
ENDBRANCH   2  24
ENDBRANCH   4   2
ENDBRANCH   5   4
TORSDOF 5
