REMARK  Name = 
REMARK  5 active torsions:
REMARK  status: ('A' for Active; 'I' for Inactive)
REMARK    1  A    between atoms: O_2  and  C_3
REMARK    2  A    between atoms: C_6  and  C_9
REMARK    3  A    between atoms: C_15  and  N_16
REMARK    4  A    between atoms: C_17  and  C_19
REMARK    5  A    between atoms: C_24  and  C_25
REMARK                            x       y       z     vdW  Elec       q    Type
REMARK                         _______ _______ _______ _____ _____    ______ ____
ROOT
ATOM      9  C   UNL     1       4.232  -0.846   0.000  0.00  0.00    +0.048 C 
ATOM     10  C   UNL     1       3.564  -1.331   0.000  0.00  0.00    +0.042 C 
ATOM     11  C   UNL     1       3.819  -2.115   0.000  0.00  0.00    +0.184 C 
ATOM     12  O   UNL     1       3.334  -2.783   0.000  0.00  0.00    -0.220 OA
ATOM     13  C   UNL     1       4.644  -2.115   0.000  0.00  0.00    +0.202 C 
ATOM     14  O   UNL     1       5.129  -2.783   0.000  0.00  0.00    -0.219 OA
ATOM     15  C   UNL     1       4.899  -1.331   0.000  0.00  0.00    +0.132 C 
ENDROOT
BRANCH   9   6
ATOM      3  C   UNL     1       4.232   1.629   0.000  0.00  0.00    +0.139 A 
ATOM      4  C   UNL     1       4.946   1.217   0.000  0.00  0.00    +0.037 A 
ATOM      5  C   UNL     1       4.946   0.392   0.000  0.00  0.00    -0.001 A 
ATOM      6  C   UNL     1       4.232  -0.021   0.000  0.00  0.00    -0.020 A 
ATOM      7  C   UNL     1       3.517   0.392   0.000  0.00  0.00    -0.001 A 
ATOM      8  C   UNL     1       3.517   1.217   0.000  0.00  0.00    +0.037 A 
BRANCH   3   2
ATOM      1  C   UNL     1       3.517   2.867   0.000  0.00  0.00    +0.252 C 
ATOM      2  O   UNL     1       4.232   2.454   0.000  0.00  0.00    -0.471 OA
ENDBRANCH   3   2
ENDBRANCH   9   6
BRANCH  15  16
ATOM     16  N   UNL     1       5.684  -1.076   0.000  0.00  0.00    -0.200 NA
ATOM     17  C   UNL     1       6.297  -1.628   0.000  0.00  0.00    +0.269 C 
ATOM     18  O   UNL     1       6.125  -2.435   0.000  0.00  0.00    -0.268 OA
BRANCH  17  19
ATOM     19  C   UNL     1       7.082  -1.373   0.000  0.00  0.00    +0.109 A 
ATOM     20  C   UNL     1       7.336  -0.588   0.000  0.00  0.00    +0.159 A 
ATOM     21  C   UNL     1       6.851   0.079   0.000  0.00  0.00    +0.076 C 
ATOM     22  O   UNL     1       8.161  -0.588   0.000  0.00  0.00    -0.358 OA
ATOM     23  N   UNL     1       8.416  -1.373   0.000  0.00  0.00    -0.077 NA
ATOM     24  C   UNL     1       7.749  -1.858   0.000  0.00  0.00    +0.127 A 
BRANCH  24  25
ATOM     25  C   UNL     1       7.749  -2.683   0.000  0.00  0.00    +0.021 A 
ATOM     26  C   UNL     1       8.463  -3.095   0.000  0.00  0.00    +0.002 A 
ATOM     27  C   UNL     1       8.463  -3.920   0.000  0.00  0.00    +0.000 A 
ATOM     28  C   UNL     1       7.749  -4.333   0.000  0.00  0.00    +0.000 A 
ATOM     29  C   UNL     1       7.034  -3.920   0.000  0.00  0.00    +0.000 A 
ATOM     30  C   UNL     1       7.034  -3.095   0.000  0.00  0.00    +0.002 A 
ENDBRANCH  24  25
ENDBRANCH  17  19
ENDBRANCH  15  16
TORSDOF 5
