REMARK  Name = 
REMARK  5 active torsions:
REMARK  status: ('A' for Active; 'I' for Inactive)
REMARK    1  A    between atoms: O_2  and  C_3
REMARK    2  A    between atoms: C_6  and  C_9
REMARK    3  A    between atoms: N_11  and  C_12
REMARK    4  A    between atoms: N_22  and  C_23
REMARK    5  A    between atoms: C_23  and  C_24
REMARK                            x       y       z     vdW  Elec       q    Type
REMARK                         _______ _______ _______ _____ _____    ______ ____
ROOT
ATOM     12  C   UNL     1       1.413  -6.376   0.000  0.00  0.00    +0.146 C 
ATOM     13  C   UNL     1       2.157  -6.734   0.000  0.00  0.00    +0.119 C 
ATOM     14  N   UNL     1       2.340  -7.538   0.000  0.00  0.00    -0.261 N 
ATOM     15  C   UNL     1       1.826  -8.183   0.000  0.00  0.00    +0.095 C 
ATOM     16  C   UNL     1       1.001  -8.183   0.000  0.00  0.00    +0.024 C 
ATOM     17  C   UNL     1       0.487  -7.538   0.000  0.00  0.00    +0.037 C 
ATOM     18  C   UNL     1       0.670  -6.734   0.000  0.00  0.00    +0.174 C 
ATOM     19  O   UNL     1       0.025  -6.220   0.000  0.00  0.00    -0.221 OA
ATOM     20  C   UNL     1       3.145  -7.722   0.000  0.00  0.00    +0.324 C 
ATOM     21  O   UNL     1       3.706  -7.117   0.000  0.00  0.00    -0.251 OA
ATOM     22  N   UNL     1       3.388  -8.510   0.000  0.00  0.00    -0.184 NA
ENDROOT
BRANCH  12  11
ATOM      9  C   UNL     1       0.699  -5.138   0.000  0.00  0.00    +0.265 C 
ATOM     10  O   UNL     1      -0.015  -5.551   0.000  0.00  0.00    -0.268 OA
ATOM     11  N   UNL     1       1.413  -5.551   0.000  0.00  0.00    -0.199 NA
BRANCH   9   6
ATOM      3  C   UNL     1       0.699  -2.663   0.000  0.00  0.00    +0.139 A 
ATOM      4  C   UNL     1       1.413  -3.076   0.000  0.00  0.00    +0.037 A 
ATOM      5  C   UNL     1       1.413  -3.901   0.000  0.00  0.00    +0.008 A 
ATOM      6  C   UNL     1       0.699  -4.314   0.000  0.00  0.00    +0.055 A 
ATOM      7  C   UNL     1      -0.015  -3.901   0.000  0.00  0.00    +0.008 A 
ATOM      8  C   UNL     1      -0.015  -3.076   0.000  0.00  0.00    +0.037 A 
BRANCH   3   2
ATOM      1  C   UNL     1      -0.015  -1.426   0.000  0.00  0.00    +0.252 C 
ATOM      2  O   UNL     1       0.699  -1.839   0.000  0.00  0.00    -0.471 OA
ENDBRANCH   3   2
ENDBRANCH   9   6
ENDBRANCH  12  11
BRANCH  22  23
ATOM     23  C   UNL     1       4.192  -8.694   0.000  0.00  0.00    +0.143 C 
BRANCH  23  24
ATOM     24  C   UNL     1       4.435  -9.482   0.000  0.00  0.00    -0.001 A 
ATOM     25  C   UNL     1       5.240  -9.666   0.000  0.00  0.00    -0.003 A 
ATOM     26  C   UNL     1       5.483 -10.454   0.000  0.00  0.00    -0.000 A 
ATOM     27  C   UNL     1       4.922 -11.059   0.000  0.00  0.00    -0.000 A 
ATOM     28  C   UNL     1       4.117 -10.875   0.000  0.00  0.00    -0.000 A 
ATOM     29  C   UNL     1       3.874 -10.087   0.000  0.00  0.00    -0.003 A 
ENDBRANCH  23  24
ENDBRANCH  22  23
TORSDOF 5
