MODEL 1
REMARK VINA RESULT:     -10.9      0.000      0.000
REMARK  Name = 
REMARK  6 active torsions:
REMARK  status: ('A' for Active; 'I' for Inactive)
REMARK    1  A    between atoms: C_3  and  N_18
REMARK    2  A    between atoms: C_6  and  C_7
REMARK    3  A    between atoms: C_7  and  N_8
REMARK    4  A    between atoms: N_11  and  C_12
REMARK    5  A    between atoms: N_18  and  C_19
REMARK    6  A    between atoms: C_19  and  C_20
REMARK                            x       y       z     vdW  Elec       q    Type
REMARK                         _______ _______ _______ _____ _____    ______ ____
ROOT
ATOM      1  O   UNL     1      -3.403   1.081  23.678  0.00  0.00    -0.219 OA
ATOM      2  C   UNL     1      -3.943   1.127  24.301  0.00  0.00    +0.199 C 
ATOM      3  C   UNL     1      -4.367   0.496  24.622  0.00  0.00    +0.135 C 
ATOM      4  C   UNL     1      -4.839   0.791  25.230  0.00  0.00    +0.162 C 
ATOM      5  O   UNL     1      -4.708   1.603  25.286  0.00  0.00    -0.350 OA
ATOM      6  C   UNL     1      -4.153   1.811  24.710  0.00  0.00    +0.169 C 
ENDROOT
BRANCH   6   7
ATOM      7  C   UNL     1      -3.861   2.570  24.571  0.00  0.00    +0.149 C 
BRANCH   7   8
ATOM      8  N   UNL     1      -3.401   2.947  25.141  0.00  0.00    -0.184 NA
ATOM      9  C   UNL     1      -2.835   3.502  24.915  0.00  0.00    +0.344 C 
ATOM     10  O   UNL     1      -2.729   3.679  24.116  0.00  0.00    -0.249 OA
ATOM     11  N   UNL     1      -2.375   3.879  25.486  0.00  0.00    -0.161 NA
BRANCH  11  12
ATOM     12  C   UNL     1      -1.809   4.434  25.259  0.00  0.00    +0.075 A 
ATOM     13  C   UNL     1      -2.003   5.236  25.232  0.00  0.00    +0.017 A 
ATOM     14  C   UNL     1      -1.437   5.790  25.005  0.00  0.00    +0.001 A 
ATOM     15  C   UNL     1      -0.675   5.544  24.805  0.00  0.00    +0.000 A 
ATOM     16  C   UNL     1      -0.480   4.743  24.831  0.00  0.00    +0.001 A 
ATOM     17  C   UNL     1      -1.047   4.188  25.059  0.00  0.00    +0.017 A 
ENDBRANCH  11  12
ENDBRANCH   7   8
ENDBRANCH   6   7
BRANCH   3  18
ATOM     18  N   UNL     1      -4.326  -0.291  24.378  0.00  0.00    -0.209 NA
BRANCH  18  19
ATOM     19  C   UNL     1      -4.158  -0.885  24.926  0.00  0.00    +0.117 C 
BRANCH  19  20
ATOM     20  C   UNL     1      -3.976  -1.646  24.666  0.00  0.00    +0.023 A 
ATOM     21  C   UNL     1      -4.269  -1.917  23.944  0.00  0.00    -0.001 A 
ATOM     22  C   UNL     1      -4.087  -2.678  23.684  0.00  0.00    -0.000 A 
ATOM     23  C   UNL     1      -3.612  -3.169  24.146  0.00  0.00    +0.002 A 
ATOM     24  C   UNL     1      -3.318  -2.898  24.868  0.00  0.00    +0.029 A 
ATOM     25  C   UNL     1      -3.501  -2.137  25.128  0.00  0.00    +0.137 A 
ATOM     26  F   UNL     1      -3.207  -1.867  25.850  0.00  0.00    -0.204 F 
ENDBRANCH  19  20
ENDBRANCH  18  19
ENDBRANCH   3  18
TORSDOF 6
ENDMDL
MODEL 2
REMARK VINA RESULT:     -10.3      2.162      6.316
REMARK  Name = 
REMARK  6 active torsions:
REMARK  status: ('A' for Active; 'I' for Inactive)
REMARK    1  A    between atoms: C_3  and  N_18
REMARK    2  A    between atoms: C_6  and  C_7
REMARK    3  A    between atoms: C_7  and  N_8
REMARK    4  A    between atoms: N_11  and  C_12
REMARK    5  A    between atoms: N_18  and  C_19
REMARK    6  A    between atoms: C_19  and  C_20
REMARK                            x       y       z     vdW  Elec       q    Type
REMARK                         _______ _______ _______ _____ _____    ______ ____
ROOT
ATOM      1  O   UNL     1      -1.348   1.572  24.089  0.00  0.00    -0.219 OA
ATOM      2  C   UNL     1      -1.037   1.488  24.849  0.00  0.00    +0.199 C 
ATOM      3  C   UNL     1      -0.731   2.096  25.316  0.00  0.00    +0.135 C 
ATOM      4  C   UNL     1      -0.482   1.766  26.030  0.00  0.00    +0.162 C 
ATOM      5  O   UNL     1      -0.635   0.956  26.004  0.00  0.00    -0.350 OA
ATOM      6  C   UNL     1      -0.979   0.785  25.273  0.00  0.00    +0.169 C 
ENDROOT
BRANCH   6   7
ATOM      7  C   UNL     1      -1.220   0.039  25.015  0.00  0.00    +0.149 C 
BRANCH   7   8
ATOM      8  N   UNL     1      -1.904  -0.303  25.323  0.00  0.00    -0.184 NA
ATOM      9  C   UNL     1      -2.293  -0.897  24.904  0.00  0.00    +0.344 C 
ATOM     10  O   UNL     1      -1.999  -1.148  24.175  0.00  0.00    -0.249 OA
ATOM     11  N   UNL     1      -2.977  -1.240  25.212  0.00  0.00    -0.161 NA
BRANCH  11  12
ATOM     12  C   UNL     1      -3.367  -1.833  24.792  0.00  0.00    +0.075 A 
ATOM     13  C   UNL     1      -3.188  -2.626  24.936  0.00  0.00    +0.017 A 
ATOM     14  C   UNL     1      -3.577  -3.219  24.516  0.00  0.00    +0.001 A 
ATOM     15  C   UNL     1      -4.146  -3.021  23.953  0.00  0.00    +0.000 A 
ATOM     16  C   UNL     1      -4.326  -2.229  23.809  0.00  0.00    +0.001 A 
ATOM     17  C   UNL     1      -3.936  -1.635  24.229  0.00  0.00    +0.017 A 
ENDBRANCH  11  12
ENDBRANCH   7   8
ENDBRANCH   6   7
BRANCH   3  18
ATOM     18  N   UNL     1      -0.681   2.892  25.106  0.00  0.00    -0.209 NA
BRANCH  18  19
ATOM     19  C   UNL     1      -1.023   3.468  25.588  0.00  0.00    +0.117 C 
BRANCH  19  20
ATOM     20  C   UNL     1      -1.114   4.238  25.309  0.00  0.00    +0.023 A 
ATOM     21  C   UNL     1      -0.520   4.584  24.852  0.00  0.00    -0.001 A 
ATOM     22  C   UNL     1      -0.610   5.355  24.573  0.00  0.00    -0.000 A 
ATOM     23  C   UNL     1      -1.294   5.780  24.750  0.00  0.00    +0.002 A 
ATOM     24  C   UNL     1      -1.888   5.434  25.207  0.00  0.00    +0.029 A 
ATOM     25  C   UNL     1      -1.797   4.664  25.486  0.00  0.00    +0.137 A 
ATOM     26  F   UNL     1      -2.391   4.319  25.943  0.00  0.00    -0.204 F 
ENDBRANCH  19  20
ENDBRANCH  18  19
ENDBRANCH   3  18
TORSDOF 6
ENDMDL
MODEL 3
REMARK VINA RESULT:      -9.9      1.329      5.951
REMARK  Name = 
REMARK  6 active torsions:
REMARK  status: ('A' for Active; 'I' for Inactive)
REMARK    1  A    between atoms: C_3  and  N_18
REMARK    2  A    between atoms: C_6  and  C_7
REMARK    3  A    between atoms: C_7  and  N_8
REMARK    4  A    between atoms: N_11  and  C_12
REMARK    5  A    between atoms: N_18  and  C_19
REMARK    6  A    between atoms: C_19  and  C_20
REMARK                            x       y       z     vdW  Elec       q    Type
REMARK                         _______ _______ _______ _____ _____    ______ ____
ROOT
ATOM      1  O   UNL     1      -3.052   2.346  23.644  0.00  0.00    -0.219 OA
ATOM      2  C   UNL     1      -3.494   2.438  24.335  0.00  0.00    +0.199 C 
ATOM      3  C   UNL     1      -3.458   3.081  24.851  0.00  0.00    +0.135 C 
ATOM      4  C   UNL     1      -3.991   2.944  25.465  0.00  0.00    +0.162 C 
ATOM      5  O   UNL     1      -4.356   2.217  25.329  0.00  0.00    -0.350 OA
ATOM      6  C   UNL     1      -4.048   1.904  24.630  0.00  0.00    +0.169 C 
ENDROOT
BRANCH   6   7
ATOM      7  C   UNL     1      -4.259   1.184  24.288  0.00  0.00    +0.149 C 
BRANCH   7   8
ATOM      8  N   UNL     1      -4.352   0.514  24.759  0.00  0.00    -0.184 NA
ATOM      9  C   UNL     1      -4.117  -0.224  24.478  0.00  0.00    +0.344 C 
ATOM     10  O   UNL     1      -3.788  -0.293  23.724  0.00  0.00    -0.249 OA
ATOM     11  N   UNL     1      -4.210  -0.895  24.950  0.00  0.00    -0.161 NA
BRANCH  11  12
ATOM     12  C   UNL     1      -3.974  -1.633  24.669  0.00  0.00    +0.075 A 
ATOM     13  C   UNL     1      -4.382  -1.987  24.044  0.00  0.00    +0.017 A 
ATOM     14  C   UNL     1      -4.146  -2.725  23.763  0.00  0.00    +0.001 A 
ATOM     15  C   UNL     1      -3.503  -3.111  24.106  0.00  0.00    +0.000 A 
ATOM     16  C   UNL     1      -3.095  -2.759  24.730  0.00  0.00    +0.001 A 
ATOM     17  C   UNL     1      -3.331  -2.019  25.012  0.00  0.00    +0.017 A 
ENDBRANCH  11  12
ENDBRANCH   7   8
ENDBRANCH   6   7
BRANCH   3  18
ATOM     18  N   UNL     1      -2.974   3.744  24.767  0.00  0.00    -0.209 NA
BRANCH  18  19
ATOM     19  C   UNL     1      -2.370   3.886  25.311  0.00  0.00    +0.117 C 
BRANCH  19  20
ATOM     20  C   UNL     1      -1.809   4.472  25.162  0.00  0.00    +0.023 A 
ATOM     21  C   UNL     1      -2.053   5.245  25.005  0.00  0.00    -0.001 A 
ATOM     22  C   UNL     1      -1.492   5.831  24.856  0.00  0.00    -0.000 A 
ATOM     23  C   UNL     1      -0.689   5.646  24.863  0.00  0.00    +0.002 A 
ATOM     24  C   UNL     1      -0.446   4.872  25.019  0.00  0.00    +0.029 A 
ATOM     25  C   UNL     1      -1.006   4.286  25.168  0.00  0.00    +0.137 A 
ATOM     26  F   UNL     1      -0.762   3.514  25.324  0.00  0.00    -0.204 F 
ENDBRANCH  19  20
ENDBRANCH  18  19
ENDBRANCH   3  18
TORSDOF 6
ENDMDL
MODEL 4
REMARK VINA RESULT:      -9.7      1.820      2.101
REMARK  Name = 
REMARK  6 active torsions:
REMARK  status: ('A' for Active; 'I' for Inactive)
REMARK    1  A    between atoms: C_3  and  N_18
REMARK    2  A    between atoms: C_6  and  C_7
REMARK    3  A    between atoms: C_7  and  N_8
REMARK    4  A    between atoms: N_11  and  C_12
REMARK    5  A    between atoms: N_18  and  C_19
REMARK    6  A    between atoms: C_19  and  C_20
REMARK                            x       y       z     vdW  Elec       q    Type
REMARK                         _______ _______ _______ _____ _____    ______ ____
ROOT
ATOM      1  O   UNL     1      -1.499   0.282  23.870  0.00  0.00    -0.219 OA
ATOM      2  C   UNL     1      -1.407   0.137  24.677  0.00  0.00    +0.199 C 
ATOM      3  C   UNL     1      -1.681  -0.527  25.084  0.00  0.00    +0.135 C 
ATOM      4  C   UNL     1      -1.469  -0.445  25.876  0.00  0.00    +0.162 C 
ATOM      5  O   UNL     1      -1.064   0.269  25.960  0.00  0.00    -0.350 OA
ATOM      6  C   UNL     1      -1.026   0.628  25.217  0.00  0.00    +0.169 C 
ENDROOT
BRANCH   6   7
ATOM      7  C   UNL     1      -0.669   1.353  25.048  0.00  0.00    +0.149 C 
BRANCH   7   8
ATOM      8  N   UNL     1      -0.778   1.995  25.553  0.00  0.00    -0.184 NA
ATOM      9  C   UNL     1      -0.900   2.749  25.242  0.00  0.00    +0.344 C 
ATOM     10  O   UNL     1      -0.915   2.860  24.425  0.00  0.00    -0.249 OA
ATOM     11  N   UNL     1      -1.009   3.392  25.748  0.00  0.00    -0.161 NA
BRANCH  11  12
ATOM     12  C   UNL     1      -1.131   4.145  25.437  0.00  0.00    +0.075 A 
ATOM     13  C   UNL     1      -1.863   4.516  25.528  0.00  0.00    +0.017 A 
ATOM     14  C   UNL     1      -1.986   5.269  25.217  0.00  0.00    +0.001 A 
ATOM     15  C   UNL     1      -1.377   5.654  24.815  0.00  0.00    +0.000 A 
ATOM     16  C   UNL     1      -0.645   5.284  24.723  0.00  0.00    +0.001 A 
ATOM     17  C   UNL     1      -0.522   4.530  25.035  0.00  0.00    +0.017 A 
ENDBRANCH  11  12
ENDBRANCH   7   8
ENDBRANCH   6   7
BRANCH   3  18
ATOM     18  N   UNL     1      -2.094  -1.161  24.756  0.00  0.00    -0.209 NA
BRANCH  18  19
ATOM     19  C   UNL     1      -2.876  -1.304  24.978  0.00  0.00    +0.117 C 
BRANCH  19  20
ATOM     20  C   UNL     1      -3.309  -1.898  24.604  0.00  0.00    +0.023 A 
ATOM     21  C   UNL     1      -3.017  -2.670  24.583  0.00  0.00    -0.001 A 
ATOM     22  C   UNL     1      -3.450  -3.264  24.210  0.00  0.00    -0.000 A 
ATOM     23  C   UNL     1      -4.175  -3.088  23.858  0.00  0.00    +0.002 A 
ATOM     24  C   UNL     1      -4.467  -2.316  23.880  0.00  0.00    +0.029 A 
ATOM     25  C   UNL     1      -4.034  -1.722  24.253  0.00  0.00    +0.137 A 
ATOM     26  F   UNL     1      -4.326  -0.951  24.274  0.00  0.00    -0.204 F 
ENDBRANCH  19  20
ENDBRANCH  18  19
ENDBRANCH   3  18
TORSDOF 6
ENDMDL
MODEL 5
REMARK VINA RESULT:      -9.1      4.387      5.878
REMARK  Name = 
REMARK  6 active torsions:
REMARK  status: ('A' for Active; 'I' for Inactive)
REMARK    1  A    between atoms: C_3  and  N_18
REMARK    2  A    between atoms: C_6  and  C_7
REMARK    3  A    between atoms: C_7  and  N_8
REMARK    4  A    between atoms: N_11  and  C_12
REMARK    5  A    between atoms: N_18  and  C_19
REMARK    6  A    between atoms: C_19  and  C_20
REMARK                            x       y       z     vdW  Elec       q    Type
REMARK                         _______ _______ _______ _____ _____    ______ ____
ROOT
ATOM      1  O   UNL     1       0.691   1.768  24.186  0.00  0.00    -0.219 OA
ATOM      2  C   UNL     1       0.505   1.054  23.816  0.00  0.00    +0.199 C 
ATOM      3  C   UNL     1       1.029   0.581  23.387  0.00  0.00    +0.135 C 
ATOM      4  C   UNL     1       0.612  -0.077  23.116  0.00  0.00    +0.162 C 
ATOM      5  O   UNL     1      -0.168  -0.011  23.377  0.00  0.00    -0.350 OA
ATOM      6  C   UNL     1      -0.233   0.689  23.810  0.00  0.00    +0.169 C 
ENDROOT
BRANCH   6   7
ATOM      7  C   UNL     1      -0.918   0.971  24.173  0.00  0.00    +0.149 C 
BRANCH   7   8
ATOM      8  N   UNL     1      -1.651   0.863  23.813  0.00  0.00    -0.184 NA
ATOM      9  C   UNL     1      -2.340   1.104  24.197  0.00  0.00    +0.344 C 
ATOM     10  O   UNL     1      -2.295   1.453  24.943  0.00  0.00    -0.249 OA
ATOM     11  N   UNL     1      -3.074   0.995  23.837  0.00  0.00    -0.161 NA
BRANCH  11  12
ATOM     12  C   UNL     1      -3.762   1.236  24.221  0.00  0.00    +0.075 A 
ATOM     13  C   UNL     1      -4.028   2.014  24.146  0.00  0.00    +0.017 A 
ATOM     14  C   UNL     1      -4.716   2.254  24.531  0.00  0.00    +0.001 A 
ATOM     15  C   UNL     1      -5.140   1.717  24.991  0.00  0.00    +0.000 A 
ATOM     16  C   UNL     1      -4.876   0.939  25.067  0.00  0.00    +0.001 A 
ATOM     17  C   UNL     1      -4.187   0.699  24.682  0.00  0.00    +0.017 A 
ENDBRANCH  11  12
ENDBRANCH   7   8
ENDBRANCH   6   7
BRANCH   3  18
ATOM     18  N   UNL     1       1.827   0.739  23.252  0.00  0.00    -0.209 NA
BRANCH  18  19
ATOM     19  C   UNL     1       2.318   0.150  22.947  0.00  0.00    +0.117 C 
BRANCH  19  20
ATOM     20  C   UNL     1       3.135   0.257  22.941  0.00  0.00    +0.023 A 
ATOM     21  C   UNL     1       3.455   0.987  22.726  0.00  0.00    -0.001 A 
ATOM     22  C   UNL     1       4.272   1.094  22.721  0.00  0.00    -0.000 A 
ATOM     23  C   UNL     1       4.771   0.472  22.930  0.00  0.00    +0.002 A 
ATOM     24  C   UNL     1       4.452  -0.258  23.144  0.00  0.00    +0.029 A 
ATOM     25  C   UNL     1       3.635  -0.365  23.150  0.00  0.00    +0.137 A 
ATOM     26  F   UNL     1       3.316  -1.096  23.365  0.00  0.00    -0.204 F 
ENDBRANCH  19  20
ENDBRANCH  18  19
ENDBRANCH   3  18
TORSDOF 6
ENDMDL
MODEL 6
REMARK VINA RESULT:      -8.9      4.087      5.013
REMARK  Name = 
REMARK  6 active torsions:
REMARK  status: ('A' for Active; 'I' for Inactive)
REMARK    1  A    between atoms: C_3  and  N_18
REMARK    2  A    between atoms: C_6  and  C_7
REMARK    3  A    between atoms: C_7  and  N_8
REMARK    4  A    between atoms: N_11  and  C_12
REMARK    5  A    between atoms: N_18  and  C_19
REMARK    6  A    between atoms: C_19  and  C_20
REMARK                            x       y       z     vdW  Elec       q    Type
REMARK                         _______ _______ _______ _____ _____    ______ ____
ROOT
ATOM      1  O   UNL     1      -0.970   2.285  24.157  0.00  0.00    -0.219 OA
ATOM      2  C   UNL     1      -1.077   1.470  24.090  0.00  0.00    +0.199 C 
ATOM      3  C   UNL     1      -1.794   1.067  24.166  0.00  0.00    +0.135 C 
ATOM      4  C   UNL     1      -1.646   0.263  24.058  0.00  0.00    +0.162 C 
ATOM      5  O   UNL     1      -0.839   0.168  23.916  0.00  0.00    -0.350 OA
ATOM      6  C   UNL     1      -0.488   0.915  23.936  0.00  0.00    +0.169 C 
ENDROOT
BRANCH   6   7
ATOM      7  C   UNL     1       0.314   1.076  23.821  0.00  0.00    +0.149 C 
BRANCH   7   8
ATOM      8  N   UNL     1       0.774   0.574  23.357  0.00  0.00    -0.184 NA
ATOM      9  C   UNL     1       1.594   0.660  23.344  0.00  0.00    +0.344 C 
ATOM     10  O   UNL     1       1.953   1.249  23.796  0.00  0.00    -0.249 OA
ATOM     11  N   UNL     1       2.055   0.157  22.880  0.00  0.00    -0.161 NA
BRANCH  11  12
ATOM     12  C   UNL     1       2.874   0.243  22.867  0.00  0.00    +0.075 A 
ATOM     13  C   UNL     1       3.354  -0.312  23.245  0.00  0.00    +0.017 A 
ATOM     14  C   UNL     1       4.174  -0.226  23.232  0.00  0.00    +0.001 A 
ATOM     15  C   UNL     1       4.515   0.416  22.841  0.00  0.00    +0.000 A 
ATOM     16  C   UNL     1       4.037   0.971  22.463  0.00  0.00    +0.001 A 
ATOM     17  C   UNL     1       3.216   0.885  22.476  0.00  0.00    +0.017 A 
ENDBRANCH  11  12
ENDBRANCH   7   8
ENDBRANCH   6   7
BRANCH   3  18
ATOM     18  N   UNL     1      -2.528   1.408  24.322  0.00  0.00    -0.209 NA
BRANCH  18  19
ATOM     19  C   UNL     1      -3.183   0.929  24.470  0.00  0.00    +0.117 C 
BRANCH  19  20
ATOM     20  C   UNL     1      -3.920   1.270  24.615  0.00  0.00    +0.023 A 
ATOM     21  C   UNL     1      -4.092   2.021  24.320  0.00  0.00    -0.001 A 
ATOM     22  C   UNL     1      -4.828   2.363  24.465  0.00  0.00    -0.000 A 
ATOM     23  C   UNL     1      -5.394   1.953  24.904  0.00  0.00    +0.002 A 
ATOM     24  C   UNL     1      -5.222   1.201  25.199  0.00  0.00    +0.029 A 
ATOM     25  C   UNL     1      -4.485   0.860  25.054  0.00  0.00    +0.137 A 
ATOM     26  F   UNL     1      -4.314   0.109  25.348  0.00  0.00    -0.204 F 
ENDBRANCH  19  20
ENDBRANCH  18  19
ENDBRANCH   3  18
TORSDOF 6
ENDMDL
