REMARK  Name = 
REMARK  6 active torsions:
REMARK  status: ('A' for Active; 'I' for Inactive)
REMARK    1  A    between atoms: C_2  and  C_4
REMARK    2  A    between atoms: C_4  and  N_5
REMARK    3  A    between atoms: C_6  and  C_12
REMARK    4  A    between atoms: C_12  and  C_14
REMARK    5  A    between atoms: C_17  and  N_18
REMARK    6  A    between atoms: C_19  and  C_21
REMARK                            x       y       z     vdW  Elec       q    Type
REMARK                         _______ _______ _______ _____ _____    ______ ____
ROOT
ATOM     14  C   UNL     1       5.001  -5.362   0.000  0.00  0.00    +0.010 A 
ATOM     15  C   UNL     1       5.716  -4.950   0.000  0.00  0.00    -0.000 A 
ATOM     16  C   UNL     1       6.430  -5.362   0.000  0.00  0.00    +0.016 A 
ATOM     17  C   UNL     1       6.430  -6.188   0.000  0.00  0.00    +0.074 A 
ATOM     27  C   UNL     1       5.716  -6.600   0.000  0.00  0.00    +0.016 A 
ATOM     28  C   UNL     1       5.001  -6.188   0.000  0.00  0.00    -0.000 A 
ENDROOT
BRANCH  17  18
ATOM     18  N   UNL     1       7.145  -6.600   0.000  0.00  0.00    -0.175 NA
ATOM     19  C   UNL     1       7.859  -6.188   0.000  0.00  0.00    +0.269 C 
ATOM     20  O   UNL     1       7.859  -5.362   0.000  0.00  0.00    -0.268 OA
BRANCH  19  21
ATOM     21  C   UNL     1       8.574  -6.600   0.000  0.00  0.00    +0.055 A 
ATOM     22  C   UNL     1       9.288  -6.188   0.000  0.00  0.00    +0.005 A 
ATOM     23  C   UNL     1      10.003  -6.600   0.000  0.00  0.00    +0.000 A 
ATOM     24  C   UNL     1      10.003  -7.425   0.000  0.00  0.00    +0.000 A 
ATOM     25  C   UNL     1       9.288  -7.838   0.000  0.00  0.00    +0.000 A 
ATOM     26  C   UNL     1       8.574  -7.425   0.000  0.00  0.00    +0.005 A 
ENDBRANCH  19  21
ENDBRANCH  17  18
BRANCH  14  12
ATOM     12  C   UNL     1       4.287  -4.950   0.000  0.00  0.00    +0.195 C 
ATOM     13  O   UNL     1       4.287  -4.125   0.000  0.00  0.00    -0.216 OA
BRANCH  12   6
ATOM      5  N   UNL     1       2.858  -4.950   0.000  0.00  0.00    -0.274 N 
ATOM      6  C   UNL     1       3.572  -5.362   0.000  0.00  0.00    +0.139 C 
ATOM      7  C   UNL     1       3.572  -6.188   0.000  0.00  0.00    +0.165 C 
ATOM      8  O   UNL     1       2.858  -6.600   0.000  0.00  0.00    -0.343 OA
ATOM      9  C   UNL     1       2.143  -6.188   0.000  0.00  0.00    +0.227 C 
ATOM     10  C   UNL     1       2.143  -5.362   0.000  0.00  0.00    +0.256 C 
ATOM     11  O   UNL     1       1.429  -4.950   0.000  0.00  0.00    -0.272 OA
BRANCH   5   4
ATOM      4  C   UNL     1       2.858  -4.125   0.000  0.00  0.00    +0.094 C 
BRANCH   4   2
ATOM      1  C   UNL     1       2.143  -2.888   0.000  0.00  0.00    +0.002 C 
ATOM      2  C   UNL     1       2.143  -3.712   0.000  0.00  0.00    +0.020 C 
ATOM      3  C   UNL     1       1.429  -4.125   0.000  0.00  0.00    +0.002 C 
ENDBRANCH   4   2
ENDBRANCH   5   4
ENDBRANCH  12   6
ENDBRANCH  14  12
TORSDOF 6
