REMARK  Name = 
REMARK  9 active torsions:
REMARK  status: ('A' for Active; 'I' for Inactive)
REMARK    1  A    between atoms: C_2  and  C_3
REMARK    2  A    between atoms: C_3  and  C_4
REMARK    3  A    between atoms: C_7  and  C_8
REMARK    4  A    between atoms: C_8  and  C_9
REMARK    5  A    between atoms: C_11  and  C_12
REMARK    6  A    between atoms: C_15  and  C_16
REMARK    7  A    between atoms: C_16  and  N_17
REMARK    8  A    between atoms: N_17  and  C_18
REMARK    9  A    between atoms: C_18  and  C_19
REMARK                            x       y       z     vdW  Elec       q    Type
REMARK                         _______ _______ _______ _____ _____    ______ ____
ROOT
ATOM      9  C   UNL     1      -5.290  -5.563   0.000  0.00  0.00    +0.027 C 
ATOM     10  C   UNL     1      -5.775  -6.231   0.000  0.00  0.00    +0.005 C 
ATOM     11  C   UNL     1      -6.596  -6.144   0.000  0.00  0.00    +0.006 C 
ATOM     15  C   UNL     1      -6.931  -5.391   0.000  0.00  0.00    +0.039 C 
ATOM     25  C   UNL     1      -6.446  -4.723   0.000  0.00  0.00    -0.033 C 
ATOM     26  C   UNL     1      -5.626  -4.810   0.000  0.00  0.00    -0.048 C 
ATOM     27  C   UNL     1      -5.141  -4.142   0.000  0.00  0.00    +0.026 C 
ENDROOT
BRANCH  11  12
ATOM     12  C   UNL     1      -7.081  -6.812   0.000  0.00  0.00    +0.000 C 
ATOM     13  C   UNL     1      -7.901  -6.726   0.000  0.00  0.00    +0.000 C 
ATOM     14  C   UNL     1      -6.745  -7.566   0.000  0.00  0.00    +0.000 C 
ENDBRANCH  11  12
BRANCH   9   8
ATOM      8  C   UNL     1      -4.470  -5.649   0.000  0.00  0.00    +0.091 C 
BRANCH   8   7
ATOM      4  C   UNL     1      -3.572  -3.712   0.000  0.00  0.00    +0.226 A 
ATOM      5  N   UNL     1      -2.905  -4.197   0.000  0.00  0.00    -0.112 NA
ATOM      6  N   UNL     1      -3.160  -4.982   0.000  0.00  0.00    -0.112 NA
ATOM      7  C   UNL     1      -3.985  -4.982   0.000  0.00  0.00    +0.226 A 
ATOM     28  O   UNL     1      -4.240  -4.197   0.000  0.00  0.00    -0.423 OA
BRANCH   4   3
ATOM      3  C   UNL     1      -3.572  -2.888   0.000  0.00  0.00    +0.087 C 
BRANCH   3   2
ATOM      1  C   UNL     1      -2.858  -1.650   0.000  0.00  0.00    +0.001 C 
ATOM      2  C   UNL     1      -2.858  -2.475   0.000  0.00  0.00    +0.010 C 
ENDBRANCH   3   2
ENDBRANCH   4   3
ENDBRANCH   8   7
ENDBRANCH   9   8
BRANCH  15  16
ATOM     16  C   UNL     1      -7.752  -5.304   0.000  0.00  0.00    +0.093 C 
BRANCH  16  17
ATOM     17  N   UNL     1      -8.087  -4.551   0.000  0.00  0.00    -0.213 NA
BRANCH  17  18
ATOM     18  C   UNL     1      -8.908  -4.465   0.000  0.00  0.00    +0.117 C 
BRANCH  18  19
ATOM     19  C   UNL     1      -9.393  -5.132   0.000  0.00  0.00    +0.014 A 
ATOM     20  C   UNL     1      -9.057  -5.886   0.000  0.00  0.00    +0.000 A 
ATOM     21  C   UNL     1      -9.542  -6.553   0.000  0.00  0.00    +0.020 A 
ATOM     22  C   UNL     1     -10.363  -6.467   0.000  0.00  0.00    +0.099 A 
ATOM     23  N   UNL     1     -10.698  -5.713   0.000  0.00  0.00    -0.243 NA
ATOM     24  C   UNL     1     -10.213  -5.046   0.000  0.00  0.00    +0.096 A 
ENDBRANCH  18  19
ENDBRANCH  17  18
ENDBRANCH  16  17
ENDBRANCH  15  16
TORSDOF 9
