MODEL 1
REMARK VINA RESULT:     -11.5      0.000      0.000
REMARK  Name = 
REMARK  6 active torsions:
REMARK  status: ('A' for Active; 'I' for Inactive)
REMARK    1  A    between atoms: C_4  and  C_15
REMARK    2  A    between atoms: C_6  and  C_8
REMARK    3  A    between atoms: C_22  and  C_23
REMARK    4  A    between atoms: C_23  and  N_24
REMARK    5  A    between atoms: N_27  and  C_28
REMARK    6  A    between atoms: C_30  and  C_34
REMARK                            x       y       z     vdW  Elec       q    Type
REMARK                         _______ _______ _______ _____ _____    ______ ____
ROOT
ATOM     15  C   UNL     1      -1.972   0.544  24.113  0.00  0.00    +0.056 C 
ATOM     16  C   UNL     1      -1.757   0.967  23.496  0.00  0.00    +0.078 C 
ATOM     17  N   UNL     1      -1.252   0.622  24.050  0.00  0.00    -0.272 NA
ATOM     18  C   UNL     1      -1.853   0.124  24.750  0.00  0.00    +0.072 C 
ATOM     19  C   UNL     1      -1.914  -0.239  25.290  0.00  0.00    +0.018 C 
ATOM     20  C   UNL     1      -1.469   0.209  24.653  0.00  0.00    +0.010 C 
ATOM     21  C   UNL     1      -0.594   0.207  24.720  0.00  0.00    +0.018 C 
ATOM     22  C   UNL     1      -0.342   0.616  24.126  0.00  0.00    +0.079 C 
ENDROOT
BRANCH  15   4
ATOM      1  C   UNL     1      -4.256  -1.174  24.067  0.00  0.00    +0.074 C 
ATOM      2  C   UNL     1      -3.923  -0.432  24.205  0.00  0.00    +0.139 A 
ATOM      3  N   UNL     1      -3.114  -0.315  24.090  0.00  0.00    -0.235 NA
ATOM      4  C   UNL     1      -2.781   0.427  24.228  0.00  0.00    +0.063 A 
ATOM      5  C   UNL     1      -3.256   1.052  24.481  0.00  0.00    +0.034 A 
ATOM      6  C   UNL     1      -4.064   0.935  24.596  0.00  0.00    +0.084 A 
ATOM      7  N   UNL     1      -4.398   0.193  24.458  0.00  0.00    -0.231 NA
BRANCH   6   8
ATOM      8  C   UNL     1      -4.540   1.559  24.849  0.00  0.00    +0.018 A 
ATOM      9  C   UNL     1      -4.475   2.299  24.490  0.00  0.00    +0.004 A 
ATOM     10  C   UNL     1      -4.951   2.925  24.742  0.00  0.00    +0.030 A 
ATOM     11  C   UNL     1      -5.491   2.810  25.355  0.00  0.00    +0.140 A 
ATOM     12  F   UNL     1      -5.967   3.435  25.608  0.00  0.00    -0.204 F 
ATOM     13  C   UNL     1      -5.556   2.070  25.714  0.00  0.00    +0.030 A 
ATOM     14  C   UNL     1      -5.080   1.445  25.462  0.00  0.00    +0.004 A 
ENDBRANCH   6   8
ENDBRANCH  15   4
BRANCH  22  23
ATOM     23  C   UNL     1       0.347   0.890  23.766  0.00  0.00    +0.133 C 
BRANCH  23  24
ATOM     24  N   UNL     1       0.873   0.356  23.423  0.00  0.00    -0.185 NA
ATOM     25  C   UNL     1       1.669   0.556  23.339  0.00  0.00    +0.344 C 
ATOM     26  O   UNL     1       1.938   1.291  23.599  0.00  0.00    -0.249 OA
ATOM     27  N   UNL     1       2.196   0.022  22.997  0.00  0.00    -0.161 NA
BRANCH  27  28
ATOM     28  C   UNL     1       2.992   0.223  22.913  0.00  0.00    +0.076 A 
ATOM     29  C   UNL     1       3.565  -0.171  23.356  0.00  0.00    +0.027 A 
ATOM     30  C   UNL     1       4.361   0.030  23.273  0.00  0.00    +0.070 A 
ATOM     31  C   UNL     1       4.584   0.625  22.746  0.00  0.00    +0.010 A 
ATOM     32  C   UNL     1       4.010   1.019  22.303  0.00  0.00    +0.002 A 
ATOM     33  C   UNL     1       3.214   0.818  22.387  0.00  0.00    +0.017 A 
BRANCH  30  34
ATOM     34  C   UNL     1       4.935  -0.364  23.716  0.00  0.00    +0.100 C 
ATOM     35  N   UNL     1       5.509  -0.758  24.159  0.00  0.00    -0.191 NA
ENDBRANCH  30  34
ENDBRANCH  27  28
ENDBRANCH  23  24
ENDBRANCH  22  23
TORSDOF 6
ENDMDL
MODEL 2
REMARK VINA RESULT:     -10.7      1.472      2.542
REMARK  Name = 
REMARK  6 active torsions:
REMARK  status: ('A' for Active; 'I' for Inactive)
REMARK    1  A    between atoms: C_4  and  C_15
REMARK    2  A    between atoms: C_6  and  C_8
REMARK    3  A    between atoms: C_22  and  C_23
REMARK    4  A    between atoms: C_23  and  N_24
REMARK    5  A    between atoms: N_27  and  C_28
REMARK    6  A    between atoms: C_30  and  C_34
REMARK                            x       y       z     vdW  Elec       q    Type
REMARK                         _______ _______ _______ _____ _____    ______ ____
ROOT
ATOM     15  C   UNL     1      -1.588   0.725  24.294  0.00  0.00    +0.056 C 
ATOM     16  C   UNL     1      -1.011   0.440  24.732  0.00  0.00    +0.078 C 
ATOM     17  N   UNL     1      -0.928   0.948  24.086  0.00  0.00    -0.272 NA
ATOM     18  C   UNL     1      -1.891   1.142  23.719  0.00  0.00    +0.072 C 
ATOM     19  C   UNL     1      -2.287   1.436  23.291  0.00  0.00    +0.018 C 
ATOM     20  C   UNL     1      -1.499   1.223  23.662  0.00  0.00    +0.010 C 
ATOM     21  C   UNL     1      -0.789   1.579  23.289  0.00  0.00    +0.018 C 
ATOM     22  C   UNL     1      -0.194   1.322  23.694  0.00  0.00    +0.079 C 
ENDROOT
BRANCH  15   4
ATOM      1  C   UNL     1      -4.186   1.392  25.283  0.00  0.00    +0.074 C 
ATOM      2  C   UNL     1      -3.656   0.834  24.986  0.00  0.00    +0.139 A 
ATOM      3  N   UNL     1      -2.888   1.058  24.789  0.00  0.00    -0.235 NA
ATOM      4  C   UNL     1      -2.358   0.500  24.491  0.00  0.00    +0.063 A 
ATOM      5  C   UNL     1      -2.597  -0.283  24.390  0.00  0.00    +0.034 A 
ATOM      6  C   UNL     1      -3.366  -0.507  24.587  0.00  0.00    +0.084 A 
ATOM      7  N   UNL     1      -3.896   0.050  24.884  0.00  0.00    -0.231 NA
BRANCH   6   8
ATOM      8  C   UNL     1      -3.606  -1.290  24.486  0.00  0.00    +0.018 A 
ATOM      9  C   UNL     1      -3.342  -1.873  25.007  0.00  0.00    +0.004 A 
ATOM     10  C   UNL     1      -3.582  -2.656  24.907  0.00  0.00    +0.030 A 
ATOM     11  C   UNL     1      -4.086  -2.856  24.285  0.00  0.00    +0.140 A 
ATOM     12  F   UNL     1      -4.326  -3.639  24.185  0.00  0.00    -0.204 F 
ATOM     13  C   UNL     1      -4.350  -2.274  23.764  0.00  0.00    +0.030 A 
ATOM     14  C   UNL     1      -4.110  -1.491  23.864  0.00  0.00    +0.004 A 
ENDBRANCH   6   8
ENDBRANCH  15   4
BRANCH  22  23
ATOM     23  C   UNL     1       0.628   1.359  23.745  0.00  0.00    +0.133 C 
BRANCH  23  24
ATOM     24  N   UNL     1       1.092   0.827  23.319  0.00  0.00    -0.185 NA
ATOM     25  C   UNL     1       1.914   0.893  23.333  0.00  0.00    +0.344 C 
ATOM     26  O   UNL     1       2.272   1.492  23.772  0.00  0.00    -0.249 OA
ATOM     27  N   UNL     1       2.378   0.360  22.907  0.00  0.00    -0.161 NA
BRANCH  27  28
ATOM     28  C   UNL     1       3.201   0.427  22.921  0.00  0.00    +0.076 A 
ATOM     29  C   UNL     1       3.652  -0.115  23.350  0.00  0.00    +0.027 A 
ATOM     30  C   UNL     1       4.474  -0.048  23.364  0.00  0.00    +0.070 A 
ATOM     31  C   UNL     1       4.846   0.560  22.949  0.00  0.00    +0.010 A 
ATOM     32  C   UNL     1       4.395   1.102  22.519  0.00  0.00    +0.002 A 
ATOM     33  C   UNL     1       3.573   1.035  22.506  0.00  0.00    +0.017 A 
BRANCH  30  34
ATOM     34  C   UNL     1       4.925  -0.589  23.793  0.00  0.00    +0.100 C 
ATOM     35  N   UNL     1       5.376  -1.131  24.222  0.00  0.00    -0.191 NA
ENDBRANCH  30  34
ENDBRANCH  27  28
ENDBRANCH  23  24
ENDBRANCH  22  23
TORSDOF 6
ENDMDL
MODEL 3
REMARK VINA RESULT:     -10.0      1.743      2.255
REMARK  Name = 
REMARK  6 active torsions:
REMARK  status: ('A' for Active; 'I' for Inactive)
REMARK    1  A    between atoms: C_4  and  C_15
REMARK    2  A    between atoms: C_6  and  C_8
REMARK    3  A    between atoms: C_22  and  C_23
REMARK    4  A    between atoms: C_23  and  N_24
REMARK    5  A    between atoms: N_27  and  C_28
REMARK    6  A    between atoms: C_30  and  C_34
REMARK                            x       y       z     vdW  Elec       q    Type
REMARK                         _______ _______ _______ _____ _____    ______ ____
ROOT
ATOM     15  C   UNL     1      -1.373   2.583  24.652  0.00  0.00    +0.056 C 
ATOM     16  C   UNL     1      -1.277   2.421  23.897  0.00  0.00    +0.078 C 
ATOM     17  N   UNL     1      -0.789   2.174  24.515  0.00  0.00    -0.272 NA
ATOM     18  C   UNL     1      -1.193   2.560  25.402  0.00  0.00    +0.072 C 
ATOM     19  C   UNL     1      -1.173   2.632  26.051  0.00  0.00    +0.018 C 
ATOM     20  C   UNL     1      -0.890   2.338  25.253  0.00  0.00    +0.010 C 
ATOM     21  C   UNL     1      -0.160   1.849  25.258  0.00  0.00    +0.018 C 
ATOM     22  C   UNL     1      -0.030   1.667  24.528  0.00  0.00    +0.079 C 
ENDROOT
BRANCH  15   4
ATOM      1  C   UNL     1      -2.469   5.105  25.435  0.00  0.00    +0.074 C 
ATOM      2  C   UNL     1      -2.572   4.308  25.250  0.00  0.00    +0.139 A 
ATOM      3  N   UNL     1      -1.922   3.845  25.043  0.00  0.00    -0.235 NA
ATOM      4  C   UNL     1      -2.025   3.047  24.858  0.00  0.00    +0.063 A 
ATOM      5  C   UNL     1      -2.778   2.713  24.879  0.00  0.00    +0.034 A 
ATOM      6  C   UNL     1      -3.429   3.176  25.085  0.00  0.00    +0.084 A 
ATOM      7  N   UNL     1      -3.326   3.974  25.271  0.00  0.00    -0.231 NA
BRANCH   6   8
ATOM      8  C   UNL     1      -4.183   2.843  25.107  0.00  0.00    +0.018 A 
ATOM      9  C   UNL     1      -4.481   2.453  24.443  0.00  0.00    +0.004 A 
ATOM     10  C   UNL     1      -5.235   2.120  24.463  0.00  0.00    +0.030 A 
ATOM     11  C   UNL     1      -5.692   2.176  25.148  0.00  0.00    +0.140 A 
ATOM     12  F   UNL     1      -6.447   1.842  25.169  0.00  0.00    -0.204 F 
ATOM     13  C   UNL     1      -5.395   2.565  25.811  0.00  0.00    +0.030 A 
ATOM     14  C   UNL     1      -4.640   2.899  25.791  0.00  0.00    +0.004 A 
ENDBRANCH   6   8
ENDBRANCH  15   4
BRANCH  22  23
ATOM     23  C   UNL     1       0.490   1.254  24.040  0.00  0.00    +0.133 C 
BRANCH  23  24
ATOM     24  N   UNL     1       1.241   1.559  23.887  0.00  0.00    -0.185 NA
ATOM     25  C   UNL     1       1.805   1.096  23.503  0.00  0.00    +0.344 C 
ATOM     26  O   UNL     1       1.618   0.326  23.272  0.00  0.00    -0.249 OA
ATOM     27  N   UNL     1       2.556   1.401  23.350  0.00  0.00    -0.161 NA
BRANCH  27  28
ATOM     28  C   UNL     1       3.120   0.937  22.966  0.00  0.00    +0.076 A 
ATOM     29  C   UNL     1       3.840   0.774  23.334  0.00  0.00    +0.027 A 
ATOM     30  C   UNL     1       4.404   0.310  22.949  0.00  0.00    +0.070 A 
ATOM     31  C   UNL     1       4.247   0.008  22.197  0.00  0.00    +0.010 A 
ATOM     32  C   UNL     1       3.527   0.171  21.830  0.00  0.00    +0.002 A 
ATOM     33  C   UNL     1       2.963   0.635  22.214  0.00  0.00    +0.017 A 
BRANCH  30  34
ATOM     34  C   UNL     1       5.124   0.147  23.317  0.00  0.00    +0.100 C 
ATOM     35  N   UNL     1       5.845  -0.017  23.685  0.00  0.00    -0.191 NA
ENDBRANCH  30  34
ENDBRANCH  27  28
ENDBRANCH  23  24
ENDBRANCH  22  23
TORSDOF 6
ENDMDL
MODEL 4
REMARK VINA RESULT:      -9.0      2.997      5.027
REMARK  Name = 
REMARK  6 active torsions:
REMARK  status: ('A' for Active; 'I' for Inactive)
REMARK    1  A    between atoms: C_4  and  C_15
REMARK    2  A    between atoms: C_6  and  C_8
REMARK    3  A    between atoms: C_22  and  C_23
REMARK    4  A    between atoms: C_23  and  N_24
REMARK    5  A    between atoms: N_27  and  C_28
REMARK    6  A    between atoms: C_30  and  C_34
REMARK                            x       y       z     vdW  Elec       q    Type
REMARK                         _______ _______ _______ _____ _____    ______ ____
ROOT
ATOM     15  C   UNL     1      -0.569  -0.205  24.695  0.00  0.00    +0.056 C 
ATOM     16  C   UNL     1      -0.757   0.329  25.228  0.00  0.00    +0.078 C 
ATOM     17  N   UNL     1      -0.264   0.444  24.576  0.00  0.00    -0.272 NA
ATOM     18  C   UNL     1      -0.217  -0.468  24.060  0.00  0.00    +0.072 C 
ATOM     19  C   UNL     1       0.005  -0.828  23.563  0.00  0.00    +0.018 C 
ATOM     20  C   UNL     1      -0.085  -0.086  24.058  0.00  0.00    +0.010 C 
ATOM     21  C   UNL     1       0.353   0.621  23.776  0.00  0.00    +0.018 C 
ATOM     22  C   UNL     1       0.194   1.174  24.278  0.00  0.00    +0.079 C 
ENDROOT
BRANCH  15   4
ATOM      1  C   UNL     1      -0.297  -2.931  25.511  0.00  0.00    +0.074 C 
ATOM      2  C   UNL     1      -0.756  -2.323  25.195  0.00  0.00    +0.139 A 
ATOM      3  N   UNL     1      -0.434  -1.569  25.103  0.00  0.00    -0.235 NA
ATOM      4  C   UNL     1      -0.892  -0.960  24.787  0.00  0.00    +0.063 A 
ATOM      5  C   UNL     1      -1.672  -1.105  24.562  0.00  0.00    +0.034 A 
ATOM      6  C   UNL     1      -1.994  -1.858  24.654  0.00  0.00    +0.084 A 
ATOM      7  N   UNL     1      -1.537  -2.467  24.970  0.00  0.00    -0.231 NA
BRANCH   6   8
ATOM      8  C   UNL     1      -2.775  -2.004  24.429  0.00  0.00    +0.018 A 
ATOM      9  C   UNL     1      -3.333  -1.397  24.462  0.00  0.00    +0.004 A 
ATOM     10  C   UNL     1      -4.114  -1.542  24.237  0.00  0.00    +0.030 A 
ATOM     11  C   UNL     1      -4.336  -2.295  23.980  0.00  0.00    +0.140 A 
ATOM     12  F   UNL     1      -5.117  -2.440  23.756  0.00  0.00    -0.204 F 
ATOM     13  C   UNL     1      -3.778  -2.901  23.948  0.00  0.00    +0.030 A 
ATOM     14  C   UNL     1      -2.997  -2.756  24.172  0.00  0.00    +0.004 A 
ENDBRANCH   6   8
ENDBRANCH  15   4
BRANCH  22  23
ATOM     23  C   UNL     1       0.347   1.966  24.449  0.00  0.00    +0.133 C 
BRANCH  23  24
ATOM     24  N   UNL     1      -0.100   2.559  24.089  0.00  0.00    -0.185 NA
ATOM     25  C   UNL     1      -0.475   3.131  24.549  0.00  0.00    +0.344 C 
ATOM     26  O   UNL     1      -0.404   3.110  25.371  0.00  0.00    -0.249 OA
ATOM     27  N   UNL     1      -0.922   3.724  24.189  0.00  0.00    -0.161 NA
BRANCH  27  28
ATOM     28  C   UNL     1      -1.297   4.295  24.650  0.00  0.00    +0.076 A 
ATOM     29  C   UNL     1      -1.971   4.099  25.083  0.00  0.00    +0.027 A 
ATOM     30  C   UNL     1      -2.347   4.670  25.545  0.00  0.00    +0.070 A 
ATOM     31  C   UNL     1      -2.048   5.439  25.573  0.00  0.00    +0.010 A 
ATOM     32  C   UNL     1      -1.374   5.636  25.140  0.00  0.00    +0.002 A 
ATOM     33  C   UNL     1      -0.999   5.064  24.679  0.00  0.00    +0.017 A 
BRANCH  30  34
ATOM     34  C   UNL     1      -3.021   4.473  25.978  0.00  0.00    +0.100 C 
ATOM     35  N   UNL     1      -3.695   4.276  26.411  0.00  0.00    -0.191 NA
ENDBRANCH  30  34
ENDBRANCH  27  28
ENDBRANCH  23  24
ENDBRANCH  22  23
TORSDOF 6
ENDMDL
MODEL 5
REMARK VINA RESULT:      -9.0      2.667      7.215
REMARK  Name = 
REMARK  6 active torsions:
REMARK  status: ('A' for Active; 'I' for Inactive)
REMARK    1  A    between atoms: C_4  and  C_15
REMARK    2  A    between atoms: C_6  and  C_8
REMARK    3  A    between atoms: C_22  and  C_23
REMARK    4  A    between atoms: C_23  and  N_24
REMARK    5  A    between atoms: N_27  and  C_28
REMARK    6  A    between atoms: C_30  and  C_34
REMARK                            x       y       z     vdW  Elec       q    Type
REMARK                         _______ _______ _______ _____ _____    ______ ____
ROOT
ATOM     15  C   UNL     1       0.503   0.613  23.498  0.00  0.00    +0.056 C 
ATOM     16  C   UNL     1       0.407   1.385  23.515  0.00  0.00    +0.078 C 
ATOM     17  N   UNL     1      -0.028   0.830  23.944  0.00  0.00    -0.272 NA
ATOM     18  C   UNL     1       0.349  -0.117  23.697  0.00  0.00    +0.072 C 
ATOM     19  C   UNL     1       0.339  -0.767  23.762  0.00  0.00    +0.018 C 
ATOM     20  C   UNL     1       0.072   0.075  23.922  0.00  0.00    +0.010 C 
ATOM     21  C   UNL     1      -0.588   0.168  24.493  0.00  0.00    +0.018 C 
ATOM     22  C   UNL     1      -0.715   0.919  24.538  0.00  0.00    +0.079 C 
ENDROOT
BRANCH  15   4
ATOM      1  C   UNL     1       1.285  -0.759  21.115  0.00  0.00    +0.074 C 
ATOM      2  C   UNL     1       1.486  -0.369  21.814  0.00  0.00    +0.139 A 
ATOM      3  N   UNL     1       0.894  -0.073  22.306  0.00  0.00    -0.235 NA
ATOM      4  C   UNL     1       1.096   0.317  23.005  0.00  0.00    +0.063 A 
ATOM      5  C   UNL     1       1.889   0.412  23.210  0.00  0.00    +0.034 A 
ATOM      6  C   UNL     1       2.480   0.117  22.718  0.00  0.00    +0.084 A 
ATOM      7  N   UNL     1       2.280  -0.274  22.019  0.00  0.00    -0.231 NA
BRANCH   6   8
ATOM      8  C   UNL     1       3.274   0.211  22.923  0.00  0.00    +0.018 A 
ATOM      9  C   UNL     1       3.660   0.922  22.758  0.00  0.00    +0.004 A 
ATOM     10  C   UNL     1       4.454   1.017  22.963  0.00  0.00    +0.030 A 
ATOM     11  C   UNL     1       4.861   0.401  23.332  0.00  0.00    +0.140 A 
ATOM     12  F   UNL     1       5.655   0.497  23.537  0.00  0.00    -0.204 F 
ATOM     13  C   UNL     1       4.475  -0.308  23.497  0.00  0.00    +0.030 A 
ATOM     14  C   UNL     1       3.681  -0.404  23.292  0.00  0.00    +0.004 A 
ENDBRANCH   6   8
ENDBRANCH  15   4
BRANCH  22  23
ATOM     23  C   UNL     1      -1.193   1.481  24.907  0.00  0.00    +0.133 C 
BRANCH  23  24
ATOM     24  N   UNL     1      -1.782   1.867  24.478  0.00  0.00    -0.185 NA
ATOM     25  C   UNL     1      -2.462   2.135  24.860  0.00  0.00    +0.344 C 
ATOM     26  O   UNL     1      -2.553   2.018  25.671  0.00  0.00    -0.249 OA
ATOM     27  N   UNL     1      -3.052   2.521  24.430  0.00  0.00    -0.161 NA
BRANCH  27  28
ATOM     28  C   UNL     1      -3.732   2.790  24.813  0.00  0.00    +0.076 A 
ATOM     29  C   UNL     1      -4.429   2.351  24.771  0.00  0.00    +0.027 A 
ATOM     30  C   UNL     1      -5.109   2.619  25.153  0.00  0.00    +0.070 A 
ATOM     31  C   UNL     1      -5.092   3.326  25.578  0.00  0.00    +0.010 A 
ATOM     32  C   UNL     1      -4.395   3.765  25.620  0.00  0.00    +0.002 A 
ATOM     33  C   UNL     1      -3.715   3.497  25.237  0.00  0.00    +0.017 A 
BRANCH  30  34
ATOM     34  C   UNL     1      -5.806   2.180  25.111  0.00  0.00    +0.100 C 
ATOM     35  N   UNL     1      -6.504   1.741  25.070  0.00  0.00    -0.191 NA
ENDBRANCH  30  34
ENDBRANCH  27  28
ENDBRANCH  23  24
ENDBRANCH  22  23
TORSDOF 6
ENDMDL
MODEL 6
REMARK VINA RESULT:      -8.6      2.919      4.687
REMARK  Name = 
REMARK  6 active torsions:
REMARK  status: ('A' for Active; 'I' for Inactive)
REMARK    1  A    between atoms: C_4  and  C_15
REMARK    2  A    between atoms: C_6  and  C_8
REMARK    3  A    between atoms: C_22  and  C_23
REMARK    4  A    between atoms: C_23  and  N_24
REMARK    5  A    between atoms: N_27  and  C_28
REMARK    6  A    between atoms: C_30  and  C_34
REMARK                            x       y       z     vdW  Elec       q    Type
REMARK                         _______ _______ _______ _____ _____    ______ ____
ROOT
ATOM     15  C   UNL     1      -1.249   2.336  24.961  0.00  0.00    +0.056 C 
ATOM     16  C   UNL     1      -1.446   1.892  24.354  0.00  0.00    +0.078 C 
ATOM     17  N   UNL     1      -0.915   1.691  24.952  0.00  0.00    -0.272 NA
ATOM     18  C   UNL     1      -0.872   2.502  25.614  0.00  0.00    +0.072 C 
ATOM     19  C   UNL     1      -0.636   2.783  26.155  0.00  0.00    +0.018 C 
ATOM     20  C   UNL     1      -0.726   2.132  25.545  0.00  0.00    +0.010 C 
ATOM     21  C   UNL     1      -0.249   1.407  25.680  0.00  0.00    +0.018 C 
ATOM     22  C   UNL     1      -0.416   0.941  25.099  0.00  0.00    +0.079 C 
ENDROOT
BRANCH  15   4
ATOM      1  C   UNL     1      -1.031   5.187  24.944  0.00  0.00    +0.074 C 
ATOM      2  C   UNL     1      -1.493   4.506  25.007  0.00  0.00    +0.139 A 
ATOM      3  N   UNL     1      -1.140   3.762  24.952  0.00  0.00    -0.235 NA
ATOM      4  C   UNL     1      -1.602   3.081  25.015  0.00  0.00    +0.063 A 
ATOM      5  C   UNL     1      -2.415   3.143  25.132  0.00  0.00    +0.034 A 
ATOM      6  C   UNL     1      -2.768   3.887  25.186  0.00  0.00    +0.084 A 
ATOM      7  N   UNL     1      -2.307   4.568  25.124  0.00  0.00    -0.231 NA
BRANCH   6   8
ATOM      8  C   UNL     1      -3.582   3.951  25.303  0.00  0.00    +0.018 A 
ATOM      9  C   UNL     1      -4.093   3.954  24.655  0.00  0.00    +0.004 A 
ATOM     10  C   UNL     1      -4.908   4.018  24.771  0.00  0.00    +0.030 A 
ATOM     11  C   UNL     1      -5.211   4.078  25.537  0.00  0.00    +0.140 A 
ATOM     12  F   UNL     1      -6.026   4.141  25.653  0.00  0.00    -0.204 F 
ATOM     13  C   UNL     1      -4.701   4.075  26.184  0.00  0.00    +0.030 A 
ATOM     14  C   UNL     1      -3.886   4.011  26.068  0.00  0.00    +0.004 A 
ENDBRANCH   6   8
ENDBRANCH  15   4
BRANCH  22  23
ATOM     23  C   UNL     1      -0.246   0.196  24.788  0.00  0.00    +0.133 C 
BRANCH  23  24
ATOM     24  N   UNL     1      -0.536  -0.481  25.158  0.00  0.00    -0.185 NA
ATOM     25  C   UNL     1      -1.046  -0.987  24.752  0.00  0.00    +0.344 C 
ATOM     26  O   UNL     1      -1.265  -0.815  23.975  0.00  0.00    -0.249 OA
ATOM     27  N   UNL     1      -1.337  -1.665  25.122  0.00  0.00    -0.161 NA
BRANCH  27  28
ATOM     28  C   UNL     1      -1.846  -2.170  24.715  0.00  0.00    +0.076 A 
ATOM     29  C   UNL     1      -2.639  -1.964  24.614  0.00  0.00    +0.027 A 
ATOM     30  C   UNL     1      -3.148  -2.470  24.207  0.00  0.00    +0.070 A 
ATOM     31  C   UNL     1      -2.866  -3.181  23.901  0.00  0.00    +0.010 A 
ATOM     32  C   UNL     1      -2.073  -3.388  24.001  0.00  0.00    +0.002 A 
ATOM     33  C   UNL     1      -1.564  -2.882  24.408  0.00  0.00    +0.017 A 
BRANCH  30  34
ATOM     34  C   UNL     1      -3.941  -2.263  24.107  0.00  0.00    +0.100 C 
ATOM     35  N   UNL     1      -4.733  -2.056  24.007  0.00  0.00    -0.191 NA
ENDBRANCH  30  34
ENDBRANCH  27  28
ENDBRANCH  23  24
ENDBRANCH  22  23
TORSDOF 6
ENDMDL
MODEL 7
REMARK VINA RESULT:      -8.5      3.913      5.613
REMARK  Name = 
REMARK  6 active torsions:
REMARK  status: ('A' for Active; 'I' for Inactive)
REMARK    1  A    between atoms: C_4  and  C_15
REMARK    2  A    between atoms: C_6  and  C_8
REMARK    3  A    between atoms: C_22  and  C_23
REMARK    4  A    between atoms: C_23  and  N_24
REMARK    5  A    between atoms: N_27  and  C_28
REMARK    6  A    between atoms: C_30  and  C_34
REMARK                            x       y       z     vdW  Elec       q    Type
REMARK                         _______ _______ _______ _____ _____    ______ ____
ROOT
ATOM     15  C   UNL     1      -3.819   2.569  25.254  0.00  0.00    +0.056 C 
ATOM     16  C   UNL     1      -3.409   1.909  25.228  0.00  0.00    +0.078 C 
ATOM     17  N   UNL     1      -4.174   2.019  24.937  0.00  0.00    -0.272 NA
ATOM     18  C   UNL     1      -4.436   3.016  25.128  0.00  0.00    +0.072 C 
ATOM     19  C   UNL     1      -4.866   3.507  25.094  0.00  0.00    +0.018 C 
ATOM     20  C   UNL     1      -4.569   2.670  24.966  0.00  0.00    +0.010 C 
ATOM     21  C   UNL     1      -5.124   2.121  24.565  0.00  0.00    +0.018 C 
ATOM     22  C   UNL     1      -4.756   1.454  24.520  0.00  0.00    +0.079 C 
ENDROOT
BRANCH  15   4
ATOM      1  C   UNL     1      -3.704   4.498  27.361  0.00  0.00    +0.074 C 
ATOM      2  C   UNL     1      -3.401   4.189  26.658  0.00  0.00    +0.139 A 
ATOM      3  N   UNL     1      -3.761   3.534  26.307  0.00  0.00    -0.235 NA
ATOM      4  C   UNL     1      -3.459   3.225  25.605  0.00  0.00    +0.063 A 
ATOM      5  C   UNL     1      -2.798   3.569  25.253  0.00  0.00    +0.034 A 
ATOM      6  C   UNL     1      -2.438   4.223  25.603  0.00  0.00    +0.084 A 
ATOM      7  N   UNL     1      -2.739   4.533  26.306  0.00  0.00    -0.231 NA
BRANCH   6   8
ATOM      8  C   UNL     1      -1.776   4.568  25.252  0.00  0.00    +0.018 A 
ATOM      9  C   UNL     1      -1.109   4.110  25.090  0.00  0.00    +0.004 A 
ATOM     10  C   UNL     1      -0.447   4.454  24.738  0.00  0.00    +0.030 A 
ATOM     11  C   UNL     1      -0.452   5.257  24.549  0.00  0.00    +0.140 A 
ATOM     12  F   UNL     1       0.211   5.602  24.197  0.00  0.00    -0.204 F 
ATOM     13  C   UNL     1      -1.118   5.715  24.711  0.00  0.00    +0.030 A 
ATOM     14  C   UNL     1      -1.780   5.371  25.062  0.00  0.00    +0.004 A 
ENDBRANCH   6   8
ENDBRANCH  15   4
BRANCH  22  23
ATOM     23  C   UNL     1      -4.836   0.679  24.251  0.00  0.00    +0.133 C 
BRANCH  23  24
ATOM     24  N   UNL     1      -4.678   0.048  24.759  0.00  0.00    -0.185 NA
ATOM     25  C   UNL     1      -4.237  -0.596  24.492  0.00  0.00    +0.344 C 
ATOM     26  O   UNL     1      -3.955  -0.610  23.717  0.00  0.00    -0.249 OA
ATOM     27  N   UNL     1      -4.079  -1.227  25.000  0.00  0.00    -0.161 NA
BRANCH  27  28
ATOM     28  C   UNL     1      -3.638  -1.871  24.732  0.00  0.00    +0.076 A 
ATOM     29  C   UNL     1      -2.821  -1.890  24.849  0.00  0.00    +0.027 A 
ATOM     30  C   UNL     1      -2.380  -2.534  24.582  0.00  0.00    +0.070 A 
ATOM     31  C   UNL     1      -2.756  -3.160  24.197  0.00  0.00    +0.010 A 
ATOM     32  C   UNL     1      -3.572  -3.141  24.080  0.00  0.00    +0.002 A 
ATOM     33  C   UNL     1      -4.013  -2.497  24.347  0.00  0.00    +0.017 A 
BRANCH  30  34
ATOM     34  C   UNL     1      -1.564  -2.552  24.699  0.00  0.00    +0.100 C 
ATOM     35  N   UNL     1      -0.747  -2.570  24.816  0.00  0.00    -0.191 NA
ENDBRANCH  30  34
ENDBRANCH  27  28
ENDBRANCH  23  24
ENDBRANCH  22  23
TORSDOF 6
ENDMDL
MODEL 8
REMARK VINA RESULT:      -8.4     14.588     16.847
REMARK  Name = 
REMARK  6 active torsions:
REMARK  status: ('A' for Active; 'I' for Inactive)
REMARK    1  A    between atoms: C_4  and  C_15
REMARK    2  A    between atoms: C_6  and  C_8
REMARK    3  A    between atoms: C_22  and  C_23
REMARK    4  A    between atoms: C_23  and  N_24
REMARK    5  A    between atoms: N_27  and  C_28
REMARK    6  A    between atoms: C_30  and  C_34
REMARK                            x       y       z     vdW  Elec       q    Type
REMARK                         _______ _______ _______ _____ _____    ______ ____
ROOT
ATOM     15  C   UNL     1      -5.155 -10.200  12.247  0.00  0.00    +0.056 C 
ATOM     16  C   UNL     1      -5.081 -10.779  12.760  0.00  0.00    +0.078 C 
ATOM     17  N   UNL     1      -5.615 -10.152  12.807  0.00  0.00    -0.272 NA
ATOM     18  C   UNL     1      -5.459  -9.549  11.964  0.00  0.00    +0.072 C 
ATOM     19  C   UNL     1      -5.607  -9.022  11.606  0.00  0.00    +0.018 C 
ATOM     20  C   UNL     1      -5.681  -9.587  12.299  0.00  0.00    +0.010 C 
ATOM     21  C   UNL     1      -6.292  -9.386  12.897  0.00  0.00    +0.018 C 
ATOM     22  C   UNL     1      -6.252  -9.936  13.424  0.00  0.00    +0.079 C 
ENDROOT
BRANCH  15   4
ATOM      1  C   UNL     1      -4.725 -10.699   9.465  0.00  0.00    +0.074 C 
ATOM      2  C   UNL     1      -4.438 -10.460  10.201  0.00  0.00    +0.139 A 
ATOM      3  N   UNL     1      -4.939 -10.449  10.855  0.00  0.00    -0.235 NA
ATOM      4  C   UNL     1      -4.652 -10.210  11.591  0.00  0.00    +0.063 A 
ATOM      5  C   UNL     1      -3.865  -9.980  11.672  0.00  0.00    +0.034 A 
ATOM      6  C   UNL     1      -3.363  -9.990  11.017  0.00  0.00    +0.084 A 
ATOM      7  N   UNL     1      -3.649 -10.230  10.281  0.00  0.00    -0.231 NA
BRANCH   6   8
ATOM      8  C   UNL     1      -2.575  -9.761  11.097  0.00  0.00    +0.018 A 
ATOM      9  C   UNL     1      -2.288  -9.115  10.671  0.00  0.00    +0.004 A 
ATOM     10  C   UNL     1      -1.500  -8.884  10.751  0.00  0.00    +0.030 A 
ATOM     11  C   UNL     1      -0.998  -9.301  11.256  0.00  0.00    +0.140 A 
ATOM     12  F   UNL     1      -0.209  -9.071  11.336  0.00  0.00    -0.204 F 
ATOM     13  C   UNL     1      -1.284  -9.947  11.681  0.00  0.00    +0.030 A 
ATOM     14  C   UNL     1      -2.073 -10.177  11.602  0.00  0.00    +0.004 A 
ENDBRANCH   6   8
ENDBRANCH  15   4
BRANCH  22  23
ATOM     23  C   UNL     1      -6.587 -10.188  14.134  0.00  0.00    +0.133 C 
BRANCH  23  24
ATOM     24  N   UNL     1      -6.537  -9.711  14.805  0.00  0.00    -0.185 NA
ATOM     25  C   UNL     1      -6.769 -10.005  15.540  0.00  0.00    +0.344 C 
ATOM     26  O   UNL     1      -7.052 -10.778  15.603  0.00  0.00    -0.249 OA
ATOM     27  N   UNL     1      -6.720  -9.528  16.211  0.00  0.00    -0.161 NA
BRANCH  27  28
ATOM     28  C   UNL     1      -6.952  -9.824  16.945  0.00  0.00    +0.076 A 
ATOM     29  C   UNL     1      -6.383 -10.044  17.500  0.00  0.00    +0.027 A 
ATOM     30  C   UNL     1      -6.615 -10.340  18.235  0.00  0.00    +0.070 A 
ATOM     31  C   UNL     1      -7.417 -10.415  18.414  0.00  0.00    +0.010 A 
ATOM     32  C   UNL     1      -7.986 -10.195  17.860  0.00  0.00    +0.002 A 
ATOM     33  C   UNL     1      -7.754  -9.899  17.125  0.00  0.00    +0.017 A 
BRANCH  30  34
ATOM     34  C   UNL     1      -6.046 -10.560  18.790  0.00  0.00    +0.100 C 
ATOM     35  N   UNL     1      -5.477 -10.781  19.345  0.00  0.00    -0.191 NA
ENDBRANCH  30  34
ENDBRANCH  27  28
ENDBRANCH  23  24
ENDBRANCH  22  23
TORSDOF 6
ENDMDL
