MODEL 1
REMARK VINA RESULT:     -15.8      0.000      0.000
REMARK  Name = 
REMARK  4 active torsions:
REMARK  status: ('A' for Active; 'I' for Inactive)
REMARK    1  A    between atoms: C_2  and  O_5
REMARK    2  A    between atoms: O_5  and  C_6
REMARK    3  A    between atoms: C_9  and  C_12
REMARK    4  A    between atoms: N_20  and  C_22
REMARK                            x       y       z     vdW  Elec       q    Type
REMARK                         _______ _______ _______ _____ _____    ______ ____
ROOT
ATOM     12  C   UNL     1      -4.389   0.805  24.928  0.00  0.00    +0.056 A 
ATOM     13  C   UNL     1      -5.126   0.879  25.292  0.00  0.00    +0.006 A 
ATOM     14  C   UNL     1      -5.427   1.628  25.464  0.00  0.00    +0.013 A 
ATOM     15  C   UNL     1      -4.992   2.301  25.271  0.00  0.00    +0.041 A 
ATOM     16  C   UNL     1      -5.036   3.218  25.322  0.00  0.00    +0.054 C 
ATOM     17  C   UNL     1      -5.453   3.738  25.542  0.00  0.00    +0.011 C 
ATOM     18  C   UNL     1      -4.726   3.660  25.183  0.00  0.00    +0.039 C 
ATOM     19  C   UNL     1      -3.843   3.772  24.754  0.00  0.00    +0.074 C 
ATOM     20  N   UNL     1      -3.644   2.970  24.631  0.00  0.00    -0.273 NA
ATOM     21  C   UNL     1      -4.184   3.343  24.908  0.00  0.00    +0.078 C 
ATOM     28  C   UNL     1      -4.671   2.703  25.126  0.00  0.00    +0.110 C 
ATOM     29  N   UNL     1      -4.255   2.227  24.907  0.00  0.00    -0.299 N 
ATOM     30  C   UNL     1      -3.954   1.478  24.736  0.00  0.00    +0.261 A 
ATOM     31  O   UNL     1      -3.404   0.935  24.449  0.00  0.00    -0.267 OA
ENDROOT
BRANCH  12   9
ATOM      6  C   UNL     1      -3.486  -1.442  24.417  0.00  0.00    +0.147 A 
ATOM      7  C   UNL     1      -3.952  -1.049  23.861  0.00  0.00    +0.037 A 
ATOM      8  C   UNL     1      -4.254  -0.300  24.032  0.00  0.00    +0.003 A 
ATOM      9  C   UNL     1      -4.088   0.056  24.757  0.00  0.00    +0.005 A 
ATOM     10  C   UNL     1      -3.621  -0.337  25.312  0.00  0.00    +0.003 A 
ATOM     11  C   UNL     1      -3.320  -1.086  25.142  0.00  0.00    +0.037 A 
BRANCH   6   5
ATOM      5  O   UNL     1      -3.184  -2.191  24.246  0.00  0.00    -0.404 OA
BRANCH   5   2
ATOM      1  F   UNL     1      -3.978  -3.537  24.774  0.00  0.00    -0.133 F 
ATOM      2  C   UNL     1      -3.581  -2.864  24.509  0.00  0.00    +0.575 C 
ATOM      3  F   UNL     1      -4.038  -2.864  23.823  0.00  0.00    -0.133 F 
ATOM      4  F   UNL     1      -3.123  -2.864  25.196  0.00  0.00    -0.133 F 
ENDBRANCH   5   2
ENDBRANCH   6   5
ENDBRANCH  12   9
BRANCH  20  22
ATOM     22  C   UNL     1      -3.203   2.314  24.394  0.00  0.00    +0.063 C 
ATOM     23  C   UNL     1      -2.668   1.966  24.917  0.00  0.00    +0.048 C 
ATOM     24  C   UNL     1      -2.227   1.310  24.679  0.00  0.00    +0.144 C 
ATOM     25  O   UNL     1      -2.321   1.003  23.919  0.00  0.00    -0.354 OA
ATOM     26  C   UNL     1      -2.856   1.351  23.397  0.00  0.00    +0.144 C 
ATOM     27  C   UNL     1      -3.297   2.007  23.634  0.00  0.00    +0.048 C 
ENDBRANCH  20  22
TORSDOF 4
ENDMDL
MODEL 2
REMARK VINA RESULT:     -14.7      1.262      2.321
REMARK  Name = 
REMARK  4 active torsions:
REMARK  status: ('A' for Active; 'I' for Inactive)
REMARK    1  A    between atoms: C_2  and  O_5
REMARK    2  A    between atoms: O_5  and  C_6
REMARK    3  A    between atoms: C_9  and  C_12
REMARK    4  A    between atoms: N_20  and  C_22
REMARK                            x       y       z     vdW  Elec       q    Type
REMARK                         _______ _______ _______ _____ _____    ______ ____
ROOT
ATOM     12  C   UNL     1      -2.632   1.484  24.829  0.00  0.00    +0.056 A 
ATOM     13  C   UNL     1      -1.829   1.381  24.986  0.00  0.00    +0.006 A 
ATOM     14  C   UNL     1      -1.351   2.035  25.144  0.00  0.00    +0.013 A 
ATOM     15  C   UNL     1      -1.677   2.793  25.144  0.00  0.00    +0.041 A 
ATOM     16  C   UNL     1      -1.440   3.671  25.271  0.00  0.00    +0.054 C 
ATOM     17  C   UNL     1      -0.887   4.076  25.422  0.00  0.00    +0.011 C 
ATOM     18  C   UNL     1      -1.680   4.175  25.266  0.00  0.00    +0.039 C 
ATOM     19  C   UNL     1      -2.601   4.494  25.103  0.00  0.00    +0.074 C 
ATOM     20  N   UNL     1      -2.980   3.764  24.959  0.00  0.00    -0.273 NA
ATOM     21  C   UNL     1      -2.325   3.996  25.116  0.00  0.00    +0.078 C 
ATOM     28  C   UNL     1      -1.937   3.259  25.131  0.00  0.00    +0.110 C 
ATOM     29  N   UNL     1      -2.480   2.896  24.986  0.00  0.00    -0.299 N 
ATOM     30  C   UNL     1      -2.958   2.242  24.828  0.00  0.00    +0.261 A 
ATOM     31  O   UNL     1      -3.659   1.847  24.648  0.00  0.00    -0.267 OA
ENDROOT
BRANCH  12   9
ATOM      6  C   UNL     1      -4.062  -0.479  24.355  0.00  0.00    +0.147 A 
ATOM      7  C   UNL     1      -3.967  -0.216  25.131  0.00  0.00    +0.037 A 
ATOM      8  C   UNL     1      -3.490   0.439  25.289  0.00  0.00    +0.003 A 
ATOM      9  C   UNL     1      -3.109   0.830  24.671  0.00  0.00    +0.005 A 
ATOM     10  C   UNL     1      -3.204   0.567  23.895  0.00  0.00    +0.003 A 
ATOM     11  C   UNL     1      -3.680  -0.088  23.737  0.00  0.00    +0.037 A 
BRANCH   6   5
ATOM      5  O   UNL     1      -4.539  -1.134  24.196  0.00  0.00    -0.404 OA
BRANCH   5   2
ATOM      1  F   UNL     1      -3.848  -2.595  23.866  0.00  0.00    -0.133 F 
ATOM      2  C   UNL     1      -4.194  -1.864  24.032  0.00  0.00    +0.575 C 
ATOM      3  F   UNL     1      -4.123  -2.014  24.840  0.00  0.00    -0.133 F 
ATOM      4  F   UNL     1      -4.264  -1.715  23.224  0.00  0.00    -0.133 F 
ENDBRANCH   5   2
ENDBRANCH   6   5
ENDBRANCH  12   9
BRANCH  20  22
ATOM     22  C   UNL     1      -3.587   3.233  24.786  0.00  0.00    +0.063 C 
ATOM     23  C   UNL     1      -3.740   3.023  24.003  0.00  0.00    +0.048 C 
ATOM     24  C   UNL     1      -4.348   2.492  23.830  0.00  0.00    +0.144 C 
ATOM     25  O   UNL     1      -4.802   2.171  24.439  0.00  0.00    -0.354 OA
ATOM     26  C   UNL     1      -4.649   2.382  25.222  0.00  0.00    +0.144 C 
ATOM     27  C   UNL     1      -4.042   2.912  25.396  0.00  0.00    +0.048 C 
ENDBRANCH  20  22
TORSDOF 4
ENDMDL
MODEL 3
REMARK VINA RESULT:     -14.7      2.640      4.455
REMARK  Name = 
REMARK  4 active torsions:
REMARK  status: ('A' for Active; 'I' for Inactive)
REMARK    1  A    between atoms: C_2  and  O_5
REMARK    2  A    between atoms: O_5  and  C_6
REMARK    3  A    between atoms: C_9  and  C_12
REMARK    4  A    between atoms: N_20  and  C_22
REMARK                            x       y       z     vdW  Elec       q    Type
REMARK                         _______ _______ _______ _____ _____    ______ ____
ROOT
ATOM     12  C   UNL     1      -3.616   0.205  24.341  0.00  0.00    +0.056 A 
ATOM     13  C   UNL     1      -4.325  -0.174  24.152  0.00  0.00    +0.006 A 
ATOM     14  C   UNL     1      -4.364  -0.998  24.149  0.00  0.00    +0.013 A 
ATOM     15  C   UNL     1      -3.695  -1.443  24.334  0.00  0.00    +0.041 A 
ATOM     16  C   UNL     1      -3.419  -2.315  24.417  0.00  0.00    +0.054 C 
ATOM     17  C   UNL     1      -3.653  -2.975  24.360  0.00  0.00    +0.011 C 
ATOM     18  C   UNL     1      -2.955  -2.597  24.545  0.00  0.00    +0.039 C 
ATOM     19  C   UNL     1      -2.036  -2.332  24.792  0.00  0.00    +0.074 C 
ATOM     20  N   UNL     1      -2.118  -1.501  24.762  0.00  0.00    -0.273 NA
ATOM     21  C   UNL     1      -2.526  -2.075  24.657  0.00  0.00    +0.078 C 
ATOM     28  C   UNL     1      -3.234  -1.683  24.461  0.00  0.00    +0.110 C 
ATOM     29  N   UNL     1      -2.986  -1.064  24.523  0.00  0.00    -0.299 N 
ATOM     30  C   UNL     1      -2.947  -0.240  24.526  0.00  0.00    +0.261 A 
ATOM     31  O   UNL     1      -2.588   0.497  24.617  0.00  0.00    -0.267 OA
ENDROOT
BRANCH  12   9
ATOM      6  C   UNL     1      -3.502   2.677  24.351  0.00  0.00    +0.147 A 
ATOM      7  C   UNL     1      -3.300   2.258  23.669  0.00  0.00    +0.037 A 
ATOM      8  C   UNL     1      -3.339   1.433  23.666  0.00  0.00    +0.003 A 
ATOM      9  C   UNL     1      -3.578   1.029  24.344  0.00  0.00    +0.005 A 
ATOM     10  C   UNL     1      -3.779   1.448  25.025  0.00  0.00    +0.003 A 
ATOM     11  C   UNL     1      -3.741   2.272  25.029  0.00  0.00    +0.037 A 
BRANCH   6   5
ATOM      5  O   UNL     1      -3.463   3.502  24.355  0.00  0.00    -0.404 OA
BRANCH   5   2
ATOM      1  F   UNL     1      -2.496   4.277  25.443  0.00  0.00    -0.133 F 
ATOM      2  C   UNL     1      -2.979   3.889  24.898  0.00  0.00    +0.575 C 
ATOM      3  F   UNL     1      -2.334   3.789  24.396  0.00  0.00    -0.133 F 
ATOM      4  F   UNL     1      -3.626   3.989  25.401  0.00  0.00    -0.133 F 
ENDBRANCH   5   2
ENDBRANCH   6   5
ENDBRANCH  12   9
BRANCH  20  22
ATOM     22  C   UNL     1      -1.907  -0.704  24.812  0.00  0.00    +0.063 C 
ATOM     23  C   UNL     1      -1.616  -0.312  24.147  0.00  0.00    +0.048 C 
ATOM     24  C   UNL     1      -1.405   0.484  24.197  0.00  0.00    +0.144 C 
ATOM     25  O   UNL     1      -1.486   0.888  24.913  0.00  0.00    -0.354 OA
ATOM     26  C   UNL     1      -1.777   0.496  25.577  0.00  0.00    +0.144 C 
ATOM     27  C   UNL     1      -1.987  -0.300  25.528  0.00  0.00    +0.048 C 
ENDBRANCH  20  22
TORSDOF 4
ENDMDL
MODEL 4
REMARK VINA RESULT:     -14.3      2.957      4.626
REMARK  Name = 
REMARK  4 active torsions:
REMARK  status: ('A' for Active; 'I' for Inactive)
REMARK    1  A    between atoms: C_2  and  O_5
REMARK    2  A    between atoms: O_5  and  C_6
REMARK    3  A    between atoms: C_9  and  C_12
REMARK    4  A    between atoms: N_20  and  C_22
REMARK                            x       y       z     vdW  Elec       q    Type
REMARK                         _______ _______ _______ _____ _____    ______ ____
ROOT
ATOM     12  C   UNL     1      -1.891   1.191  25.071  0.00  0.00    +0.056 A 
ATOM     13  C   UNL     1      -1.477   0.550  25.384  0.00  0.00    +0.006 A 
ATOM     14  C   UNL     1      -1.793  -0.210  25.332  0.00  0.00    +0.013 A 
ATOM     15  C   UNL     1      -2.524  -0.329  24.969  0.00  0.00    +0.041 A 
ATOM     16  C   UNL     1      -3.116  -0.999  24.760  0.00  0.00    +0.054 C 
ATOM     17  C   UNL     1      -3.205  -1.693  24.817  0.00  0.00    +0.011 C 
ATOM     18  C   UNL     1      -3.612  -1.058  24.510  0.00  0.00    +0.039 C 
ATOM     19  C   UNL     1      -4.244  -0.429  24.085  0.00  0.00    +0.074 C 
ATOM     20  N   UNL     1      -3.827   0.286  24.196  0.00  0.00    -0.273 NA
ATOM     21  C   UNL     1      -3.738  -0.404  24.346  0.00  0.00    +0.078 C 
ATOM     28  C   UNL     1      -2.998  -0.350  24.724  0.00  0.00    +0.110 C 
ATOM     29  N   UNL     1      -2.938   0.313  24.656  0.00  0.00    -0.299 N 
ATOM     30  C   UNL     1      -2.621   1.073  24.707  0.00  0.00    +0.261 A 
ATOM     31  O   UNL     1      -2.601   1.889  24.595  0.00  0.00    -0.267 OA
ENDROOT
BRANCH  12   9
ATOM      6  C   UNL     1      -0.940   3.471  25.227  0.00  0.00    +0.147 A 
ATOM      7  C   UNL     1      -0.771   2.998  24.572  0.00  0.00    +0.037 A 
ATOM      8  C   UNL     1      -1.089   2.237  24.520  0.00  0.00    +0.003 A 
ATOM      9  C   UNL     1      -1.574   1.951  25.122  0.00  0.00    +0.005 A 
ATOM     10  C   UNL     1      -1.742   2.424  25.777  0.00  0.00    +0.003 A 
ATOM     11  C   UNL     1      -1.425   3.184  25.829  0.00  0.00    +0.037 A 
BRANCH   6   5
ATOM      5  O   UNL     1      -0.623   4.231  25.279  0.00  0.00    -0.404 OA
BRANCH   5   2
ATOM      1  F   UNL     1      -1.486   5.523  24.725  0.00  0.00    -0.133 F 
ATOM      2  C   UNL     1      -1.055   4.877  25.003  0.00  0.00    +0.575 C 
ATOM      3  F   UNL     1      -1.491   4.886  25.703  0.00  0.00    -0.133 F 
ATOM      4  F   UNL     1      -0.618   4.868  24.303  0.00  0.00    -0.133 F 
ENDBRANCH   5   2
ENDBRANCH   6   5
ENDBRANCH  12   9
BRANCH  20  22
ATOM     22  C   UNL     1      -3.661   1.094  24.161  0.00  0.00    +0.063 C 
ATOM     23  C   UNL     1      -3.911   1.592  24.768  0.00  0.00    +0.048 C 
ATOM     24  C   UNL     1      -3.745   2.400  24.734  0.00  0.00    +0.144 C 
ATOM     25  O   UNL     1      -3.329   2.709  24.091  0.00  0.00    -0.354 OA
ATOM     26  C   UNL     1      -3.080   2.210  23.484  0.00  0.00    +0.144 C 
ATOM     27  C   UNL     1      -3.245   1.403  23.518  0.00  0.00    +0.048 C 
ENDBRANCH  20  22
TORSDOF 4
ENDMDL
