REMARK  Name = 
REMARK  6 active torsions:
REMARK  status: ('A' for Active; 'I' for Inactive)
REMARK    1  A    between atoms: N_2  and  C_3
REMARK    2  A    between atoms: C_6  and  C_9
REMARK    3  A    between atoms: C_12  and  C_14
REMARK    4  A    between atoms: N_18  and  C_19
REMARK    5  A    between atoms: C_19  and  C_20
REMARK    6  A    between atoms: C_23  and  C_24
REMARK                            x       y       z     vdW  Elec       q    Type
REMARK                         _______ _______ _______ _____ _____    ______ ____
ROOT
ATOM      9  C   UNL     1       0.715   3.466   0.000  0.00  0.00    +0.205 A 
ATOM     10  N   UNL     1       1.382   2.981   0.000  0.00  0.00    -0.056 NA
ATOM     11  O   UNL     1       1.127   2.196   0.000  0.00  0.00    -0.336 OA
ATOM     12  C   UNL     1       0.302   2.196   0.000  0.00  0.00    +0.251 A 
ATOM     13  N   UNL     1       0.047   2.981   0.000  0.00  0.00    -0.190 NA
ENDROOT
BRANCH   9   6
ATOM      3  C   UNL     1       0.715   5.941   0.000  0.00  0.00    +0.148 A 
ATOM      4  C   UNL     1       1.429   5.529   0.000  0.00  0.00    +0.036 A 
ATOM      5  C   UNL     1       1.429   4.704   0.000  0.00  0.00    +0.008 A 
ATOM      6  C   UNL     1       0.715   4.291   0.000  0.00  0.00    +0.058 A 
ATOM      7  C   UNL     1       0.000   4.704   0.000  0.00  0.00    +0.103 A 
ATOM      8  N   UNL     1       0.000   5.529   0.000  0.00  0.00    -0.228 NA
BRANCH   3   2
ATOM      1  C   UNL     1       0.000   7.179   0.000  0.00  0.00    +0.137 C 
ATOM      2  N   UNL     1       0.715   6.766   0.000  0.00  0.00    -0.218 NA
ENDBRANCH   3   2
ENDBRANCH   9   6
BRANCH  12  14
ATOM     14  C   UNL     1      -0.183   1.529   0.000  0.00  0.00    +0.138 C 
ATOM     15  C   UNL     1       0.072   0.745   0.000  0.00  0.00    +0.027 C 
ATOM     16  C   UNL     1      -0.596   0.260   0.000  0.00  0.00    +0.019 C 
ATOM     17  C   UNL     1      -1.263   0.745   0.000  0.00  0.00    +0.073 C 
ATOM     18  N   UNL     1      -1.008   1.529   0.000  0.00  0.00    -0.260 NA
BRANCH  18  19
ATOM     19  C   UNL     1      -1.493   2.196   0.000  0.00  0.00    +0.138 C 
BRANCH  19  20
ATOM     20  C   UNL     1      -2.313   2.110   0.000  0.00  0.00    +0.139 A 
ATOM     21  C   UNL     1      -2.726   1.396   0.000  0.00  0.00    +0.037 A 
ATOM     22  C   UNL     1      -3.533   1.567   0.000  0.00  0.00    +0.038 A 
ATOM     23  C   UNL     1      -3.619   2.388   0.000  0.00  0.00    +0.156 A 
ATOM     26  O   UNL     1      -2.865   2.723   0.000  0.00  0.00    -0.458 OA
BRANCH  23  24
ATOM     24  C   UNL     1      -4.333   2.800   0.000  0.00  0.00    +0.246 C 
ATOM     25  O   UNL     1      -5.048   2.388   0.000  0.00  0.00    -0.212 OA
ENDBRANCH  23  24
ENDBRANCH  19  20
ENDBRANCH  18  19
ENDBRANCH  12  14
TORSDOF 6
