MODEL 1
REMARK VINA RESULT:     -12.0      0.000      0.000
REMARK  Name = 
REMARK  6 active torsions:
REMARK  status: ('A' for Active; 'I' for Inactive)
REMARK    1  A    between atoms: C_2  and  C_3
REMARK    2  A    between atoms: C_8  and  C_9
REMARK    3  A    between atoms: C_9  and  C_10
REMARK    4  A    between atoms: N_12  and  C_13
REMARK    5  A    between atoms: C_13  and  C_14
REMARK    6  A    between atoms: C_20  and  C_22
REMARK                            x       y       z     vdW  Elec       q    Type
REMARK                         _______ _______ _______ _____ _____    ______ ____
ROOT
ATOM      3  C   UNL     1      -4.193   2.715  25.218  0.00  0.00    +0.020 C 
ATOM      4  C   UNL     1      -3.776   3.346  25.547  0.00  0.00    +0.093 C 
ATOM      5  N   UNL     1      -2.999   3.494  25.314  0.00  0.00    -0.280 N 
ATOM      6  C   UNL     1      -2.638   3.011  24.752  0.00  0.00    +0.093 C 
ATOM      7  C   UNL     1      -3.054   2.379  24.422  0.00  0.00    +0.022 C 
ATOM      8  C   UNL     1      -3.831   2.231  24.655  0.00  0.00    +0.012 C 
ATOM     20  C   UNL     1      -2.583   4.125  25.643  0.00  0.00    +0.225 C 
ATOM     21  O   UNL     1      -2.944   4.609  26.206  0.00  0.00    -0.275 OA
ENDROOT
BRANCH  20  22
ATOM     22  C   UNL     1      -1.805   4.273  25.410  0.00  0.00    +0.077 C 
ATOM     23  C   UNL     1      -1.253   4.751  25.026  0.00  0.00    +0.010 C 
ATOM     24  C   UNL     1      -1.011   4.052  25.390  0.00  0.00    +0.010 C 
ENDBRANCH  20  22
BRANCH   3   2
ATOM      1  C   UNL     1      -5.422   3.170  25.787  0.00  0.00    +0.000 C 
ATOM      2  C   UNL     1      -4.970   2.567  25.450  0.00  0.00    +0.002 C 
ENDBRANCH   3   2
BRANCH   8   9
ATOM      9  C   UNL     1      -4.248   1.599  24.325  0.00  0.00    +0.087 C 
BRANCH   9  10
ATOM     10  C   UNL     1      -3.839   0.978  23.968  0.00  0.00    +0.242 C 
ATOM     11  O   UNL     1      -3.373   1.119  23.302  0.00  0.00    -0.273 OA
ATOM     12  N   UNL     1      -3.897   0.215  24.277  0.00  0.00    -0.201 NA
BRANCH  12  13
ATOM     13  C   UNL     1      -3.489  -0.407  23.919  0.00  0.00    +0.141 C 
BRANCH  13  14
ATOM     14  C   UNL     1      -3.552  -1.170  24.225  0.00  0.00    -0.001 A 
ATOM     15  C   UNL     1      -3.161  -1.368  24.924  0.00  0.00    -0.003 A 
ATOM     16  C   UNL     1      -3.224  -2.132  25.229  0.00  0.00    -0.000 A 
ATOM     17  C   UNL     1      -3.677  -2.697  24.837  0.00  0.00    -0.000 A 
ATOM     18  C   UNL     1      -4.068  -2.500  24.137  0.00  0.00    -0.000 A 
ATOM     19  C   UNL     1      -4.005  -1.735  23.832  0.00  0.00    -0.003 A 
ENDBRANCH  13  14
ENDBRANCH  12  13
ENDBRANCH   9  10
ENDBRANCH   8   9
TORSDOF 6
ENDMDL
MODEL 2
REMARK VINA RESULT:     -11.0      1.177      1.411
REMARK  Name = 
REMARK  6 active torsions:
REMARK  status: ('A' for Active; 'I' for Inactive)
REMARK    1  A    between atoms: C_2  and  C_3
REMARK    2  A    between atoms: C_8  and  C_9
REMARK    3  A    between atoms: C_9  and  C_10
REMARK    4  A    between atoms: N_12  and  C_13
REMARK    5  A    between atoms: C_13  and  C_14
REMARK    6  A    between atoms: C_20  and  C_22
REMARK                            x       y       z     vdW  Elec       q    Type
REMARK                         _______ _______ _______ _____ _____    ______ ____
ROOT
ATOM      3  C   UNL     1      -3.228   2.762  24.429  0.00  0.00    +0.020 C 
ATOM      4  C   UNL     1      -2.596   3.218  24.699  0.00  0.00    +0.093 C 
ATOM      5  N   UNL     1      -1.949   2.856  25.060  0.00  0.00    -0.280 N 
ATOM      6  C   UNL     1      -1.934   2.037  25.151  0.00  0.00    +0.093 C 
ATOM      7  C   UNL     1      -2.565   1.579  24.882  0.00  0.00    +0.022 C 
ATOM      8  C   UNL     1      -3.212   1.942  24.521  0.00  0.00    +0.012 C 
ATOM     20  C   UNL     1      -1.318   3.313  25.329  0.00  0.00    +0.225 C 
ATOM     21  O   UNL     1      -1.332   4.133  25.238  0.00  0.00    -0.275 OA
ENDROOT
BRANCH  20  22
ATOM     22  C   UNL     1      -0.670   2.950  25.691  0.00  0.00    +0.077 C 
ATOM     23  C   UNL     1       0.082   2.614  25.638  0.00  0.00    +0.010 C 
ATOM     24  C   UNL     1      -0.301   2.658  26.368  0.00  0.00    +0.010 C 
ENDBRANCH  20  22
BRANCH   3   2
ATOM      1  C   UNL     1      -3.849   3.930  23.890  0.00  0.00    +0.000 C 
ATOM      2  C   UNL     1      -3.874   3.124  24.068  0.00  0.00    +0.002 C 
ENDBRANCH   3   2
BRANCH   8   9
ATOM      9  C   UNL     1      -3.844   1.484  24.251  0.00  0.00    +0.087 C 
BRANCH   9  10
ATOM     10  C   UNL     1      -4.108   0.842  24.697  0.00  0.00    +0.242 C 
ATOM     11  O   UNL     1      -4.511   0.969  25.406  0.00  0.00    -0.273 OA
ATOM     12  N   UNL     1      -3.968   0.073  24.434  0.00  0.00    -0.201 NA
BRANCH  12  13
ATOM     13  C   UNL     1      -4.232  -0.569  24.880  0.00  0.00    +0.141 C 
BRANCH  13  14
ATOM     14  C   UNL     1      -4.026  -1.337  24.658  0.00  0.00    -0.001 A 
ATOM     15  C   UNL     1      -3.525  -1.784  25.139  0.00  0.00    -0.003 A 
ATOM     16  C   UNL     1      -3.318  -2.551  24.917  0.00  0.00    -0.000 A 
ATOM     17  C   UNL     1      -3.612  -2.871  24.217  0.00  0.00    -0.000 A 
ATOM     18  C   UNL     1      -4.113  -2.425  23.737  0.00  0.00    -0.000 A 
ATOM     19  C   UNL     1      -4.319  -1.657  23.958  0.00  0.00    -0.003 A 
ENDBRANCH  13  14
ENDBRANCH  12  13
ENDBRANCH   9  10
ENDBRANCH   8   9
TORSDOF 6
ENDMDL
MODEL 3
REMARK VINA RESULT:     -10.4      2.253      5.737
REMARK  Name = 
REMARK  6 active torsions:
REMARK  status: ('A' for Active; 'I' for Inactive)
REMARK    1  A    between atoms: C_2  and  C_3
REMARK    2  A    between atoms: C_8  and  C_9
REMARK    3  A    between atoms: C_9  and  C_10
REMARK    4  A    between atoms: N_12  and  C_13
REMARK    5  A    between atoms: C_13  and  C_14
REMARK    6  A    between atoms: C_20  and  C_22
REMARK                            x       y       z     vdW  Elec       q    Type
REMARK                         _______ _______ _______ _____ _____    ______ ____
ROOT
ATOM      3  C   UNL     1      -0.536  -0.368  24.345  0.00  0.00    +0.020 C 
ATOM      4  C   UNL     1      -0.933  -1.091  24.310  0.00  0.00    +0.093 C 
ATOM      5  N   UNL     1      -1.702  -1.155  24.601  0.00  0.00    -0.280 N 
ATOM      6  C   UNL     1      -2.075  -0.497  24.927  0.00  0.00    +0.093 C 
ATOM      7  C   UNL     1      -1.680   0.227  24.963  0.00  0.00    +0.022 C 
ATOM      8  C   UNL     1      -0.911   0.291  24.672  0.00  0.00    +0.012 C 
ATOM     20  C   UNL     1      -2.097  -1.878  24.565  0.00  0.00    +0.225 C 
ATOM     21  O   UNL     1      -1.724  -2.537  24.239  0.00  0.00    -0.275 OA
ENDROOT
BRANCH  20  22
ATOM     22  C   UNL     1      -2.867  -1.942  24.857  0.00  0.00    +0.077 C 
ATOM     23  C   UNL     1      -3.384  -2.072  25.486  0.00  0.00    +0.010 C 
ATOM     24  C   UNL     1      -3.682  -1.923  24.732  0.00  0.00    +0.010 C 
ENDBRANCH  20  22
BRANCH   3   2
ATOM      1  C   UNL     1       0.410  -0.577  23.295  0.00  0.00    +0.000 C 
ATOM      2  C   UNL     1       0.232  -0.304  24.054  0.00  0.00    +0.002 C 
ENDBRANCH   3   2
BRANCH   8   9
ATOM      9  C   UNL     1      -0.515   1.015  24.707  0.00  0.00    +0.087 C 
BRANCH   9  10
ATOM     10  C   UNL     1      -0.695   1.554  25.305  0.00  0.00    +0.242 C 
ATOM     11  O   UNL     1      -0.671   1.319  26.095  0.00  0.00    -0.273 OA
ATOM     12  N   UNL     1      -0.900   2.329  25.111  0.00  0.00    -0.201 NA
BRANCH  12  13
ATOM     13  C   UNL     1      -1.081   2.869  25.708  0.00  0.00    +0.141 C 
BRANCH  13  14
ATOM     14  C   UNL     1      -1.287   3.644  25.514  0.00  0.00    -0.001 A 
ATOM     15  C   UNL     1      -2.047   3.922  25.679  0.00  0.00    -0.003 A 
ATOM     16  C   UNL     1      -2.253   4.697  25.485  0.00  0.00    -0.000 A 
ATOM     17  C   UNL     1      -1.702   5.193  25.127  0.00  0.00    -0.000 A 
ATOM     18  C   UNL     1      -0.942   4.916  24.962  0.00  0.00    -0.000 A 
ATOM     19  C   UNL     1      -0.736   4.141  25.156  0.00  0.00    -0.003 A 
ENDBRANCH  13  14
ENDBRANCH  12  13
ENDBRANCH   9  10
ENDBRANCH   8   9
TORSDOF 6
ENDMDL
MODEL 4
REMARK VINA RESULT:     -10.4      1.950      2.810
REMARK  Name = 
REMARK  6 active torsions:
REMARK  status: ('A' for Active; 'I' for Inactive)
REMARK    1  A    between atoms: C_2  and  C_3
REMARK    2  A    between atoms: C_8  and  C_9
REMARK    3  A    between atoms: C_9  and  C_10
REMARK    4  A    between atoms: N_12  and  C_13
REMARK    5  A    between atoms: C_13  and  C_14
REMARK    6  A    between atoms: C_20  and  C_22
REMARK                            x       y       z     vdW  Elec       q    Type
REMARK                         _______ _______ _______ _____ _____    ______ ____
ROOT
ATOM      3  C   UNL     1      -0.385   1.519  24.536  0.00  0.00    +0.020 C 
ATOM      4  C   UNL     1      -0.430   2.343  24.543  0.00  0.00    +0.093 C 
ATOM      5  N   UNL     1      -1.075   2.718  24.897  0.00  0.00    -0.280 N 
ATOM      6  C   UNL     1      -1.673   2.269  25.243  0.00  0.00    +0.093 C 
ATOM      7  C   UNL     1      -1.629   1.445  25.236  0.00  0.00    +0.022 C 
ATOM      8  C   UNL     1      -0.984   1.070  24.882  0.00  0.00    +0.012 C 
ATOM     20  C   UNL     1      -1.119   3.541  24.904  0.00  0.00    +0.225 C 
ATOM     21  O   UNL     1      -0.521   3.990  24.558  0.00  0.00    -0.275 OA
ENDROOT
BRANCH  20  22
ATOM     22  C   UNL     1      -1.765   3.916  25.259  0.00  0.00    +0.077 C 
ATOM     23  C   UNL     1      -2.145   4.196  25.935  0.00  0.00    +0.010 C 
ATOM     24  C   UNL     1      -2.499   4.284  25.195  0.00  0.00    +0.010 C 
ENDBRANCH  20  22
BRANCH   3   2
ATOM      1  C   UNL     1       0.879   1.594  23.873  0.00  0.00    +0.000 C 
ATOM      2  C   UNL     1       0.259   1.145  24.183  0.00  0.00    +0.002 C 
ENDBRANCH   3   2
BRANCH   8   9
ATOM      9  C   UNL     1      -0.939   0.246  24.875  0.00  0.00    +0.087 C 
BRANCH   9  10
ATOM     10  C   UNL     1      -1.512  -0.202  25.265  0.00  0.00    +0.242 C 
ATOM     11  O   UNL     1      -1.536  -0.215  26.089  0.00  0.00    -0.273 OA
ATOM     12  N   UNL     1      -2.061  -0.636  24.829  0.00  0.00    -0.201 NA
BRANCH  12  13
ATOM     13  C   UNL     1      -2.635  -1.084  25.218  0.00  0.00    +0.141 C 
BRANCH  13  14
ATOM     14  C   UNL     1      -3.158  -1.550  24.783  0.00  0.00    -0.001 A 
ATOM     15  C   UNL     1      -3.063  -2.370  24.766  0.00  0.00    -0.003 A 
ATOM     16  C   UNL     1      -3.586  -2.837  24.331  0.00  0.00    -0.000 A 
ATOM     17  C   UNL     1      -4.204  -2.485  23.915  0.00  0.00    -0.000 A 
ATOM     18  C   UNL     1      -4.300  -1.666  23.932  0.00  0.00    -0.000 A 
ATOM     19  C   UNL     1      -3.776  -1.199  24.367  0.00  0.00    -0.003 A 
ENDBRANCH  13  14
ENDBRANCH  12  13
ENDBRANCH   9  10
ENDBRANCH   8   9
TORSDOF 6
ENDMDL
MODEL 5
REMARK VINA RESULT:     -10.3      1.759      4.862
REMARK  Name = 
REMARK  6 active torsions:
REMARK  status: ('A' for Active; 'I' for Inactive)
REMARK    1  A    between atoms: C_2  and  C_3
REMARK    2  A    between atoms: C_8  and  C_9
REMARK    3  A    between atoms: C_9  and  C_10
REMARK    4  A    between atoms: N_12  and  C_13
REMARK    5  A    between atoms: C_13  and  C_14
REMARK    6  A    between atoms: C_20  and  C_22
REMARK                            x       y       z     vdW  Elec       q    Type
REMARK                         _______ _______ _______ _____ _____    ______ ____
ROOT
ATOM      3  C   UNL     1      -3.607  -1.418  24.229  0.00  0.00    +0.020 C 
ATOM      4  C   UNL     1      -2.957  -1.909  24.356  0.00  0.00    +0.093 C 
ATOM      5  N   UNL     1      -2.237  -1.587  24.599  0.00  0.00    -0.280 N 
ATOM      6  C   UNL     1      -2.168  -0.774  24.715  0.00  0.00    +0.093 C 
ATOM      7  C   UNL     1      -2.818  -0.282  24.589  0.00  0.00    +0.022 C 
ATOM      8  C   UNL     1      -3.538  -0.604  24.346  0.00  0.00    +0.012 C 
ATOM     20  C   UNL     1      -1.588  -2.079  24.725  0.00  0.00    +0.225 C 
ATOM     21  O   UNL     1      -1.657  -2.893  24.608  0.00  0.00    -0.275 OA
ENDROOT
BRANCH  20  22
ATOM     22  C   UNL     1      -0.867  -1.757  24.968  0.00  0.00    +0.077 C 
ATOM     23  C   UNL     1      -0.315  -1.612  25.563  0.00  0.00    +0.010 C 
ATOM     24  C   UNL     1      -0.174  -1.345  24.795  0.00  0.00    +0.010 C 
ENDBRANCH  20  22
BRANCH   3   2
ATOM      1  C   UNL     1      -4.382  -2.546  23.819  0.00  0.00    +0.000 C 
ATOM      2  C   UNL     1      -4.326  -1.739  23.986  0.00  0.00    +0.002 C 
ENDBRANCH   3   2
BRANCH   8   9
ATOM      9  C   UNL     1      -4.189  -0.111  24.220  0.00  0.00    +0.087 C 
BRANCH   9  10
ATOM     10  C   UNL     1      -4.073   0.687  24.046  0.00  0.00    +0.242 C 
ATOM     11  O   UNL     1      -3.583   0.906  23.420  0.00  0.00    -0.273 OA
ATOM     12  N   UNL     1      -4.450   1.265  24.498  0.00  0.00    -0.201 NA
BRANCH  12  13
ATOM     13  C   UNL     1      -4.335   2.064  24.324  0.00  0.00    +0.141 C 
BRANCH  13  14
ATOM     14  C   UNL     1      -4.666   2.642  24.810  0.00  0.00    -0.001 A 
ATOM     15  C   UNL     1      -4.242   3.330  24.980  0.00  0.00    -0.003 A 
ATOM     16  C   UNL     1      -4.573   3.908  25.466  0.00  0.00    -0.000 A 
ATOM     17  C   UNL     1      -5.327   3.801  25.781  0.00  0.00    -0.000 A 
ATOM     18  C   UNL     1      -5.751   3.114  25.611  0.00  0.00    -0.000 A 
ATOM     19  C   UNL     1      -5.420   2.535  25.125  0.00  0.00    -0.003 A 
ENDBRANCH  13  14
ENDBRANCH  12  13
ENDBRANCH   9  10
ENDBRANCH   8   9
TORSDOF 6
ENDMDL
MODEL 6
REMARK VINA RESULT:     -10.1      1.715      5.065
REMARK  Name = 
REMARK  6 active torsions:
REMARK  status: ('A' for Active; 'I' for Inactive)
REMARK    1  A    between atoms: C_2  and  C_3
REMARK    2  A    between atoms: C_8  and  C_9
REMARK    3  A    between atoms: C_9  and  C_10
REMARK    4  A    between atoms: N_12  and  C_13
REMARK    5  A    between atoms: C_13  and  C_14
REMARK    6  A    between atoms: C_20  and  C_22
REMARK                            x       y       z     vdW  Elec       q    Type
REMARK                         _______ _______ _______ _____ _____    ______ ____
ROOT
ATOM      3  C   UNL     1      -1.471  -0.041  24.455  0.00  0.00    +0.020 C 
ATOM      4  C   UNL     1      -1.477  -0.857  24.577  0.00  0.00    +0.093 C 
ATOM      5  N   UNL     1      -2.191  -1.271  24.563  0.00  0.00    -0.280 N 
ATOM      6  C   UNL     1      -2.898  -0.869  24.426  0.00  0.00    +0.093 C 
ATOM      7  C   UNL     1      -2.892  -0.053  24.304  0.00  0.00    +0.022 C 
ATOM      8  C   UNL     1      -2.179   0.361  24.318  0.00  0.00    +0.012 C 
ATOM     20  C   UNL     1      -2.197  -2.086  24.685  0.00  0.00    +0.225 C 
ATOM     21  O   UNL     1      -1.489  -2.489  24.822  0.00  0.00    -0.275 OA
ENDROOT
BRANCH  20  22
ATOM     22  C   UNL     1      -2.911  -2.501  24.671  0.00  0.00    +0.077 C 
ATOM     23  C   UNL     1      -3.535  -2.862  25.072  0.00  0.00    +0.010 C 
ATOM     24  C   UNL     1      -3.522  -2.856  24.247  0.00  0.00    +0.010 C 
ENDBRANCH  20  22
BRANCH   3   2
ATOM      1  C   UNL     1      -0.063   0.006  24.215  0.00  0.00    +0.000 C 
ATOM      2  C   UNL     1      -0.758   0.372  24.469  0.00  0.00    +0.002 C 
ENDBRANCH   3   2
BRANCH   8   9
ATOM      9  C   UNL     1      -2.173   1.177  24.196  0.00  0.00    +0.087 C 
BRANCH   9  10
ATOM     10  C   UNL     1      -2.848   1.556  23.912  0.00  0.00    +0.242 C 
ATOM     11  O   UNL     1      -3.071   1.467  23.122  0.00  0.00    -0.273 OA
ATOM     12  N   UNL     1      -3.301   2.024  24.418  0.00  0.00    -0.201 NA
BRANCH  12  13
ATOM     13  C   UNL     1      -3.977   2.403  24.134  0.00  0.00    +0.141 C 
BRANCH  13  14
ATOM     14  C   UNL     1      -4.482   2.792  24.658  0.00  0.00    -0.001 A 
ATOM     15  C   UNL     1      -5.188   2.434  24.893  0.00  0.00    -0.003 A 
ATOM     16  C   UNL     1      -5.692   2.823  25.418  0.00  0.00    -0.000 A 
ATOM     17  C   UNL     1      -5.492   3.569  25.706  0.00  0.00    -0.000 A 
ATOM     18  C   UNL     1      -4.787   3.927  25.472  0.00  0.00    -0.000 A 
ATOM     19  C   UNL     1      -4.282   3.538  24.947  0.00  0.00    -0.003 A 
ENDBRANCH  13  14
ENDBRANCH  12  13
ENDBRANCH   9  10
ENDBRANCH   8   9
TORSDOF 6
ENDMDL
MODEL 7
REMARK VINA RESULT:      -9.9      1.363      5.157
REMARK  Name = 
REMARK  6 active torsions:
REMARK  status: ('A' for Active; 'I' for Inactive)
REMARK    1  A    between atoms: C_2  and  C_3
REMARK    2  A    between atoms: C_8  and  C_9
REMARK    3  A    between atoms: C_9  and  C_10
REMARK    4  A    between atoms: N_12  and  C_13
REMARK    5  A    between atoms: C_13  and  C_14
REMARK    6  A    between atoms: C_20  and  C_22
REMARK                            x       y       z     vdW  Elec       q    Type
REMARK                         _______ _______ _______ _____ _____    ______ ____
ROOT
ATOM      3  C   UNL     1      -4.163   0.621  24.648  0.00  0.00    +0.020 C 
ATOM      4  C   UNL     1      -4.340  -0.151  24.416  0.00  0.00    +0.093 C 
ATOM      5  N   UNL     1      -3.796  -0.757  24.547  0.00  0.00    -0.280 N 
ATOM      6  C   UNL     1      -3.074  -0.591  24.909  0.00  0.00    +0.093 C 
ATOM      7  C   UNL     1      -2.896   0.181  25.142  0.00  0.00    +0.022 C 
ATOM      8  C   UNL     1      -3.440   0.786  25.011  0.00  0.00    +0.012 C 
ATOM     20  C   UNL     1      -3.973  -1.527  24.315  0.00  0.00    +0.225 C 
ATOM     21  O   UNL     1      -4.696  -1.694  23.952  0.00  0.00    -0.275 OA
ENDROOT
BRANCH  20  22
ATOM     22  C   UNL     1      -3.428  -2.134  24.445  0.00  0.00    +0.077 C 
ATOM     23  C   UNL     1      -3.209  -2.825  24.840  0.00  0.00    +0.010 C 
ATOM     24  C   UNL     1      -2.705  -2.492  24.278  0.00  0.00    +0.010 C 
ENDBRANCH  20  22
BRANCH   3   2
ATOM      1  C   UNL     1      -5.480   1.154  24.799  0.00  0.00    +0.000 C 
ATOM      2  C   UNL     1      -4.707   1.226  24.518  0.00  0.00    +0.002 C 
ENDBRANCH   3   2
BRANCH   8   9
ATOM      9  C   UNL     1      -3.263   1.558  25.244  0.00  0.00    +0.087 C 
BRANCH   9  10
ATOM     10  C   UNL     1      -2.484   1.829  25.213  0.00  0.00    +0.242 C 
ATOM     11  O   UNL     1      -1.860   1.290  25.192  0.00  0.00    -0.273 OA
ATOM     12  N   UNL     1      -2.331   2.639  25.202  0.00  0.00    -0.201 NA
BRANCH  12  13
ATOM     13  C   UNL     1      -1.551   2.911  25.170  0.00  0.00    +0.141 C 
BRANCH  13  14
ATOM     14  C   UNL     1      -1.399   3.719  25.104  0.00  0.00    -0.001 A 
ATOM     15  C   UNL     1      -1.950   4.266  25.383  0.00  0.00    -0.003 A 
ATOM     16  C   UNL     1      -1.798   5.074  25.317  0.00  0.00    -0.000 A 
ATOM     17  C   UNL     1      -1.096   5.335  24.972  0.00  0.00    -0.000 A 
ATOM     18  C   UNL     1      -0.545   4.788  24.693  0.00  0.00    -0.000 A 
ATOM     19  C   UNL     1      -0.697   3.979  24.759  0.00  0.00    -0.003 A 
ENDBRANCH  13  14
ENDBRANCH  12  13
ENDBRANCH   9  10
ENDBRANCH   8   9
TORSDOF 6
ENDMDL
MODEL 8
REMARK VINA RESULT:      -9.9      1.685      2.434
REMARK  Name = 
REMARK  6 active torsions:
REMARK  status: ('A' for Active; 'I' for Inactive)
REMARK    1  A    between atoms: C_2  and  C_3
REMARK    2  A    between atoms: C_8  and  C_9
REMARK    3  A    between atoms: C_9  and  C_10
REMARK    4  A    between atoms: N_12  and  C_13
REMARK    5  A    between atoms: C_13  and  C_14
REMARK    6  A    between atoms: C_20  and  C_22
REMARK                            x       y       z     vdW  Elec       q    Type
REMARK                         _______ _______ _______ _____ _____    ______ ____
ROOT
ATOM      3  C   UNL     1      -2.569   2.028  23.555  0.00  0.00    +0.020 C 
ATOM      4  C   UNL     1      -3.140   2.621  23.605  0.00  0.00    +0.093 C 
ATOM      5  N   UNL     1      -3.525   2.766  24.320  0.00  0.00    -0.280 N 
ATOM      6  C   UNL     1      -3.338   2.318  24.986  0.00  0.00    +0.093 C 
ATOM      7  C   UNL     1      -2.767   1.724  24.938  0.00  0.00    +0.022 C 
ATOM      8  C   UNL     1      -2.383   1.579  24.223  0.00  0.00    +0.012 C 
ATOM     20  C   UNL     1      -4.096   3.359  24.368  0.00  0.00    +0.225 C 
ATOM     21  O   UNL     1      -4.283   3.808  23.702  0.00  0.00    -0.275 OA
ENDROOT
BRANCH  20  22
ATOM     22  C   UNL     1      -4.481   3.504  25.085  0.00  0.00    +0.077 C 
ATOM     23  C   UNL     1      -5.137   3.407  25.575  0.00  0.00    +0.010 C 
ATOM     24  C   UNL     1      -4.491   3.851  25.832  0.00  0.00    +0.010 C 
ENDBRANCH  20  22
BRANCH   3   2
ATOM      1  C   UNL     1      -2.537   2.110  22.129  0.00  0.00    +0.000 C 
ATOM      2  C   UNL     1      -2.185   1.884  22.841  0.00  0.00    +0.002 C 
ENDBRANCH   3   2
BRANCH   8   9
ATOM      9  C   UNL     1      -1.811   0.986  24.174  0.00  0.00    +0.087 C 
BRANCH   9  10
ATOM     10  C   UNL     1      -1.803   0.375  24.729  0.00  0.00    +0.242 C 
ATOM     11  O   UNL     1      -1.470   0.498  25.474  0.00  0.00    -0.273 OA
ATOM     12  N   UNL     1      -2.128  -0.358  24.538  0.00  0.00    -0.201 NA
BRANCH  12  13
ATOM     13  C   UNL     1      -2.120  -0.970  25.093  0.00  0.00    +0.141 C 
BRANCH  13  14
ATOM     14  C   UNL     1      -2.511  -1.678  24.931  0.00  0.00    -0.001 A 
ATOM     15  C   UNL     1      -2.130  -2.269  24.499  0.00  0.00    -0.003 A 
ATOM     16  C   UNL     1      -2.521  -2.977  24.337  0.00  0.00    -0.000 A 
ATOM     17  C   UNL     1      -3.291  -3.094  24.606  0.00  0.00    -0.000 A 
ATOM     18  C   UNL     1      -3.672  -2.504  25.037  0.00  0.00    -0.000 A 
ATOM     19  C   UNL     1      -3.281  -1.795  25.200  0.00  0.00    -0.003 A 
ENDBRANCH  13  14
ENDBRANCH  12  13
ENDBRANCH   9  10
ENDBRANCH   8   9
TORSDOF 6
ENDMDL
