MODEL 1
REMARK VINA RESULT:     -11.7      0.000      0.000
REMARK  Name = 
REMARK  4 active torsions:
REMARK  status: ('A' for Active; 'I' for Inactive)
REMARK    1  A    between atoms: N_2  and  C_4
REMARK    2  A    between atoms: C_7  and  C_10
REMARK    3  A    between atoms: C_13  and  C_15
REMARK    4  A    between atoms: N_19  and  C_20
REMARK                            x       y       z     vdW  Elec       q    Type
REMARK                         _______ _______ _______ _____ _____    ______ ____
ROOT
ATOM     10  C   UNL     1      -3.786   0.777  24.322  0.00  0.00    +0.205 A 
ATOM     11  N   UNL     1      -3.703   1.263  23.661  0.00  0.00    -0.056 NA
ATOM     12  O   UNL     1      -4.020   2.001  23.845  0.00  0.00    -0.336 OA
ATOM     13  C   UNL     1      -4.301   1.971  24.622  0.00  0.00    +0.251 A 
ATOM     14  N   UNL     1      -4.155   1.215  24.915  0.00  0.00    -0.190 NA
ENDROOT
BRANCH  10   7
ATOM      4  C   UNL     1      -3.055  -1.581  24.495  0.00  0.00    +0.132 A 
ATOM      5  C   UNL     1      -3.840  -1.405  24.318  0.00  0.00    +0.034 A 
ATOM      6  C   UNL     1      -4.084  -0.619  24.260  0.00  0.00    +0.008 A 
ATOM      7  C   UNL     1      -3.542  -0.009  24.380  0.00  0.00    +0.058 A 
ATOM      8  C   UNL     1      -2.755  -0.186  24.558  0.00  0.00    +0.103 A 
ATOM      9  N   UNL     1      -2.512  -0.972  24.616  0.00  0.00    -0.229 NA
BRANCH   4   2
ATOM      1  C   UNL     1      -2.011  -2.558  24.481  0.00  0.00    +0.114 C 
ATOM      2  N   UNL     1      -2.811  -2.367  24.553  0.00  0.00    -0.290 N 
ATOM      3  C   UNL     1      -3.367  -2.963  24.683  0.00  0.00    +0.114 C 
ENDBRANCH   4   2
ENDBRANCH  10   7
BRANCH  13  15
ATOM     15  C   UNL     1      -4.662   2.590  25.030  0.00  0.00    +0.138 C 
ATOM     16  C   UNL     1      -5.468   2.661  25.189  0.00  0.00    +0.027 C 
ATOM     17  C   UNL     1      -5.583   3.363  25.609  0.00  0.00    +0.019 C 
ATOM     18  C   UNL     1      -4.849   3.725  25.708  0.00  0.00    +0.072 C 
ATOM     19  N   UNL     1      -4.279   3.248  25.350  0.00  0.00    -0.268 NA
BRANCH  19  20
ATOM     20  C   UNL     1      -3.469   3.400  25.318  0.00  0.00    +0.061 C 
ATOM     21  C   UNL     1      -3.157   3.831  24.686  0.00  0.00    +0.038 C 
ATOM     22  C   UNL     1      -2.346   3.983  24.653  0.00  0.00    +0.095 C 
ATOM     23  N   UNL     1      -1.849   3.706  25.251  0.00  0.00    -0.279 N 
ATOM     24  C   UNL     1      -2.162   3.276  25.881  0.00  0.00    +0.095 C 
ATOM     25  C   UNL     1      -2.972   3.123  25.914  0.00  0.00    +0.038 C 
ATOM     26  C   UNL     1      -1.039   3.859  25.217  0.00  0.00    +0.226 C 
ATOM     27  C   UNL     1      -0.726   4.289  24.586  0.00  0.00    +0.095 C 
ATOM     28  O   UNL     1      -0.541   3.581  25.814  0.00  0.00    -0.275 OA
ENDBRANCH  19  20
ENDBRANCH  13  15
TORSDOF 4
ENDMDL
MODEL 2
REMARK VINA RESULT:     -10.8      1.450      2.887
REMARK  Name = 
REMARK  4 active torsions:
REMARK  status: ('A' for Active; 'I' for Inactive)
REMARK    1  A    between atoms: N_2  and  C_4
REMARK    2  A    between atoms: C_7  and  C_10
REMARK    3  A    between atoms: C_13  and  C_15
REMARK    4  A    between atoms: N_19  and  C_20
REMARK                            x       y       z     vdW  Elec       q    Type
REMARK                         _______ _______ _______ _____ _____    ______ ____
ROOT
ATOM     10  C   UNL     1      -1.542   1.589  24.284  0.00  0.00    +0.205 A 
ATOM     11  N   UNL     1      -1.858   1.898  23.588  0.00  0.00    -0.056 NA
ATOM     12  O   UNL     1      -1.870   2.720  23.655  0.00  0.00    -0.336 OA
ATOM     13  C   UNL     1      -1.561   2.919  24.395  0.00  0.00    +0.251 A 
ATOM     14  N   UNL     1      -1.359   2.220  24.783  0.00  0.00    -0.190 NA
ENDROOT
BRANCH  10   7
ATOM      4  C   UNL     1      -1.205  -0.810  24.789  0.00  0.00    +0.132 A 
ATOM      5  C   UNL     1      -1.934  -0.456  24.939  0.00  0.00    +0.034 A 
ATOM      6  C   UNL     1      -2.047   0.344  24.771  0.00  0.00    +0.008 A 
ATOM      7  C   UNL     1      -1.430   0.789  24.453  0.00  0.00    +0.058 A 
ATOM      8  C   UNL     1      -0.700   0.434  24.302  0.00  0.00    +0.103 A 
ATOM      9  N   UNL     1      -0.587  -0.365  24.471  0.00  0.00    -0.229 NA
BRANCH   4   2
ATOM      1  C   UNL     1      -1.625  -2.172  24.670  0.00  0.00    +0.114 C 
ATOM      2  N   UNL     1      -1.092  -1.610  24.958  0.00  0.00    -0.290 N 
ATOM      3  C   UNL     1      -0.448  -1.849  25.414  0.00  0.00    +0.114 C 
ENDBRANCH   4   2
ENDBRANCH  10   7
BRANCH  13  15
ATOM     15  C   UNL     1      -1.472   3.683  24.692  0.00  0.00    +0.138 C 
ATOM     16  C   UNL     1      -0.784   4.138  24.663  0.00  0.00    +0.027 C 
ATOM     17  C   UNL     1      -0.943   4.863  25.024  0.00  0.00    +0.019 C 
ATOM     18  C   UNL     1      -1.728   4.855  25.277  0.00  0.00    +0.072 C 
ATOM     19  N   UNL     1      -2.055   4.127  25.072  0.00  0.00    -0.268 NA
BRANCH  19  20
ATOM     20  C   UNL     1      -2.829   3.883  25.220  0.00  0.00    +0.061 C 
ATOM     21  C   UNL     1      -3.392   3.913  24.617  0.00  0.00    +0.038 C 
ATOM     22  C   UNL     1      -4.167   3.669  24.764  0.00  0.00    +0.095 C 
ATOM     23  N   UNL     1      -4.378   3.395  25.513  0.00  0.00    -0.279 N 
ATOM     24  C   UNL     1      -3.816   3.366  26.115  0.00  0.00    +0.095 C 
ATOM     25  C   UNL     1      -3.041   3.610  25.968  0.00  0.00    +0.038 C 
ATOM     26  C   UNL     1      -5.153   3.152  25.660  0.00  0.00    +0.226 C 
ATOM     27  C   UNL     1      -5.716   3.181  25.057  0.00  0.00    +0.095 C 
ATOM     28  O   UNL     1      -5.365   2.878  26.409  0.00  0.00    -0.275 OA
ENDBRANCH  19  20
ENDBRANCH  13  15
TORSDOF 4
ENDMDL
MODEL 3
REMARK VINA RESULT:     -10.4      1.541      2.941
REMARK  Name = 
REMARK  4 active torsions:
REMARK  status: ('A' for Active; 'I' for Inactive)
REMARK    1  A    between atoms: N_2  and  C_4
REMARK    2  A    between atoms: C_7  and  C_10
REMARK    3  A    between atoms: C_13  and  C_15
REMARK    4  A    between atoms: N_19  and  C_20
REMARK                            x       y       z     vdW  Elec       q    Type
REMARK                         _______ _______ _______ _____ _____    ______ ____
ROOT
ATOM     10  C   UNL     1      -1.674   0.045  25.116  0.00  0.00    +0.205 A 
ATOM     11  N   UNL     1      -1.427   0.262  25.872  0.00  0.00    -0.056 NA
ATOM     12  O   UNL     1      -0.945   0.927  25.804  0.00  0.00    -0.336 OA
ATOM     13  C   UNL     1      -0.892   1.121  25.003  0.00  0.00    +0.251 A 
ATOM     14  N   UNL     1      -1.343   0.577  24.579  0.00  0.00    -0.190 NA
ENDROOT
BRANCH  10   7
ATOM      4  C   UNL     1      -3.146  -1.863  24.556  0.00  0.00    +0.132 A 
ATOM      5  C   UNL     1      -3.473  -1.158  24.831  0.00  0.00    +0.034 A 
ATOM      6  C   UNL     1      -2.982  -0.522  25.018  0.00  0.00    +0.008 A 
ATOM      7  C   UNL     1      -2.165  -0.591  24.929  0.00  0.00    +0.058 A 
ATOM      8  C   UNL     1      -1.838  -1.297  24.653  0.00  0.00    +0.103 A 
ATOM      9  N   UNL     1      -2.329  -1.933  24.466  0.00  0.00    -0.229 NA
BRANCH   4   2
ATOM      1  C   UNL     1      -4.274  -2.392  23.854  0.00  0.00    +0.114 C 
ATOM      2  N   UNL     1      -3.637  -2.499  24.369  0.00  0.00    -0.290 N 
ATOM      3  C   UNL     1      -3.493  -3.243  24.696  0.00  0.00    +0.114 C 
ENDBRANCH   4   2
ENDBRANCH  10   7
BRANCH  13  15
ATOM     15  C   UNL     1      -0.464   1.751  24.684  0.00  0.00    +0.138 C 
ATOM     16  C   UNL     1       0.309   1.718  24.402  0.00  0.00    +0.027 C 
ATOM     17  C   UNL     1       0.516   2.471  24.136  0.00  0.00    +0.019 C 
ATOM     18  C   UNL     1      -0.131   2.969  24.254  0.00  0.00    +0.072 C 
ATOM     19  N   UNL     1      -0.737   2.525  24.593  0.00  0.00    -0.268 NA
BRANCH  19  20
ATOM     20  C   UNL     1      -1.484   2.803  24.804  0.00  0.00    +0.061 C 
ATOM     21  C   UNL     1      -2.099   2.790  24.254  0.00  0.00    +0.038 C 
ATOM     22  C   UNL     1      -2.847   3.068  24.464  0.00  0.00    +0.095 C 
ATOM     23  N   UNL     1      -2.980   3.360  25.225  0.00  0.00    -0.279 N 
ATOM     24  C   UNL     1      -2.365   3.373  25.775  0.00  0.00    +0.095 C 
ATOM     25  C   UNL     1      -1.617   3.095  25.564  0.00  0.00    +0.038 C 
ATOM     26  C   UNL     1      -3.727   3.638  25.435  0.00  0.00    +0.226 C 
ATOM     27  C   UNL     1      -4.343   3.624  24.885  0.00  0.00    +0.095 C 
ATOM     28  O   UNL     1      -3.861   3.929  26.195  0.00  0.00    -0.275 OA
ENDBRANCH  19  20
ENDBRANCH  13  15
TORSDOF 4
ENDMDL
MODEL 4
REMARK VINA RESULT:     -10.4      2.686      4.415
REMARK  Name = 
REMARK  4 active torsions:
REMARK  status: ('A' for Active; 'I' for Inactive)
REMARK    1  A    between atoms: N_2  and  C_4
REMARK    2  A    between atoms: C_7  and  C_10
REMARK    3  A    between atoms: C_13  and  C_15
REMARK    4  A    between atoms: N_19  and  C_20
REMARK                            x       y       z     vdW  Elec       q    Type
REMARK                         _______ _______ _______ _____ _____    ______ ____
ROOT
ATOM     10  C   UNL     1      -1.027   0.757  24.497  0.00  0.00    +0.205 A 
ATOM     11  N   UNL     1      -1.085   0.715  25.319  0.00  0.00    -0.056 NA
ATOM     12  O   UNL     1      -1.851   0.930  25.533  0.00  0.00    -0.336 OA
ATOM     13  C   UNL     1      -2.269   1.105  24.842  0.00  0.00    +0.251 A 
ATOM     14  N   UNL     1      -1.759   0.998  24.203  0.00  0.00    -0.190 NA
ENDROOT
BRANCH  10   7
ATOM      4  C   UNL     1       0.987   0.250  23.152  0.00  0.00    +0.132 A 
ATOM      5  C   UNL     1       0.456  -0.352  23.340  0.00  0.00    +0.034 A 
ATOM      6  C   UNL     1      -0.216  -0.182  23.789  0.00  0.00    +0.008 A 
ATOM      7  C   UNL     1      -0.355   0.588  24.049  0.00  0.00    +0.058 A 
ATOM      8  C   UNL     1       0.177   1.190  23.860  0.00  0.00    +0.103 A 
ATOM      9  N   UNL     1       0.849   1.021  23.411  0.00  0.00    -0.229 NA
BRANCH   4   2
ATOM      1  C   UNL     1       1.589  -0.348  22.001  0.00  0.00    +0.114 C 
ATOM      2  N   UNL     1       1.659   0.080  22.703  0.00  0.00    -0.290 N 
ATOM      3  C   UNL     1       2.400   0.339  22.956  0.00  0.00    +0.114 C 
ENDBRANCH   4   2
ENDBRANCH  10   7
BRANCH  13  15
ATOM     15  C   UNL     1      -3.057   1.344  24.800  0.00  0.00    +0.138 C 
ATOM     16  C   UNL     1      -3.327   2.123  24.782  0.00  0.00    +0.027 C 
ATOM     17  C   UNL     1      -4.151   2.105  24.740  0.00  0.00    +0.019 C 
ATOM     18  C   UNL     1      -4.389   1.316  24.731  0.00  0.00    +0.072 C 
ATOM     19  N   UNL     1      -3.714   0.845  24.769  0.00  0.00    -0.268 NA
BRANCH  19  20
ATOM     20  C   UNL     1      -3.696   0.020  24.774  0.00  0.00    +0.061 C 
ATOM     21  C   UNL     1      -3.760  -0.397  24.064  0.00  0.00    +0.038 C 
ATOM     22  C   UNL     1      -3.741  -1.223  24.069  0.00  0.00    +0.095 C 
ATOM     23  N   UNL     1      -3.660  -1.630  24.782  0.00  0.00    -0.279 N 
ATOM     24  C   UNL     1      -3.596  -1.212  25.490  0.00  0.00    +0.095 C 
ATOM     25  C   UNL     1      -3.614  -0.387  25.486  0.00  0.00    +0.038 C 
ATOM     26  C   UNL     1      -3.642  -2.454  24.786  0.00  0.00    +0.226 C 
ATOM     27  C   UNL     1      -3.705  -2.872  24.077  0.00  0.00    +0.095 C 
ATOM     28  O   UNL     1      -3.560  -2.862  25.498  0.00  0.00    -0.275 OA
ENDBRANCH  19  20
ENDBRANCH  13  15
TORSDOF 4
ENDMDL
MODEL 5
REMARK VINA RESULT:     -10.4      1.572      4.154
REMARK  Name = 
REMARK  4 active torsions:
REMARK  status: ('A' for Active; 'I' for Inactive)
REMARK    1  A    between atoms: N_2  and  C_4
REMARK    2  A    between atoms: C_7  and  C_10
REMARK    3  A    between atoms: C_13  and  C_15
REMARK    4  A    between atoms: N_19  and  C_20
REMARK                            x       y       z     vdW  Elec       q    Type
REMARK                         _______ _______ _______ _____ _____    ______ ____
ROOT
ATOM     10  C   UNL     1      -3.701   0.600  24.460  0.00  0.00    +0.205 A 
ATOM     11  N   UNL     1      -3.556   0.450  23.662  0.00  0.00    -0.056 NA
ATOM     12  O   UNL     1      -3.029  -0.182  23.612  0.00  0.00    -0.336 OA
ATOM     13  C   UNL     1      -2.847  -0.423  24.381  0.00  0.00    +0.251 A 
ATOM     14  N   UNL     1      -3.262   0.060  24.904  0.00  0.00    -0.190 NA
ENDROOT
BRANCH  10   7
ATOM      4  C   UNL     1      -5.188   2.359  25.364  0.00  0.00    +0.132 A 
ATOM      5  C   UNL     1      -5.421   1.569  25.391  0.00  0.00    +0.034 A 
ATOM      6  C   UNL     1      -4.925   0.983  25.090  0.00  0.00    +0.008 A 
ATOM      7  C   UNL     1      -4.197   1.186  24.762  0.00  0.00    +0.058 A 
ATOM      8  C   UNL     1      -3.963   1.978  24.735  0.00  0.00    +0.103 A 
ATOM      9  N   UNL     1      -4.459   2.565  25.037  0.00  0.00    -0.229 NA
BRANCH   4   2
ATOM      1  C   UNL     1      -5.533   3.740  25.498  0.00  0.00    +0.114 C 
ATOM      2  N   UNL     1      -5.684   2.946  25.666  0.00  0.00    -0.290 N 
ATOM      3  C   UNL     1      -6.330   2.740  26.134  0.00  0.00    +0.114 C 
ENDBRANCH   4   2
ENDBRANCH  10   7
BRANCH  13  15
ATOM     15  C   UNL     1      -2.339  -1.039  24.588  0.00  0.00    +0.138 C 
ATOM     16  C   UNL     1      -2.537  -1.838  24.630  0.00  0.00    +0.027 C 
ATOM     17  C   UNL     1      -1.863  -2.256  24.857  0.00  0.00    +0.019 C 
ATOM     18  C   UNL     1      -1.248  -1.715  24.955  0.00  0.00    +0.072 C 
ATOM     19  N   UNL     1      -1.541  -0.963  24.789  0.00  0.00    -0.268 NA
BRANCH  19  20
ATOM     20  C   UNL     1      -1.115  -0.257  24.818  0.00  0.00    +0.061 C 
ATOM     21  C   UNL     1      -1.087   0.178  25.519  0.00  0.00    +0.038 C 
ATOM     22  C   UNL     1      -0.660   0.884  25.549  0.00  0.00    +0.095 C 
ATOM     23  N   UNL     1      -0.262   1.154  24.878  0.00  0.00    -0.279 N 
ATOM     24  C   UNL     1      -0.291   0.719  24.179  0.00  0.00    +0.095 C 
ATOM     25  C   UNL     1      -0.717   0.013  24.149  0.00  0.00    +0.038 C 
ATOM     26  C   UNL     1       0.164   1.860  24.909  0.00  0.00    +0.226 C 
ATOM     27  C   UNL     1       0.192   2.295  25.610  0.00  0.00    +0.095 C 
ATOM     28  O   UNL     1       0.562   2.131  24.239  0.00  0.00    -0.275 OA
ENDBRANCH  19  20
ENDBRANCH  13  15
TORSDOF 4
ENDMDL
