MODEL 1
REMARK VINA RESULT:     -10.5      0.000      0.000
REMARK  Name = 
REMARK  5 active torsions:
REMARK  status: ('A' for Active; 'I' for Inactive)
REMARK    1  A    between atoms: C_4  and  C_5
REMARK    2  A    between atoms: C_5  and  N_6
REMARK    3  A    between atoms: N_6  and  C_7
REMARK    4  A    between atoms: C_7  and  C_8
REMARK    5  A    between atoms: C_15  and  C_16
REMARK                            x       y       z     vdW  Elec       q    Type
REMARK                         _______ _______ _______ _____ _____    ______ ____
ROOT
ATOM      7  C   UNL     1      -3.505   1.596  24.882  0.00  0.00    +0.105 C 
ENDROOT
BRANCH   7   8
ATOM      8  C   UNL     1      -2.872   2.118  24.967  0.00  0.00    +0.075 C 
ATOM      9  C   UNL     1      -2.119   2.285  25.074  0.00  0.00    +0.018 C 
ATOM     10  C   UNL     1      -1.802   3.029  25.111  0.00  0.00    +0.016 C 
ATOM     11  C   UNL     1      -0.915   3.007  25.239  0.00  0.00    +0.018 C 
ATOM     12  C   UNL     1      -1.510   2.752  25.156  0.00  0.00    +0.072 C 
ATOM     13  N   UNL     1      -2.541   2.873  25.006  0.00  0.00    -0.272 NA
ATOM     14  C   UNL     1      -2.910   3.705  24.943  0.00  0.00    +0.085 C 
ATOM     15  C   UNL     1      -2.164   3.826  25.049  0.00  0.00    +0.081 C 
BRANCH  15  16
ATOM     16  C   UNL     1      -1.778   4.554  25.096  0.00  0.00    -0.078 C 
ATOM     17  C   UNL     1      -1.393   5.281  25.143  0.00  0.00    -0.014 C 
ENDBRANCH  15  16
ENDBRANCH   7   8
BRANCH   7   6
ATOM      6  N   UNL     1      -3.374   0.782  24.909  0.00  0.00    -0.212 NA
BRANCH   6   5
ATOM      5  C   UNL     1      -4.015   0.262  24.936  0.00  0.00    +0.115 C 
BRANCH   5   4
ATOM      1 CL   UNL     1      -4.250  -2.250  23.595  0.00  0.00    -0.082 Cl
ATOM      2  C   UNL     1      -4.004  -1.809  24.246  0.00  0.00    +0.057 A 
ATOM      3  C   UNL     1      -4.133  -0.994  24.265  0.00  0.00    +0.009 A 
ATOM      4  C   UNL     1      -3.887  -0.552  24.917  0.00  0.00    -0.004 A 
ATOM     18  C   UNL     1      -3.512  -0.925  25.550  0.00  0.00    -0.003 A 
ATOM     19  C   UNL     1      -3.384  -1.740  25.532  0.00  0.00    +0.001 A 
ATOM     20  C   UNL     1      -3.630  -2.181  24.880  0.00  0.00    +0.011 A 
ENDBRANCH   5   4
ENDBRANCH   6   5
ENDBRANCH   7   6
TORSDOF 5
ENDMDL
MODEL 2
REMARK VINA RESULT:     -10.4      1.823      5.012
REMARK  Name = 
REMARK  5 active torsions:
REMARK  status: ('A' for Active; 'I' for Inactive)
REMARK    1  A    between atoms: C_4  and  C_5
REMARK    2  A    between atoms: C_5  and  N_6
REMARK    3  A    between atoms: N_6  and  C_7
REMARK    4  A    between atoms: C_7  and  C_8
REMARK    5  A    between atoms: C_15  and  C_16
REMARK                            x       y       z     vdW  Elec       q    Type
REMARK                         _______ _______ _______ _____ _____    ______ ____
ROOT
ATOM      7  C   UNL     1      -3.991   1.292  24.585  0.00  0.00    +0.105 C 
ENDROOT
BRANCH   7   8
ATOM      8  C   UNL     1      -3.883   0.501  24.789  0.00  0.00    +0.075 C 
ATOM      9  C   UNL     1      -3.705  -0.069  25.288  0.00  0.00    +0.018 C 
ATOM     10  C   UNL     1      -3.702  -0.861  25.118  0.00  0.00    +0.016 C 
ATOM     11  C   UNL     1      -3.470  -1.355  25.829  0.00  0.00    +0.018 C 
ATOM     12  C   UNL     1      -3.597  -0.803  25.504  0.00  0.00    +0.072 C 
ATOM     13  N   UNL     1      -3.877  -0.308  24.623  0.00  0.00    -0.272 NA
ATOM     14  C   UNL     1      -4.062  -0.776  23.862  0.00  0.00    +0.085 C 
ATOM     15  C   UNL     1      -3.881  -1.305  24.382  0.00  0.00    +0.081 C 
BRANCH  15  16
ATOM     16  C   UNL     1      -3.858  -2.123  24.275  0.00  0.00    -0.078 C 
ATOM     17  C   UNL     1      -3.835  -2.940  24.167  0.00  0.00    -0.014 C 
ENDBRANCH  15  16
ENDBRANCH   7   8
BRANCH   7   6
ATOM      6  N   UNL     1      -3.561   1.881  24.971  0.00  0.00    -0.212 NA
BRANCH   6   5
ATOM      5  C   UNL     1      -3.563   2.652  24.677  0.00  0.00    +0.115 C 
BRANCH   5   4
ATOM      1 CL   UNL     1      -1.167   4.192  24.910  0.00  0.00    -0.082 Cl
ATOM      2  C   UNL     1      -1.926   4.009  25.174  0.00  0.00    +0.057 A 
ATOM      3  C   UNL     1      -2.365   3.422  24.794  0.00  0.00    +0.009 A 
ATOM      4  C   UNL     1      -3.125   3.239  25.058  0.00  0.00    -0.004 A 
ATOM     18  C   UNL     1      -3.446   3.641  25.701  0.00  0.00    -0.003 A 
ATOM     19  C   UNL     1      -3.008   4.228  26.082  0.00  0.00    +0.001 A 
ATOM     20  C   UNL     1      -2.248   4.411  25.818  0.00  0.00    +0.011 A 
ENDBRANCH   5   4
ENDBRANCH   6   5
ENDBRANCH   7   6
TORSDOF 5
ENDMDL
MODEL 3
REMARK VINA RESULT:      -9.7      2.186      2.718
REMARK  Name = 
REMARK  5 active torsions:
REMARK  status: ('A' for Active; 'I' for Inactive)
REMARK    1  A    between atoms: C_4  and  C_5
REMARK    2  A    between atoms: C_5  and  N_6
REMARK    3  A    between atoms: N_6  and  C_7
REMARK    4  A    between atoms: C_7  and  C_8
REMARK    5  A    between atoms: C_15  and  C_16
REMARK                            x       y       z     vdW  Elec       q    Type
REMARK                         _______ _______ _______ _____ _____    ______ ____
ROOT
ATOM      7  C   UNL     1      -3.989   0.789  24.267  0.00  0.00    +0.105 C 
ENDROOT
BRANCH   7   8
ATOM      8  C   UNL     1      -4.498   1.297  24.671  0.00  0.00    +0.075 C 
ATOM      9  C   UNL     1      -5.103   1.447  25.137  0.00  0.00    +0.018 C 
ATOM     10  C   UNL     1      -5.359   2.183  25.355  0.00  0.00    +0.016 C 
ATOM     11  C   UNL     1      -6.072   2.142  25.897  0.00  0.00    +0.018 C 
ATOM     12  C   UNL     1      -5.593   1.900  25.524  0.00  0.00    +0.072 C 
ATOM     13  N   UNL     1      -4.765   2.044  24.898  0.00  0.00    -0.272 NA
ATOM     14  C   UNL     1      -4.468   2.884  24.700  0.00  0.00    +0.085 C 
ATOM     15  C   UNL     1      -5.068   2.988  25.160  0.00  0.00    +0.081 C 
BRANCH  15  16
ATOM     16  C   UNL     1      -5.379   3.707  25.420  0.00  0.00    -0.078 C 
ATOM     17  C   UNL     1      -5.689   4.426  25.679  0.00  0.00    -0.014 C 
ENDBRANCH  15  16
ENDBRANCH   7   8
BRANCH   7   6
ATOM      6  N   UNL     1      -4.041  -0.026  24.383  0.00  0.00    -0.212 NA
BRANCH   6   5
ATOM      5  C   UNL     1      -3.664  -0.541  23.860  0.00  0.00    +0.115 C 
BRANCH   5   4
ATOM      1 CL   UNL     1      -2.039  -2.639  24.921  0.00  0.00    -0.082 Cl
ATOM      2  C   UNL     1      -2.751  -2.383  24.594  0.00  0.00    +0.057 A 
ATOM      3  C   UNL     1      -2.851  -1.590  24.390  0.00  0.00    +0.009 A 
ATOM      4  C   UNL     1      -3.564  -1.335  24.063  0.00  0.00    -0.004 A 
ATOM     18  C   UNL     1      -4.177  -1.872  23.940  0.00  0.00    -0.003 A 
ATOM     19  C   UNL     1      -4.078  -2.665  24.143  0.00  0.00    +0.001 A 
ATOM     20  C   UNL     1      -3.365  -2.921  24.470  0.00  0.00    +0.011 A 
ENDBRANCH   5   4
ENDBRANCH   6   5
ENDBRANCH   7   6
TORSDOF 5
ENDMDL
