REMARK  Name = 
REMARK  3 active torsions:
REMARK  status: ('A' for Active; 'I' for Inactive)
REMARK    1  A    between atoms: C_4  and  C_17
REMARK    2  A    between atoms: C_6  and  C_7
REMARK    3  A    between atoms: C_14  and  C_15
REMARK                            x       y       z     vdW  Elec       q    Type
REMARK                         _______ _______ _______ _____ _____    ______ ____
ROOT
ATOM      1  C   UNL     1       1.582   0.451   0.000  0.00  0.00    +0.153 C 
ATOM      2  N   UNL     1       2.270  -0.004   0.000  0.00  0.00    -0.253 N 
ATOM      3  N   UNL     1       3.043   0.285   0.000  0.00  0.00    -0.174 NA
ATOM      4  C   UNL     1       3.557  -0.360   0.000  0.00  0.00    +0.079 A 
ATOM      5  C   UNL     1       3.102  -1.048   0.000  0.00  0.00    +0.031 A 
ATOM      6  C   UNL     1       2.307  -0.828   0.000  0.00  0.00    +0.058 A 
ENDROOT
BRANCH   6   7
ATOM      7  C   UNL     1       1.661  -1.343   0.000  0.00  0.00    +0.056 C 
ATOM      8  C   UNL     1       1.814  -2.106   0.000  0.00  0.00    +0.078 C 
ATOM      9  N   UNL     1       1.065  -1.759   0.000  0.00  0.00    -0.272 NA
ATOM     10  C   UNL     1       1.205  -0.720   0.000  0.00  0.00    +0.072 C 
ATOM     11  C   UNL     1       0.961  -0.114   0.000  0.00  0.00    +0.018 C 
ATOM     12  C   UNL     1       0.923  -1.010   0.000  0.00  0.00    +0.010 C 
ATOM     13  C   UNL     1       0.119  -1.362   0.000  0.00  0.00    +0.018 C 
ATOM     14  C   UNL     1       0.226  -2.118   0.000  0.00  0.00    +0.077 C 
BRANCH  14  15
ATOM     15  C   UNL     1      -0.179  -2.836   0.000  0.00  0.00    +0.125 C 
ATOM     16  N   UNL     1      -1.004  -2.845   0.000  0.00  0.00    -0.130 NA
ENDBRANCH  14  15
ENDBRANCH   6   7
BRANCH   4  17
ATOM     17  C   UNL     1       4.381  -0.323   0.000  0.00  0.00    +0.042 C 
ATOM     18  C   UNL     1       4.761   0.409   0.000  0.00  0.00    +0.006 C 
ATOM     19  C   UNL     1       5.585   0.445   0.000  0.00  0.00    +0.000 C 
ATOM     20  C   UNL     1       6.029  -0.250   0.000  0.00  0.00    +0.000 C 
ATOM     21  C   UNL     1       5.649  -0.982   0.000  0.00  0.00    +0.000 C 
ATOM     22  C   UNL     1       4.825  -1.019   0.000  0.00  0.00    +0.006 C 
ENDBRANCH   4  17
TORSDOF 3
