MODEL 1
REMARK VINA RESULT:      -9.9      0.000      0.000
REMARK  Name = 
REMARK  9 active torsions:
REMARK  status: ('A' for Active; 'I' for Inactive)
REMARK    1  A    between atoms: C_2  and  C_4
REMARK    2  A    between atoms: C_6  and  C_7
REMARK    3  A    between atoms: C_7  and  C_8
REMARK    4  A    between atoms: C_21  and  C_22
REMARK    5  A    between atoms: C_22  and  N_23
REMARK    6  A    between atoms: C_24  and  C_26
REMARK    7  A    between atoms: C_26  and  O_27
REMARK    8  A    between atoms: O_27  and  C_28
REMARK    9  A    between atoms: C_28  and  C_29
REMARK                            x       y       z     vdW  Elec       q    Type
REMARK                         _______ _______ _______ _____ _____    ______ ____
ROOT
ATOM      4  C   UNL     1      -1.497   1.563  24.549  0.00  0.00    +0.006 C 
ATOM      5  C   UNL     1      -2.139   2.073  24.465  0.00  0.00    +0.005 C 
ATOM      6  C   UNL     1      -2.468   2.205  23.720  0.00  0.00    +0.026 C 
ATOM     18  C   UNL     1      -2.154   1.826  23.058  0.00  0.00    -0.048 C 
ATOM     19  C   UNL     1      -2.482   1.958  22.313  0.00  0.00    +0.026 C 
ATOM     20  C   UNL     1      -1.511   1.316  23.142  0.00  0.00    -0.033 C 
ATOM     21  C   UNL     1      -1.183   1.184  23.887  0.00  0.00    +0.043 C 
ENDROOT
BRANCH   4   2
ATOM      1  C   UNL     1      -0.635   1.974  25.612  0.00  0.00    +0.000 C 
ATOM      2  C   UNL     1      -1.169   1.431  25.294  0.00  0.00    +0.000 C 
ATOM      3  C   UNL     1      -1.375   0.757  25.723  0.00  0.00    +0.000 C 
ENDBRANCH   4   2
BRANCH   6   7
ATOM      7  C   UNL     1      -3.111   2.716  23.636  0.00  0.00    +0.070 C 
BRANCH   7   8
ATOM      8  C   UNL     1      -3.744   2.673  24.164  0.00  0.00    +0.139 A 
ATOM      9  N   UNL     1      -3.940   3.237  24.734  0.00  0.00    -0.229 NA
ATOM     10  C   UNL     1      -4.609   2.971  25.136  0.00  0.00    +0.100 A 
ATOM     11  C   UNL     1      -4.826   2.242  24.816  0.00  0.00    +0.096 A 
ATOM     12  N   UNL     1      -4.291   2.058  24.215  0.00  0.00    -0.230 NA
ATOM     13  C   UNL     1      -5.483   1.840  25.112  0.00  0.00    -0.003 A 
ATOM     14  C   UNL     1      -5.700   1.112  24.791  0.00  0.00    +0.033 C 
ATOM     15  C   UNL     1      -5.922   2.167  25.729  0.00  0.00    -0.003 A 
ATOM     16  C   UNL     1      -5.704   2.896  26.049  0.00  0.00    +0.001 A 
ATOM     17  C   UNL     1      -5.048   3.297  25.753  0.00  0.00    +0.021 A 
ENDBRANCH   7   8
ENDBRANCH   6   7
BRANCH  21  22
ATOM     22  C   UNL     1      -0.540   0.673  23.970  0.00  0.00    +0.119 C 
BRANCH  22  23
ATOM     23  N   UNL     1       0.065   0.678  23.411  0.00  0.00    -0.203 NA
ATOM     24  C   UNL     1       0.550   0.016  23.321  0.00  0.00    +0.272 C 
ATOM     25  O   UNL     1       0.428  -0.651  23.792  0.00  0.00    -0.271 OA
BRANCH  24  26
ATOM     26  C   UNL     1       1.156   0.020  22.762  0.00  0.00    +0.229 C 
BRANCH  26  27
ATOM     27  O   UNL     1       1.935   0.151  22.998  0.00  0.00    -0.333 OA
BRANCH  27  28
ATOM     28  C   UNL     1       2.541   0.151  22.439  0.00  0.00    +0.257 C 
BRANCH  28  29
ATOM     29  C   UNL     1       3.309   0.357  22.662  0.00  0.00    +0.394 C 
ATOM     30  O   UNL     1       3.530   1.151  22.694  0.00  0.00    -0.243 OA
ATOM     31  O   UNL     1       3.855  -0.231  22.853  0.00  0.00    -0.243 OA
ENDBRANCH  28  29
ENDBRANCH  27  28
ENDBRANCH  26  27
ENDBRANCH  24  26
ENDBRANCH  22  23
ENDBRANCH  21  22
TORSDOF 9
ENDMDL
MODEL 2
REMARK VINA RESULT:      -9.3      3.205      4.908
REMARK  Name = 
REMARK  9 active torsions:
REMARK  status: ('A' for Active; 'I' for Inactive)
REMARK    1  A    between atoms: C_2  and  C_4
REMARK    2  A    between atoms: C_6  and  C_7
REMARK    3  A    between atoms: C_7  and  C_8
REMARK    4  A    between atoms: C_21  and  C_22
REMARK    5  A    between atoms: C_22  and  N_23
REMARK    6  A    between atoms: C_24  and  C_26
REMARK    7  A    between atoms: C_26  and  O_27
REMARK    8  A    between atoms: O_27  and  C_28
REMARK    9  A    between atoms: C_28  and  C_29
REMARK                            x       y       z     vdW  Elec       q    Type
REMARK                         _______ _______ _______ _____ _____    ______ ____
ROOT
ATOM      4  C   UNL     1      -4.525   1.531  24.723  0.00  0.00    +0.006 C 
ATOM      5  C   UNL     1      -4.416   0.860  24.258  0.00  0.00    +0.005 C 
ATOM      6  C   UNL     1      -3.741   0.788  23.789  0.00  0.00    +0.026 C 
ATOM     18  C   UNL     1      -3.175   1.388  23.786  0.00  0.00    -0.048 C 
ATOM     19  C   UNL     1      -2.500   1.317  23.317  0.00  0.00    +0.026 C 
ATOM     20  C   UNL     1      -3.285   2.060  24.252  0.00  0.00    -0.033 C 
ATOM     21  C   UNL     1      -3.960   2.131  24.721  0.00  0.00    +0.043 C 
ENDROOT
BRANCH   4   2
ATOM      1  C   UNL     1      -5.863   2.000  24.904  0.00  0.00    +0.000 C 
ATOM      2  C   UNL     1      -5.201   1.602  25.192  0.00  0.00    +0.000 C 
ATOM      3  C   UNL     1      -5.214   1.276  25.950  0.00  0.00    +0.000 C 
ENDBRANCH   4   2
BRANCH   6   7
ATOM      7  C   UNL     1      -3.632   0.116  23.322  0.00  0.00    +0.070 C 
BRANCH   7   8
ATOM      8  C   UNL     1      -3.557  -0.625  23.677  0.00  0.00    +0.139 A 
ATOM      9  N   UNL     1      -4.119  -1.230  23.660  0.00  0.00    -0.229 NA
ATOM     10  C   UNL     1      -3.817  -1.870  24.084  0.00  0.00    +0.100 A 
ATOM     11  C   UNL     1      -3.069  -1.662  24.363  0.00  0.00    +0.096 A 
ATOM     12  N   UNL     1      -2.908  -0.892  24.111  0.00  0.00    -0.230 NA
ATOM     13  C   UNL     1      -2.630  -2.198  24.810  0.00  0.00    -0.003 A 
ATOM     14  C   UNL     1      -1.882  -1.989  25.088  0.00  0.00    +0.033 C 
ATOM     15  C   UNL     1      -2.939  -2.944  24.977  0.00  0.00    -0.003 A 
ATOM     16  C   UNL     1      -3.687  -3.153  24.699  0.00  0.00    +0.001 A 
ATOM     17  C   UNL     1      -4.125  -2.616  24.252  0.00  0.00    +0.021 A 
ENDBRANCH   7   8
ENDBRANCH   6   7
BRANCH  21  22
ATOM     22  C   UNL     1      -4.069   2.803  25.187  0.00  0.00    +0.119 C 
BRANCH  22  23
ATOM     23  N   UNL     1      -3.582   3.461  25.084  0.00  0.00    -0.203 NA
ATOM     24  C   UNL     1      -3.432   3.967  25.717  0.00  0.00    +0.272 C 
ATOM     25  O   UNL     1      -3.769   3.816  26.455  0.00  0.00    -0.271 OA
BRANCH  24  26
ATOM     26  C   UNL     1      -2.945   4.625  25.614  0.00  0.00    +0.229 C 
BRANCH  26  27
ATOM     27  O   UNL     1      -2.127   4.529  25.563  0.00  0.00    -0.333 OA
BRANCH  27  28
ATOM     28  C   UNL     1      -1.657   5.143  25.276  0.00  0.00    +0.257 C 
BRANCH  28  29
ATOM     29  C   UNL     1      -0.887   4.989  25.023  0.00  0.00    +0.394 C 
ATOM     30  O   UNL     1      -0.476   5.554  24.586  0.00  0.00    -0.243 OA
ATOM     31  O   UNL     1      -0.528   4.270  25.208  0.00  0.00    -0.243 OA
ENDBRANCH  28  29
ENDBRANCH  27  28
ENDBRANCH  26  27
ENDBRANCH  24  26
ENDBRANCH  22  23
ENDBRANCH  21  22
TORSDOF 9
ENDMDL
MODEL 3
REMARK VINA RESULT:      -9.1      1.269      1.576
REMARK  Name = 
REMARK  9 active torsions:
REMARK  status: ('A' for Active; 'I' for Inactive)
REMARK    1  A    between atoms: C_2  and  C_4
REMARK    2  A    between atoms: C_6  and  C_7
REMARK    3  A    between atoms: C_7  and  C_8
REMARK    4  A    between atoms: C_21  and  C_22
REMARK    5  A    between atoms: C_22  and  N_23
REMARK    6  A    between atoms: C_24  and  C_26
REMARK    7  A    between atoms: C_26  and  O_27
REMARK    8  A    between atoms: O_27  and  C_28
REMARK    9  A    between atoms: C_28  and  C_29
REMARK                            x       y       z     vdW  Elec       q    Type
REMARK                         _______ _______ _______ _____ _____    ______ ____
ROOT
ATOM      4  C   UNL     1      -1.137   1.139  24.922  0.00  0.00    +0.006 C 
ATOM      5  C   UNL     1      -1.489   1.804  25.257  0.00  0.00    +0.005 C 
ATOM      6  C   UNL     1      -1.199   2.556  25.083  0.00  0.00    +0.026 C 
ATOM     18  C   UNL     1      -0.556   2.643  24.573  0.00  0.00    -0.048 C 
ATOM     19  C   UNL     1      -0.266   3.396  24.398  0.00  0.00    +0.026 C 
ATOM     20  C   UNL     1      -0.204   1.977  24.237  0.00  0.00    -0.033 C 
ATOM     21  C   UNL     1      -0.495   1.224  24.412  0.00  0.00    +0.043 C 
ENDROOT
BRANCH   4   2
ATOM      1  C   UNL     1      -2.003   0.044  24.616  0.00  0.00    +0.000 C 
ATOM      2  C   UNL     1      -1.427   0.386  25.096  0.00  0.00    +0.000 C 
ATOM      3  C   UNL     1      -1.141  -0.025  25.752  0.00  0.00    +0.000 C 
ENDBRANCH   4   2
BRANCH   6   7
ATOM      7  C   UNL     1      -1.551   3.223  25.419  0.00  0.00    +0.070 C 
BRANCH   7   8
ATOM      8  C   UNL     1      -2.369   3.325  25.373  0.00  0.00    +0.139 A 
ATOM      9  N   UNL     1      -2.886   3.384  26.013  0.00  0.00    -0.229 NA
ATOM     10  C   UNL     1      -3.650   3.481  25.715  0.00  0.00    +0.100 A 
ATOM     11  C   UNL     1      -3.604   3.482  24.892  0.00  0.00    +0.096 A 
ATOM     12  N   UNL     1      -2.812   3.386  24.680  0.00  0.00    -0.230 NA
ATOM     13  C   UNL     1      -4.288   3.571  24.440  0.00  0.00    -0.003 A 
ATOM     14  C   UNL     1      -4.242   3.572  23.616  0.00  0.00    +0.033 C 
ATOM     15  C   UNL     1      -5.019   3.658  24.813  0.00  0.00    -0.003 A 
ATOM     16  C   UNL     1      -5.065   3.657  25.637  0.00  0.00    +0.001 A 
ATOM     17  C   UNL     1      -4.380   3.569  26.087  0.00  0.00    +0.021 A 
ENDBRANCH   7   8
ENDBRANCH   6   7
BRANCH  21  22
ATOM     22  C   UNL     1      -0.142   0.559  24.076  0.00  0.00    +0.119 C 
BRANCH  22  23
ATOM     23  N   UNL     1       0.472   0.646  23.533  0.00  0.00    -0.203 NA
ATOM     24  C   UNL     1       0.846  -0.020  23.220  0.00  0.00    +0.272 C 
ATOM     25  O   UNL     1       0.605  -0.774  23.452  0.00  0.00    -0.271 OA
BRANCH  24  26
ATOM     26  C   UNL     1       1.460   0.068  22.677  0.00  0.00    +0.229 C 
BRANCH  26  27
ATOM     27  O   UNL     1       2.243   0.085  22.937  0.00  0.00    -0.333 OA
BRANCH  27  28
ATOM     28  C   UNL     1       2.852   0.243  22.404  0.00  0.00    +0.257 C 
BRANCH  28  29
ATOM     29  C   UNL     1       3.602   0.445  22.682  0.00  0.00    +0.394 C 
ATOM     30  O   UNL     1       3.834   1.236  22.707  0.00  0.00    -0.243 OA
ATOM     31  O   UNL     1       4.120  -0.145  22.936  0.00  0.00    -0.243 OA
ENDBRANCH  28  29
ENDBRANCH  27  28
ENDBRANCH  26  27
ENDBRANCH  24  26
ENDBRANCH  22  23
ENDBRANCH  21  22
TORSDOF 9
ENDMDL
MODEL 4
REMARK VINA RESULT:      -8.9      2.732      4.245
REMARK  Name = 
REMARK  9 active torsions:
REMARK  status: ('A' for Active; 'I' for Inactive)
REMARK    1  A    between atoms: C_2  and  C_4
REMARK    2  A    between atoms: C_6  and  C_7
REMARK    3  A    between atoms: C_7  and  C_8
REMARK    4  A    between atoms: C_21  and  C_22
REMARK    5  A    between atoms: C_22  and  N_23
REMARK    6  A    between atoms: C_24  and  C_26
REMARK    7  A    between atoms: C_26  and  O_27
REMARK    8  A    between atoms: O_27  and  C_28
REMARK    9  A    between atoms: C_28  and  C_29
REMARK                            x       y       z     vdW  Elec       q    Type
REMARK                         _______ _______ _______ _____ _____    ______ ____
ROOT
ATOM      4  C   UNL     1      -3.239   1.744  23.737  0.00  0.00    +0.006 C 
ATOM      5  C   UNL     1      -3.747   1.096  23.770  0.00  0.00    +0.005 C 
ATOM      6  C   UNL     1      -4.299   1.035  24.380  0.00  0.00    +0.026 C 
ATOM     18  C   UNL     1      -4.343   1.624  24.956  0.00  0.00    -0.048 C 
ATOM     19  C   UNL     1      -4.896   1.563  25.566  0.00  0.00    +0.026 C 
ATOM     20  C   UNL     1      -3.835   2.272  24.922  0.00  0.00    -0.033 C 
ATOM     21  C   UNL     1      -3.282   2.332  24.312  0.00  0.00    +0.043 C 
ENDROOT
BRANCH   4   2
ATOM      1  C   UNL     1      -2.862   2.245  22.452  0.00  0.00    +0.000 C 
ATOM      2  C   UNL     1      -2.686   1.804  23.127  0.00  0.00    +0.000 C 
ATOM      3  C   UNL     1      -1.957   1.424  23.190  0.00  0.00    +0.000 C 
ENDBRANCH   4   2
BRANCH   6   7
ATOM      7  C   UNL     1      -4.808   0.386  24.413  0.00  0.00    +0.070 C 
BRANCH   7   8
ATOM      8  C   UNL     1      -4.500  -0.378  24.448  0.00  0.00    +0.139 A 
ATOM      9  N   UNL     1      -4.568  -0.955  23.861  0.00  0.00    -0.229 NA
ATOM     10  C   UNL     1      -4.179  -1.634  24.125  0.00  0.00    +0.100 A 
ATOM     11  C   UNL     1      -3.872  -1.477  24.874  0.00  0.00    +0.096 A 
ATOM     12  N   UNL     1      -4.070  -0.700  25.073  0.00  0.00    -0.230 NA
ATOM     13  C   UNL     1      -3.451  -2.059  25.279  0.00  0.00    -0.003 A 
ATOM     14  C   UNL     1      -3.143  -1.902  26.028  0.00  0.00    +0.033 C 
ATOM     15  C   UNL     1      -3.338  -2.800  24.934  0.00  0.00    -0.003 A 
ATOM     16  C   UNL     1      -3.646  -2.957  24.185  0.00  0.00    +0.001 A 
ATOM     17  C   UNL     1      -4.066  -2.375  23.781  0.00  0.00    +0.021 A 
ENDBRANCH   7   8
ENDBRANCH   6   7
BRANCH  21  22
ATOM     22  C   UNL     1      -2.774   2.982  24.280  0.00  0.00    +0.119 C 
BRANCH  22  23
ATOM     23  N   UNL     1      -2.188   3.076  24.851  0.00  0.00    -0.203 NA
ATOM     24  C   UNL     1      -1.893   3.828  25.021  0.00  0.00    +0.272 C 
ATOM     25  O   UNL     1      -2.186   4.486  24.618  0.00  0.00    -0.271 OA
BRANCH  24  26
ATOM     26  C   UNL     1      -1.307   3.923  25.592  0.00  0.00    +0.229 C 
BRANCH  26  27
ATOM     27  O   UNL     1      -0.631   3.449  25.574  0.00  0.00    -0.333 OA
BRANCH  27  28
ATOM     28  C   UNL     1      -0.356   3.095  26.266  0.00  0.00    +0.257 C 
BRANCH  28  29
ATOM     29  C   UNL     1       0.351   2.670  26.260  0.00  0.00    +0.394 C 
ATOM     30  O   UNL     1       0.570   2.242  25.590  0.00  0.00    -0.243 OA
ATOM     31  O   UNL     1       0.839   2.673  26.925  0.00  0.00    -0.243 OA
ENDBRANCH  28  29
ENDBRANCH  27  28
ENDBRANCH  26  27
ENDBRANCH  24  26
ENDBRANCH  22  23
ENDBRANCH  21  22
TORSDOF 9
ENDMDL
MODEL 5
REMARK VINA RESULT:      -8.6      1.337      2.100
REMARK  Name = 
REMARK  9 active torsions:
REMARK  status: ('A' for Active; 'I' for Inactive)
REMARK    1  A    between atoms: C_2  and  C_4
REMARK    2  A    between atoms: C_6  and  C_7
REMARK    3  A    between atoms: C_7  and  C_8
REMARK    4  A    between atoms: C_21  and  C_22
REMARK    5  A    between atoms: C_22  and  N_23
REMARK    6  A    between atoms: C_24  and  C_26
REMARK    7  A    between atoms: C_26  and  O_27
REMARK    8  A    between atoms: O_27  and  C_28
REMARK    9  A    between atoms: C_28  and  C_29
REMARK                            x       y       z     vdW  Elec       q    Type
REMARK                         _______ _______ _______ _____ _____    ______ ____
ROOT
ATOM      4  C   UNL     1      -1.623   2.690  24.460  0.00  0.00    +0.006 C 
ATOM      5  C   UNL     1      -2.363   3.037  24.356  0.00  0.00    +0.005 C 
ATOM      6  C   UNL     1      -2.838   2.811  23.721  0.00  0.00    +0.026 C 
ATOM     18  C   UNL     1      -2.574   2.237  23.190  0.00  0.00    -0.048 C 
ATOM     19  C   UNL     1      -3.049   2.011  22.555  0.00  0.00    +0.026 C 
ATOM     20  C   UNL     1      -1.833   1.891  23.295  0.00  0.00    -0.033 C 
ATOM     21  C   UNL     1      -1.357   2.117  23.930  0.00  0.00    +0.043 C 
ENDROOT
BRANCH   4   2
ATOM      1  C   UNL     1      -0.614   3.540  25.010  0.00  0.00    +0.000 C 
ATOM      2  C   UNL     1      -1.147   2.916  25.095  0.00  0.00    +0.000 C 
ATOM      3  C   UNL     1      -1.204   2.519  25.816  0.00  0.00    +0.000 C 
ENDBRANCH   4   2
BRANCH   6   7
ATOM      7  C   UNL     1      -3.580   3.158  23.616  0.00  0.00    +0.070 C 
BRANCH   7   8
ATOM      8  C   UNL     1      -4.172   3.045  24.179  0.00  0.00    +0.139 A 
ATOM      9  N   UNL     1      -4.441   3.608  24.720  0.00  0.00    -0.229 NA
ATOM     10  C   UNL     1      -5.035   3.260  25.176  0.00  0.00    +0.100 A 
ATOM     11  C   UNL     1      -5.132   2.483  24.917  0.00  0.00    +0.096 A 
ATOM     12  N   UNL     1      -4.599   2.350  24.301  0.00  0.00    -0.230 NA
ATOM     13  C   UNL     1      -5.694   1.996  25.275  0.00  0.00    -0.003 A 
ATOM     14  C   UNL     1      -5.792   1.219  25.016  0.00  0.00    +0.033 C 
ATOM     15  C   UNL     1      -6.157   2.287  25.892  0.00  0.00    -0.003 A 
ATOM     16  C   UNL     1      -6.059   3.064  26.151  0.00  0.00    +0.001 A 
ATOM     17  C   UNL     1      -5.498   3.550  25.792  0.00  0.00    +0.021 A 
ENDBRANCH   7   8
ENDBRANCH   6   7
BRANCH  21  22
ATOM     22  C   UNL     1      -0.616   1.769  24.034  0.00  0.00    +0.119 C 
BRANCH  22  23
ATOM     23  N   UNL     1      -0.538   0.949  24.012  0.00  0.00    -0.203 NA
ATOM     24  C   UNL     1       0.197   0.608  23.853  0.00  0.00    +0.272 C 
ATOM     25  O   UNL     1       0.853   1.088  23.718  0.00  0.00    -0.271 OA
BRANCH  24  26
ATOM     26  C   UNL     1       0.275  -0.213  23.831  0.00  0.00    +0.229 C 
BRANCH  26  27
ATOM     27  O   UNL     1      -0.015  -0.673  24.452  0.00  0.00    -0.333 OA
BRANCH  27  28
ATOM     28  C   UNL     1      -0.234  -1.456  24.318  0.00  0.00    +0.257 C 
BRANCH  28  29
ATOM     29  C   UNL     1      -0.603  -1.890  24.914  0.00  0.00    +0.394 C 
ATOM     30  O   UNL     1      -0.236  -1.981  25.647  0.00  0.00    -0.243 OA
ATOM     31  O   UNL     1      -1.341  -2.233  24.778  0.00  0.00    -0.243 OA
ENDBRANCH  28  29
ENDBRANCH  27  28
ENDBRANCH  26  27
ENDBRANCH  24  26
ENDBRANCH  22  23
ENDBRANCH  21  22
TORSDOF 9
ENDMDL
MODEL 6
REMARK VINA RESULT:      -6.2     17.166     18.795
REMARK  Name = 
REMARK  9 active torsions:
REMARK  status: ('A' for Active; 'I' for Inactive)
REMARK    1  A    between atoms: C_2  and  C_4
REMARK    2  A    between atoms: C_6  and  C_7
REMARK    3  A    between atoms: C_7  and  C_8
REMARK    4  A    between atoms: C_21  and  C_22
REMARK    5  A    between atoms: C_22  and  N_23
REMARK    6  A    between atoms: C_24  and  C_26
REMARK    7  A    between atoms: C_26  and  O_27
REMARK    8  A    between atoms: O_27  and  C_28
REMARK    9  A    between atoms: C_28  and  C_29
REMARK                            x       y       z     vdW  Elec       q    Type
REMARK                         _______ _______ _______ _____ _____    ______ ____
ROOT
ATOM      4  C   UNL     1      -5.905  -9.525  10.640  0.00  0.00    +0.006 C 
ATOM      5  C   UNL     1      -5.193  -9.940  10.613  0.00  0.00    +0.005 C 
ATOM      6  C   UNL     1      -4.841 -10.109   9.887  0.00  0.00    +0.026 C 
ATOM     18  C   UNL     1      -5.202  -9.864   9.186  0.00  0.00    -0.048 C 
ATOM     19  C   UNL     1      -4.850 -10.034   8.459  0.00  0.00    +0.026 C 
ATOM     20  C   UNL     1      -5.914  -9.450   9.213  0.00  0.00    -0.033 C 
ATOM     21  C   UNL     1      -6.266  -9.280   9.940  0.00  0.00    +0.043 C 
ENDROOT
BRANCH   4   2
ATOM      1  C   UNL     1      -6.101  -8.639  11.744  0.00  0.00    +0.000 C 
ATOM      2  C   UNL     1      -6.257  -9.356  11.366  0.00  0.00    +0.000 C 
ATOM      3  C   UNL     1      -6.766  -9.903  11.717  0.00  0.00    +0.000 C 
ENDBRANCH   4   2
BRANCH   6   7
ATOM      7  C   UNL     1      -4.128 -10.524   9.860  0.00  0.00    +0.070 C 
BRANCH   7   8
ATOM      8  C   UNL     1      -3.471 -10.242  10.272  0.00  0.00    +0.139 A 
ATOM      9  N   UNL     1      -3.016  -9.584  10.068  0.00  0.00    -0.229 NA
ATOM     10  C   UNL     1      -2.417  -9.504  10.630  0.00  0.00    +0.100 A 
ATOM     11  C   UNL     1      -2.502 -10.112  11.181  0.00  0.00    +0.096 A 
ATOM     12  N   UNL     1      -3.153 -10.568  10.959  0.00  0.00    -0.230 NA
ATOM     13  C   UNL     1      -1.975 -10.173  11.813  0.00  0.00    -0.003 A 
ATOM     14  C   UNL     1      -2.060 -10.781  12.364  0.00  0.00    +0.033 C 
ATOM     15  C   UNL     1      -1.365  -9.624  11.893  0.00  0.00    -0.003 A 
ATOM     16  C   UNL     1      -1.280  -9.016  11.343  0.00  0.00    +0.001 A 
ATOM     17  C   UNL     1      -1.807  -8.956  10.711  0.00  0.00    +0.021 A 
ENDBRANCH   7   8
ENDBRANCH   6   7
BRANCH  21  22
ATOM     22  C   UNL     1      -6.979  -8.865   9.966  0.00  0.00    +0.119 C 
BRANCH  22  23
ATOM     23  N   UNL     1      -7.193  -8.373   9.340  0.00  0.00    -0.203 NA
ATOM     24  C   UNL     1      -7.975  -8.119   9.264  0.00  0.00    +0.272 C 
ATOM     25  O   UNL     1      -8.541  -8.357   9.813  0.00  0.00    -0.271 OA
BRANCH  24  26
ATOM     26  C   UNL     1      -8.189  -7.626   8.638  0.00  0.00    +0.229 C 
BRANCH  26  27
ATOM     27  O   UNL     1      -8.708  -6.998   8.766  0.00  0.00    -0.333 OA
BRANCH  27  28
ATOM     28  C   UNL     1      -8.692  -6.341   8.267  0.00  0.00    +0.257 C 
BRANCH  28  29
ATOM     29  C   UNL     1      -9.277  -5.762   8.328  0.00  0.00    +0.394 C 
ATOM     30  O   UNL     1     -10.064  -5.952   8.174  0.00  0.00    -0.243 OA
ATOM     31  O   UNL     1      -9.073  -4.992   8.543  0.00  0.00    -0.243 OA
ENDBRANCH  28  29
ENDBRANCH  27  28
ENDBRANCH  26  27
ENDBRANCH  24  26
ENDBRANCH  22  23
ENDBRANCH  21  22
TORSDOF 9
ENDMDL
