REMARK  Name = 
REMARK  7 active torsions:
REMARK  status: ('A' for Active; 'I' for Inactive)
REMARK    1  A    between atoms: O_2  and  C_3
REMARK    2  A    between atoms: C_9  and  C_10
REMARK    3  A    between atoms: C_10  and  C_11
REMARK    4  A    between atoms: C_16  and  C_17
REMARK    5  A    between atoms: C_17  and  C_18
REMARK    6  A    between atoms: N_23  and  C_24
REMARK    7  A    between atoms: C_24  and  C_25
REMARK                            x       y       z     vdW  Elec       q    Type
REMARK                         _______ _______ _______ _____ _____    ______ ____
ROOT
ATOM     11  C   UNL     1      -5.001   4.537   0.000  0.00  0.00    +0.026 C 
ATOM     12  C   UNL     1      -4.287   4.950   0.000  0.00  0.00    +0.095 C 
ATOM     13  N   UNL     1      -3.572   4.537   0.000  0.00  0.00    -0.263 N 
ATOM     14  C   UNL     1      -3.572   3.712   0.000  0.00  0.00    +0.095 C 
ATOM     15  C   UNL     1      -4.287   3.300   0.000  0.00  0.00    +0.022 C 
ATOM     16  C   UNL     1      -5.001   3.712   0.000  0.00  0.00    +0.015 C 
ATOM     21  C   UNL     1      -2.858   4.950   0.000  0.00  0.00    +0.324 C 
ATOM     22  O   UNL     1      -2.858   5.775   0.000  0.00  0.00    -0.251 OA
ATOM     23  N   UNL     1      -2.143   4.537   0.000  0.00  0.00    -0.184 NA
ENDROOT
BRANCH  11  10
ATOM     10  C   UNL     1      -5.716   4.950   0.000  0.00  0.00    +0.047 C 
BRANCH  10   9
ATOM      3  C   UNL     1      -8.574   5.775   0.000  0.00  0.00    +0.138 A 
ATOM      4  C   UNL     1      -8.574   4.950   0.000  0.00  0.00    +0.033 A 
ATOM      5  C   UNL     1      -7.859   4.537   0.000  0.00  0.00    -0.016 A 
ATOM      6  C   UNL     1      -7.145   4.950   0.000  0.00  0.00    +0.009 A 
ATOM      7  C   UNL     1      -7.145   5.775   0.000  0.00  0.00    +0.004 A 
ATOM      8  C   UNL     1      -7.859   6.188   0.000  0.00  0.00    +0.037 A 
ATOM      9  C   UNL     1      -6.430   4.537   0.000  0.00  0.00    +0.053 C 
ATOM     27  N   UNL     1      -6.430   3.712   0.000  0.00  0.00    -0.274 NA
ATOM     28  C   UNL     1      -7.145   3.300   0.000  0.00  0.00    +0.130 C 
ATOM     29  C   UNL     1      -7.859   3.712   0.000  0.00  0.00    +0.053 C 
BRANCH   3   2
ATOM      1  C   UNL     1      -9.288   7.013   0.000  0.00  0.00    +0.252 C 
ATOM      2  O   UNL     1      -9.288   6.188   0.000  0.00  0.00    -0.471 OA
ENDBRANCH   3   2
ENDBRANCH  10   9
ENDBRANCH  11  10
BRANCH  16  17
ATOM     17  C   UNL     1      -5.716   3.300   0.000  0.00  0.00    +0.114 C 
BRANCH  17  18
ATOM     18  C   UNL     1      -5.716   2.475   0.000  0.00  0.00    +0.365 C 
ATOM     19  O   UNL     1      -5.001   2.062   0.000  0.00  0.00    -0.246 OA
ATOM     20  O   UNL     1      -6.430   2.062   0.000  0.00  0.00    -0.246 OA
ENDBRANCH  17  18
ENDBRANCH  16  17
BRANCH  23  24
ATOM     24  C   UNL     1      -1.429   4.950   0.000  0.00  0.00    +0.143 C 
BRANCH  24  25
ATOM     25  C   UNL     1      -0.715   4.537   0.000  0.00  0.00    -0.003 C 
ATOM     26  C   UNL     1       0.000   4.950   0.000  0.00  0.00    -0.003 C 
ENDBRANCH  24  25
ENDBRANCH  23  24
TORSDOF 7
