REMARK  Name = 
REMARK  5 active torsions:
REMARK  status: ('A' for Active; 'I' for Inactive)
REMARK    1  A    between atoms: S_2  and  N_4
REMARK    2  A    between atoms: S_2  and  C_27
REMARK    3  A    between atoms: C_7  and  C_9
REMARK    4  A    between atoms: N_17  and  S_18
REMARK    5  A    between atoms: S_18  and  C_21
REMARK                            x       y       z     vdW  Elec       q    Type
REMARK                         _______ _______ _______ _____ _____    ______ ____
ROOT
ATOM      9  C   UNL     1      -0.628  -0.698   0.000  0.00  0.00    +0.142 A 
ATOM     10  N   UNL     1      -0.143  -1.365   0.000  0.00  0.00    -0.229 NA
ATOM     11  C   UNL     1       0.641  -1.110   0.000  0.00  0.00    +0.100 A 
ATOM     12  C   UNL     1       0.641  -0.285   0.000  0.00  0.00    +0.101 A 
ATOM     13  C   UNL     1       1.356   0.127   0.000  0.00  0.00    +0.021 A 
ATOM     14  C   UNL     1       2.070  -0.285   0.000  0.00  0.00    +0.002 A 
ATOM     15  C   UNL     1       2.070  -1.110   0.000  0.00  0.00    +0.002 A 
ATOM     16  C   UNL     1       1.356  -1.523   0.000  0.00  0.00    +0.021 A 
ATOM     17  N   UNL     1      -0.143  -0.030   0.000  0.00  0.00    -0.194 N 
ENDROOT
BRANCH   9   7
ATOM      4  N   UNL     1      -2.723  -1.110   0.000  0.00  0.00    -0.155 NA
ATOM      5  C   UNL     1      -2.723  -0.285   0.000  0.00  0.00    +0.096 C 
ATOM      6  C   UNL     1      -1.938  -0.030   0.000  0.00  0.00    +0.028 C 
ATOM      7  C   UNL     1      -1.453  -0.698   0.000  0.00  0.00    +0.078 C 
ATOM      8  C   UNL     1      -1.938  -1.365   0.000  0.00  0.00    +0.103 C 
BRANCH   4   2
ATOM      1  O   UNL     1      -3.875  -0.928   0.000  0.00  0.00    -0.153 OA
ATOM      2  S   UNL     1      -3.390  -1.595   0.000  0.00  0.00    +0.063 S 
ATOM      3  O   UNL     1      -2.905  -2.263   0.000  0.00  0.00    -0.153 OA
BRANCH   2  27
ATOM     27  C   UNL     1      -4.058  -2.080   0.000  0.00  0.00    +0.122 A 
ATOM     28  C   UNL     1      -3.972  -2.901   0.000  0.00  0.00    +0.020 A 
ATOM     29  C   UNL     1      -4.639  -3.386   0.000  0.00  0.00    +0.001 A 
ATOM     30  C   UNL     1      -5.393  -3.050   0.000  0.00  0.00    +0.000 A 
ATOM     31  C   UNL     1      -5.479  -2.230   0.000  0.00  0.00    +0.001 A 
ATOM     32  C   UNL     1      -4.811  -1.745   0.000  0.00  0.00    +0.020 A 
ENDBRANCH   2  27
ENDBRANCH   4   2
ENDBRANCH   9   7
BRANCH  17  18
ATOM     18  S   UNL     1      -0.398   0.754   0.000  0.00  0.00    +0.087 S 
ATOM     19  O   UNL     1      -1.183   0.499   0.000  0.00  0.00    -0.148 OA
ATOM     20  O   UNL     1       0.386   1.009   0.000  0.00  0.00    -0.148 OA
BRANCH  18  21
ATOM     21  C   UNL     1      -0.653   1.539   0.000  0.00  0.00    +0.128 A 
ATOM     22  C   UNL     1      -1.460   1.710   0.000  0.00  0.00    +0.020 A 
ATOM     23  C   UNL     1      -1.715   2.495   0.000  0.00  0.00    +0.001 A 
ATOM     24  C   UNL     1      -1.163   3.108   0.000  0.00  0.00    +0.000 A 
ATOM     25  C   UNL     1      -0.356   2.937   0.000  0.00  0.00    +0.001 A 
ATOM     26  C   UNL     1      -0.101   2.152   0.000  0.00  0.00    +0.020 A 
ENDBRANCH  18  21
ENDBRANCH  17  18
TORSDOF 5
