MODEL 1
REMARK VINA RESULT:     -14.2      0.000      0.000
REMARK  Name = 
REMARK  5 active torsions:
REMARK  status: ('A' for Active; 'I' for Inactive)
REMARK    1  A    between atoms: N_4  and  C_22
REMARK    2  A    between atoms: C_7  and  C_8
REMARK    3  A    between atoms: C_10  and  N_11
REMARK    4  A    between atoms: C_12  and  C_14
REMARK    5  A    between atoms: C_25  and  C_28
REMARK                            x       y       z     vdW  Elec       q    Type
REMARK                         _______ _______ _______ _____ _____    ______ ____
ROOT
ATOM      1  C   UNL     1      -5.556   1.560  25.579  0.00  0.00    +0.054 C 
ATOM      2  C   UNL     1      -4.998   1.074  25.212  0.00  0.00    +0.077 A 
ATOM      3  N   UNL     1      -4.986   0.250  25.231  0.00  0.00    -0.170 NA
ATOM      4  N   UNL     1      -4.335  -0.006  24.793  0.00  0.00    -0.234 N 
ATOM      5  C   UNL     1      -3.945   0.661  24.503  0.00  0.00    +0.058 A 
ATOM      6  C   UNL     1      -3.264   0.660  24.036  0.00  0.00    +0.052 C 
ATOM      7  C   UNL     1      -4.355   1.329  24.762  0.00  0.00    +0.010 A 
ENDROOT
BRANCH   4  22
ATOM     22  C   UNL     1      -4.113  -0.791  24.667  0.00  0.00    +0.082 A 
ATOM     23  C   UNL     1      -4.357  -1.182  23.984  0.00  0.00    +0.019 A 
ATOM     24  C   UNL     1      -4.134  -1.967  23.858  0.00  0.00    +0.005 A 
ATOM     25  C   UNL     1      -3.669  -2.359  24.414  0.00  0.00    +0.072 A 
ATOM     26  C   UNL     1      -3.425  -1.966  25.098  0.00  0.00    +0.005 A 
ATOM     27  C   UNL     1      -3.647  -1.181  25.224  0.00  0.00    +0.019 A 
BRANCH  25  28
ATOM     28  C   UNL     1      -3.447  -3.144  24.288  0.00  0.00    +0.419 C 
ATOM     29  F   UNL     1      -3.224  -3.928  24.162  0.00  0.00    -0.166 F 
ATOM     30  F   UNL     1      -4.241  -3.368  24.285  0.00  0.00    -0.166 F 
ATOM     31  F   UNL     1      -2.654  -2.919  24.291  0.00  0.00    -0.166 F 
ENDBRANCH  25  28
ENDBRANCH   4  22
BRANCH   7   8
ATOM      8  C   UNL     1      -4.155   2.113  24.599  0.00  0.00    +0.048 C 
ATOM      9  C   UNL     1      -3.397   2.436  24.620  0.00  0.00    +0.035 C 
ATOM     10  C   UNL     1      -3.454   3.233  24.420  0.00  0.00    +0.118 C 
ATOM     20  C   UNL     1      -4.248   3.404  24.276  0.00  0.00    -0.009 C 
ATOM     21  C   UNL     1      -4.682   2.712  24.386  0.00  0.00    -0.025 C 
BRANCH  10  11
ATOM     11  N   UNL     1      -2.827   3.768  24.373  0.00  0.00    -0.203 NA
ATOM     12  C   UNL     1      -2.430   4.001  25.058  0.00  0.00    +0.241 C 
ATOM     13  O   UNL     1      -2.659   3.700  25.791  0.00  0.00    -0.273 OA
BRANCH  12  14
ATOM     14  C   UNL     1      -1.803   4.536  25.009  0.00  0.00    +0.078 C 
ATOM     15  C   UNL     1      -1.945   5.345  25.083  0.00  0.00    +0.009 C 
ATOM     16  C   UNL     1      -1.319   5.880  25.035  0.00  0.00    +0.000 C 
ATOM     17  C   UNL     1      -0.550   5.605  24.913  0.00  0.00    +0.000 C 
ATOM     18  C   UNL     1      -0.409   4.795  24.839  0.00  0.00    +0.000 C 
ATOM     19  C   UNL     1      -1.035   4.261  24.887  0.00  0.00    +0.009 C 
ENDBRANCH  12  14
ENDBRANCH  10  11
ENDBRANCH   7   8
TORSDOF 5
ENDMDL
MODEL 2
REMARK VINA RESULT:     -14.0      2.976      6.053
REMARK  Name = 
REMARK  5 active torsions:
REMARK  status: ('A' for Active; 'I' for Inactive)
REMARK    1  A    between atoms: N_4  and  C_22
REMARK    2  A    between atoms: C_7  and  C_8
REMARK    3  A    between atoms: C_10  and  N_11
REMARK    4  A    between atoms: C_12  and  C_14
REMARK    5  A    between atoms: C_25  and  C_28
REMARK                            x       y       z     vdW  Elec       q    Type
REMARK                         _______ _______ _______ _____ _____    ______ ____
ROOT
ATOM      1  C   UNL     1      -5.397   2.918  25.925  0.00  0.00    +0.054 C 
ATOM      2  C   UNL     1      -4.633   2.976  25.617  0.00  0.00    +0.077 A 
ATOM      3  N   UNL     1      -4.143   3.637  25.659  0.00  0.00    -0.170 NA
ATOM      4  N   UNL     1      -3.432   3.451  25.281  0.00  0.00    -0.234 N 
ATOM      5  C   UNL     1      -3.485   2.675  25.007  0.00  0.00    +0.058 A 
ATOM      6  C   UNL     1      -2.898   2.265  24.596  0.00  0.00    +0.052 C 
ATOM      7  C   UNL     1      -4.227   2.381  25.214  0.00  0.00    +0.010 A 
ENDROOT
BRANCH   4  22
ATOM     22  C   UNL     1      -2.783   3.954  25.194  0.00  0.00    +0.082 A 
ATOM     23  C   UNL     1      -2.153   3.908  25.723  0.00  0.00    +0.019 A 
ATOM     24  C   UNL     1      -1.504   4.410  25.636  0.00  0.00    +0.005 A 
ATOM     25  C   UNL     1      -1.486   4.958  25.020  0.00  0.00    +0.072 A 
ATOM     26  C   UNL     1      -2.118   5.004  24.490  0.00  0.00    +0.005 A 
ATOM     27  C   UNL     1      -2.767   4.501  24.577  0.00  0.00    +0.019 A 
BRANCH  25  28
ATOM     28  C   UNL     1      -0.837   5.460  24.932  0.00  0.00    +0.419 C 
ATOM     29  F   UNL     1      -0.189   5.962  24.845  0.00  0.00    -0.166 F 
ATOM     30  F   UNL     1      -1.290   6.093  25.209  0.00  0.00    -0.166 F 
ATOM     31  F   UNL     1      -0.386   4.828  24.655  0.00  0.00    -0.166 F 
ENDBRANCH  25  28
ENDBRANCH   4  22
BRANCH   7   8
ATOM      8  C   UNL     1      -4.512   1.625  25.048  0.00  0.00    +0.048 C 
ATOM      9  C   UNL     1      -4.119   0.915  25.191  0.00  0.00    +0.035 C 
ATOM     10  C   UNL     1      -4.605   0.298  24.940  0.00  0.00    +0.118 C 
ATOM     20  C   UNL     1      -5.300   0.627  24.641  0.00  0.00    -0.009 C 
ATOM     21  C   UNL     1      -5.243   1.447  24.707  0.00  0.00    -0.025 C 
BRANCH  10  11
ATOM     11  N   UNL     1      -4.428  -0.507  24.981  0.00  0.00    -0.203 NA
ATOM     12  C   UNL     1      -4.083  -0.887  24.335  0.00  0.00    +0.241 C 
ATOM     13  O   UNL     1      -3.914  -0.463  23.648  0.00  0.00    -0.273 OA
BRANCH  12  14
ATOM     14  C   UNL     1      -3.907  -1.693  24.376  0.00  0.00    +0.078 C 
ATOM     15  C   UNL     1      -4.245  -2.216  23.835  0.00  0.00    +0.009 C 
ATOM     16  C   UNL     1      -4.068  -3.022  23.877  0.00  0.00    +0.000 C 
ATOM     17  C   UNL     1      -3.555  -3.302  24.458  0.00  0.00    +0.000 C 
ATOM     18  C   UNL     1      -3.218  -2.778  24.999  0.00  0.00    +0.000 C 
ATOM     19  C   UNL     1      -3.394  -1.973  24.958  0.00  0.00    +0.009 C 
ENDBRANCH  12  14
ENDBRANCH  10  11
ENDBRANCH   7   8
TORSDOF 5
ENDMDL
MODEL 3
REMARK VINA RESULT:     -12.1      3.503      6.613
REMARK  Name = 
REMARK  5 active torsions:
REMARK  status: ('A' for Active; 'I' for Inactive)
REMARK    1  A    between atoms: N_4  and  C_22
REMARK    2  A    between atoms: C_7  and  C_8
REMARK    3  A    between atoms: C_10  and  N_11
REMARK    4  A    between atoms: C_12  and  C_14
REMARK    5  A    between atoms: C_25  and  C_28
REMARK                            x       y       z     vdW  Elec       q    Type
REMARK                         _______ _______ _______ _____ _____    ______ ____
ROOT
ATOM      1  C   UNL     1       0.656   0.689  24.021  0.00  0.00    +0.054 C 
ATOM      2  C   UNL     1       0.099   1.222  24.318  0.00  0.00    +0.077 A 
ATOM      3  N   UNL     1       0.158   2.043  24.301  0.00  0.00    -0.170 NA
ATOM      4  N   UNL     1      -0.519   2.355  24.657  0.00  0.00    -0.234 N 
ATOM      5  C   UNL     1      -0.995   1.724  24.894  0.00  0.00    +0.058 A 
ATOM      6  C   UNL     1      -1.726   1.784  25.274  0.00  0.00    +0.052 C 
ATOM      7  C   UNL     1      -0.613   1.023  24.684  0.00  0.00    +0.010 A 
ENDROOT
BRANCH   4  22
ATOM     22  C   UNL     1      -0.689   3.156  24.758  0.00  0.00    +0.082 A 
ATOM     23  C   UNL     1      -0.860   3.626  24.102  0.00  0.00    +0.019 A 
ATOM     24  C   UNL     1      -1.030   4.428  24.203  0.00  0.00    +0.005 A 
ATOM     25  C   UNL     1      -1.030   4.757  24.959  0.00  0.00    +0.072 A 
ATOM     26  C   UNL     1      -0.860   4.286  25.615  0.00  0.00    +0.005 A 
ATOM     27  C   UNL     1      -0.689   3.485  25.514  0.00  0.00    +0.019 A 
BRANCH  25  28
ATOM     28  C   UNL     1      -1.201   5.559  25.060  0.00  0.00    +0.419 C 
ATOM     29  F   UNL     1      -1.371   6.359  25.160  0.00  0.00    -0.166 F 
ATOM     30  F   UNL     1      -1.935   5.362  25.381  0.00  0.00    -0.166 F 
ATOM     31  F   UNL     1      -0.467   5.755  24.738  0.00  0.00    -0.166 F 
ENDBRANCH  25  28
ENDBRANCH   4  22
BRANCH   7   8
ATOM      8  C   UNL     1      -0.895   0.259  24.819  0.00  0.00    +0.048 C 
ATOM      9  C   UNL     1      -1.462  -0.135  24.369  0.00  0.00    +0.035 C 
ATOM     10  C   UNL     1      -1.576  -0.881  24.699  0.00  0.00    +0.118 C 
ATOM     20  C   UNL     1      -1.078  -0.949  25.354  0.00  0.00    -0.009 C 
ATOM     21  C   UNL     1      -0.658  -0.244  25.428  0.00  0.00    -0.025 C 
BRANCH  10  11
ATOM     11  N   UNL     1      -2.096  -1.460  24.424  0.00  0.00    -0.203 NA
ATOM     12  C   UNL     1      -2.857  -1.514  24.737  0.00  0.00    +0.241 C 
ATOM     13  O   UNL     1      -3.100  -0.989  25.325  0.00  0.00    -0.273 OA
BRANCH  12  14
ATOM     14  C   UNL     1      -3.376  -2.094  24.462  0.00  0.00    +0.078 C 
ATOM     15  C   UNL     1      -3.279  -2.879  24.696  0.00  0.00    +0.009 C 
ATOM     16  C   UNL     1      -3.799  -3.458  24.420  0.00  0.00    +0.000 C 
ATOM     17  C   UNL     1      -4.414  -3.252  23.911  0.00  0.00    +0.000 C 
ATOM     18  C   UNL     1      -4.511  -2.466  23.678  0.00  0.00    +0.000 C 
ATOM     19  C   UNL     1      -3.992  -1.887  23.953  0.00  0.00    +0.009 C 
ENDBRANCH  12  14
ENDBRANCH  10  11
ENDBRANCH   7   8
TORSDOF 5
ENDMDL
MODEL 4
REMARK VINA RESULT:     -12.0      2.029      2.798
REMARK  Name = 
REMARK  5 active torsions:
REMARK  status: ('A' for Active; 'I' for Inactive)
REMARK    1  A    between atoms: N_4  and  C_22
REMARK    2  A    between atoms: C_7  and  C_8
REMARK    3  A    between atoms: C_10  and  N_11
REMARK    4  A    between atoms: C_12  and  C_14
REMARK    5  A    between atoms: C_25  and  C_28
REMARK                            x       y       z     vdW  Elec       q    Type
REMARK                         _______ _______ _______ _____ _____    ______ ____
ROOT
ATOM      1  C   UNL     1       0.479   0.051  23.525  0.00  0.00    +0.054 C 
ATOM      2  C   UNL     1      -0.227  -0.143  23.908  0.00  0.00    +0.077 A 
ATOM      3  N   UNL     1      -0.630  -0.859  23.846  0.00  0.00    -0.170 NA
ATOM      4  N   UNL     1      -1.305  -0.813  24.318  0.00  0.00    -0.234 N 
ATOM      5  C   UNL     1      -1.319  -0.067  24.671  0.00  0.00    +0.058 A 
ATOM      6  C   UNL     1      -1.898   0.214  25.188  0.00  0.00    +0.052 C 
ATOM      7  C   UNL     1      -0.652   0.347  24.417  0.00  0.00    +0.010 A 
ENDROOT
BRANCH   4  22
ATOM     22  C   UNL     1      -1.869  -1.408  24.419  0.00  0.00    +0.082 A 
ATOM     23  C   UNL     1      -2.663  -1.253  24.262  0.00  0.00    +0.019 A 
ATOM     24  C   UNL     1      -3.227  -1.848  24.364  0.00  0.00    +0.005 A 
ATOM     25  C   UNL     1      -2.995  -2.595  24.621  0.00  0.00    +0.072 A 
ATOM     26  C   UNL     1      -2.200  -2.750  24.778  0.00  0.00    +0.005 A 
ATOM     27  C   UNL     1      -1.636  -2.156  24.677  0.00  0.00    +0.019 A 
BRANCH  25  28
ATOM     28  C   UNL     1      -3.558  -3.190  24.722  0.00  0.00    +0.419 C 
ATOM     29  F   UNL     1      -4.121  -3.785  24.824  0.00  0.00    -0.166 F 
ATOM     30  F   UNL     1      -3.559  -3.328  23.909  0.00  0.00    -0.166 F 
ATOM     31  F   UNL     1      -3.557  -3.052  25.535  0.00  0.00    -0.166 F 
ENDBRANCH  25  28
ENDBRANCH   4  22
BRANCH   7   8
ATOM      8  C   UNL     1      -0.447   1.116  24.636  0.00  0.00    +0.048 C 
ATOM      9  C   UNL     1      -0.820   1.807  24.387  0.00  0.00    +0.035 C 
ATOM     10  C   UNL     1      -0.437   2.446  24.740  0.00  0.00    +0.118 C 
ATOM     20  C   UNL     1       0.174   2.149  25.208  0.00  0.00    -0.009 C 
ATOM     21  C   UNL     1       0.168   1.328  25.144  0.00  0.00    -0.025 C 
BRANCH  10  11
ATOM     11  N   UNL     1      -0.629   3.242  24.642  0.00  0.00    -0.203 NA
ATOM     12  C   UNL     1      -1.025   3.648  25.242  0.00  0.00    +0.241 C 
ATOM     13  O   UNL     1      -1.229   3.258  25.940  0.00  0.00    -0.273 OA
BRANCH  12  14
ATOM     14  C   UNL     1      -1.217   4.445  25.144  0.00  0.00    +0.078 C 
ATOM     15  C   UNL     1      -1.965   4.718  25.359  0.00  0.00    +0.009 C 
ATOM     16  C   UNL     1      -2.157   5.514  25.261  0.00  0.00    +0.000 C 
ATOM     17  C   UNL     1      -1.601   6.037  24.948  0.00  0.00    +0.000 C 
ATOM     18  C   UNL     1      -0.853   5.763  24.733  0.00  0.00    +0.000 C 
ATOM     19  C   UNL     1      -0.661   4.968  24.831  0.00  0.00    +0.009 C 
ENDBRANCH  12  14
ENDBRANCH  10  11
ENDBRANCH   7   8
TORSDOF 5
ENDMDL
MODEL 5
REMARK VINA RESULT:     -11.0      3.439      4.823
REMARK  Name = 
REMARK  5 active torsions:
REMARK  status: ('A' for Active; 'I' for Inactive)
REMARK    1  A    between atoms: N_4  and  C_22
REMARK    2  A    between atoms: C_7  and  C_8
REMARK    3  A    between atoms: C_10  and  N_11
REMARK    4  A    between atoms: C_12  and  C_14
REMARK    5  A    between atoms: C_25  and  C_28
REMARK                            x       y       z     vdW  Elec       q    Type
REMARK                         _______ _______ _______ _____ _____    ______ ____
ROOT
ATOM      1  C   UNL     1      -1.352   4.273  25.014  0.00  0.00    +0.054 C 
ATOM      2  C   UNL     1      -1.880   3.638  25.001  0.00  0.00    +0.077 A 
ATOM      3  N   UNL     1      -2.702   3.692  25.008  0.00  0.00    -0.170 NA
ATOM      4  N   UNL     1      -3.008   2.925  24.991  0.00  0.00    -0.234 N 
ATOM      5  C   UNL     1      -2.373   2.398  24.973  0.00  0.00    +0.058 A 
ATOM      6  C   UNL     1      -2.428   1.575  24.952  0.00  0.00    +0.052 C 
ATOM      7  C   UNL     1      -1.676   2.839  24.979  0.00  0.00    +0.010 A 
ENDROOT
BRANCH   4  22
ATOM     22  C   UNL     1      -3.808   2.722  24.991  0.00  0.00    +0.082 A 
ATOM     23  C   UNL     1      -4.168   2.467  24.295  0.00  0.00    +0.019 A 
ATOM     24  C   UNL     1      -4.968   2.264  24.295  0.00  0.00    +0.005 A 
ATOM     25  C   UNL     1      -5.406   2.314  24.991  0.00  0.00    +0.072 A 
ATOM     26  C   UNL     1      -5.045   2.569  25.689  0.00  0.00    +0.005 A 
ATOM     27  C   UNL     1      -4.245   2.773  25.688  0.00  0.00    +0.019 A 
BRANCH  25  28
ATOM     28  C   UNL     1      -6.206   2.111  24.992  0.00  0.00    +0.419 C 
ATOM     29  F   UNL     1      -7.005   1.907  24.992  0.00  0.00    -0.166 F 
ATOM     30  F   UNL     1      -6.396   2.858  25.287  0.00  0.00    -0.166 F 
ATOM     31  F   UNL     1      -6.016   1.364  24.698  0.00  0.00    -0.166 F 
ENDBRANCH  25  28
ENDBRANCH   4  22
BRANCH   7   8
ATOM      8  C   UNL     1      -0.910   2.533  24.966  0.00  0.00    +0.048 C 
ATOM      9  C   UNL     1      -0.483   2.321  24.293  0.00  0.00    +0.035 C 
ATOM     10  C   UNL     1       0.254   2.042  24.535  0.00  0.00    +0.118 C 
ATOM     20  C   UNL     1       0.283   2.081  25.359  0.00  0.00    -0.009 C 
ATOM     21  C   UNL     1      -0.436   2.384  25.625  0.00  0.00    -0.025 C 
BRANCH  10  11
ATOM     11  N   UNL     1       0.857   1.772  24.042  0.00  0.00    -0.203 NA
ATOM     12  C   UNL     1       0.891   0.975  23.829  0.00  0.00    +0.241 C 
ATOM     13  O   UNL     1       0.321   0.448  24.109  0.00  0.00    -0.273 OA
BRANCH  12  14
ATOM     14  C   UNL     1       1.495   0.705  23.335  0.00  0.00    +0.078 C 
ATOM     15  C   UNL     1       2.256   1.015  23.409  0.00  0.00    +0.009 C 
ATOM     16  C   UNL     1       2.860   0.745  22.915  0.00  0.00    +0.000 C 
ATOM     17  C   UNL     1       2.702   0.166  22.349  0.00  0.00    +0.000 C 
ATOM     18  C   UNL     1       1.941  -0.143  22.277  0.00  0.00    +0.000 C 
ATOM     19  C   UNL     1       1.337   0.126  22.769  0.00  0.00    +0.009 C 
ENDBRANCH  12  14
ENDBRANCH  10  11
ENDBRANCH   7   8
TORSDOF 5
ENDMDL
MODEL 6
REMARK VINA RESULT:     -11.0      3.751      5.030
REMARK  Name = 
REMARK  5 active torsions:
REMARK  status: ('A' for Active; 'I' for Inactive)
REMARK    1  A    between atoms: N_4  and  C_22
REMARK    2  A    between atoms: C_7  and  C_8
REMARK    3  A    between atoms: C_10  and  N_11
REMARK    4  A    between atoms: C_12  and  C_14
REMARK    5  A    between atoms: C_25  and  C_28
REMARK                            x       y       z     vdW  Elec       q    Type
REMARK                         _______ _______ _______ _____ _____    ______ ____
ROOT
ATOM      1  C   UNL     1      -3.355  -0.874  24.043  0.00  0.00    +0.054 C 
ATOM      2  C   UNL     1      -3.349  -0.099  24.330  0.00  0.00    +0.077 A 
ATOM      3  N   UNL     1      -4.007   0.387  24.424  0.00  0.00    -0.170 NA
ATOM      4  N   UNL     1      -3.748   1.111  24.725  0.00  0.00    -0.234 N 
ATOM      5  C   UNL     1      -2.929   1.070  24.817  0.00  0.00    +0.058 A 
ATOM      6  C   UNL     1      -2.443   1.673  25.103  0.00  0.00    +0.052 C 
ATOM      7  C   UNL     1      -2.682   0.322  24.572  0.00  0.00    +0.010 A 
ENDROOT
BRANCH   4  22
ATOM     22  C   UNL     1      -4.225   1.761  24.903  0.00  0.00    +0.082 A 
ATOM     23  C   UNL     1      -4.147   2.459  24.470  0.00  0.00    +0.019 A 
ATOM     24  C   UNL     1      -4.623   3.109  24.648  0.00  0.00    +0.005 A 
ATOM     25  C   UNL     1      -5.176   3.061  25.258  0.00  0.00    +0.072 A 
ATOM     26  C   UNL     1      -5.254   2.363  25.691  0.00  0.00    +0.005 A 
ATOM     27  C   UNL     1      -4.777   1.712  25.513  0.00  0.00    +0.019 A 
BRANCH  25  28
ATOM     28  C   UNL     1      -5.652   3.711  25.436  0.00  0.00    +0.419 C 
ATOM     29  F   UNL     1      -6.129   4.361  25.614  0.00  0.00    -0.166 F 
ATOM     30  F   UNL     1      -4.980   4.187  25.495  0.00  0.00    -0.166 F 
ATOM     31  F   UNL     1      -6.323   3.235  25.377  0.00  0.00    -0.166 F 
ENDBRANCH  25  28
ENDBRANCH   4  22
BRANCH   7   8
ATOM      8  C   UNL     1      -1.905   0.045  24.571  0.00  0.00    +0.048 C 
ATOM      9  C   UNL     1      -1.386   0.056  23.931  0.00  0.00    +0.035 C 
ATOM     10  C   UNL     1      -0.672  -0.273  24.175  0.00  0.00    +0.118 C 
ATOM     20  C   UNL     1      -0.748  -0.489  24.969  0.00  0.00    -0.009 C 
ATOM     21  C   UNL     1      -1.510  -0.292  25.213  0.00  0.00    -0.025 C 
BRANCH  10  11
ATOM     11  N   UNL     1       0.003  -0.372  23.710  0.00  0.00    -0.203 NA
ATOM     12  C   UNL     1       0.497   0.271  23.558  0.00  0.00    +0.241 C 
ATOM     13  O   UNL     1       0.317   1.013  23.870  0.00  0.00    -0.273 OA
BRANCH  12  14
ATOM     14  C   UNL     1       1.171   0.172  23.092  0.00  0.00    +0.078 C 
ATOM     15  C   UNL     1       1.891   0.490  23.338  0.00  0.00    +0.009 C 
ATOM     16  C   UNL     1       2.566   0.391  22.873  0.00  0.00    +0.000 C 
ATOM     17  C   UNL     1       2.519  -0.025  22.162  0.00  0.00    +0.000 C 
ATOM     18  C   UNL     1       1.798  -0.343  21.917  0.00  0.00    +0.000 C 
ATOM     19  C   UNL     1       1.124  -0.244  22.382  0.00  0.00    +0.009 C 
ENDBRANCH  12  14
ENDBRANCH  10  11
ENDBRANCH   7   8
TORSDOF 5
ENDMDL
MODEL 7
REMARK VINA RESULT:     -11.0      3.568      4.902
REMARK  Name = 
REMARK  5 active torsions:
REMARK  status: ('A' for Active; 'I' for Inactive)
REMARK    1  A    between atoms: N_4  and  C_22
REMARK    2  A    between atoms: C_7  and  C_8
REMARK    3  A    between atoms: C_10  and  N_11
REMARK    4  A    between atoms: C_12  and  C_14
REMARK    5  A    between atoms: C_25  and  C_28
REMARK                            x       y       z     vdW  Elec       q    Type
REMARK                         _______ _______ _______ _____ _____    ______ ____
ROOT
ATOM      1  C   UNL     1      -1.375  -1.184  25.370  0.00  0.00    +0.054 C 
ATOM      2  C   UNL     1      -1.027  -0.698  24.800  0.00  0.00    +0.077 A 
ATOM      3  N   UNL     1      -0.238  -0.719  24.562  0.00  0.00    -0.170 NA
ATOM      4  N   UNL     1      -0.131  -0.141  23.984  0.00  0.00    -0.234 N 
ATOM      5  C   UNL     1      -0.854   0.238  23.864  0.00  0.00    +0.058 A 
ATOM      6  C   UNL     1      -0.998   0.853  23.333  0.00  0.00    +0.052 C 
ATOM      7  C   UNL     1      -1.409  -0.107  24.369  0.00  0.00    +0.010 A 
ENDROOT
BRANCH   4  22
ATOM     22  C   UNL     1       0.576   0.030  23.593  0.00  0.00    +0.082 A 
ATOM     23  C   UNL     1       0.829  -0.450  22.971  0.00  0.00    +0.019 A 
ATOM     24  C   UNL     1       1.535  -0.280  22.580  0.00  0.00    +0.005 A 
ATOM     25  C   UNL     1       1.988   0.369  22.811  0.00  0.00    +0.072 A 
ATOM     26  C   UNL     1       1.735   0.850  23.433  0.00  0.00    +0.005 A 
ATOM     27  C   UNL     1       1.028   0.679  23.824  0.00  0.00    +0.019 A 
BRANCH  25  28
ATOM     28  C   UNL     1       2.695   0.540  22.420  0.00  0.00    +0.419 C 
ATOM     29  F   UNL     1       3.401   0.710  22.030  0.00  0.00    -0.166 F 
ATOM     30  F   UNL     1       2.451   0.081  21.779  0.00  0.00    -0.166 F 
ATOM     31  F   UNL     1       2.938   0.998  23.061  0.00  0.00    -0.166 F 
ENDBRANCH  25  28
ENDBRANCH   4  22
BRANCH   7   8
ATOM      8  C   UNL     1      -2.204   0.103  24.431  0.00  0.00    +0.048 C 
ATOM      9  C   UNL     1      -2.508   0.730  24.871  0.00  0.00    +0.035 C 
ATOM     10  C   UNL     1      -3.326   0.738  24.775  0.00  0.00    +0.118 C 
ATOM     20  C   UNL     1      -3.529   0.114  24.274  0.00  0.00    -0.009 C 
ATOM     21  C   UNL     1      -2.836  -0.278  24.061  0.00  0.00    -0.025 C 
BRANCH  10  11
ATOM     11  N   UNL     1      -3.851   1.273  25.118  0.00  0.00    -0.203 NA
ATOM     12  C   UNL     1      -4.181   1.878  24.664  0.00  0.00    +0.241 C 
ATOM     13  O   UNL     1      -3.985   1.948  23.866  0.00  0.00    -0.273 OA
BRANCH  12  14
ATOM     14  C   UNL     1      -4.706   2.414  25.008  0.00  0.00    +0.078 C 
ATOM     15  C   UNL     1      -4.484   3.202  25.108  0.00  0.00    +0.009 C 
ATOM     16  C   UNL     1      -5.009   3.737  25.452  0.00  0.00    +0.000 C 
ATOM     17  C   UNL     1      -5.756   3.484  25.696  0.00  0.00    +0.000 C 
ATOM     18  C   UNL     1      -5.976   2.696  25.596  0.00  0.00    +0.000 C 
ATOM     19  C   UNL     1      -5.452   2.160  25.252  0.00  0.00    +0.009 C 
ENDBRANCH  12  14
ENDBRANCH  10  11
ENDBRANCH   7   8
TORSDOF 5
ENDMDL
