MODEL 1
REMARK VINA RESULT:      -9.5      0.000      0.000
REMARK  Name = 
REMARK  9 active torsions:
REMARK  status: ('A' for Active; 'I' for Inactive)
REMARK    1  A    between atoms: O_2  and  C_3
REMARK    2  A    between atoms: C_3  and  C_5
REMARK    3  A    between atoms: C_5  and  N_6
REMARK    4  A    between atoms: C_5  and  C_31
REMARK    5  A    between atoms: C_7  and  C_9
REMARK    6  A    between atoms: C_10  and  N_19
REMARK    7  A    between atoms: C_14  and  C_16
REMARK    8  A    between atoms: C_16  and  S_17
REMARK    9  A    between atoms: N_22  and  C_23
REMARK                            x       y       z     vdW  Elec       q    Type
REMARK                         _______ _______ _______ _____ _____    ______ ____
ROOT
ATOM      9  C   UNL     1      -3.721   2.145  24.849  0.00  0.00    +0.174 C 
ATOM     10  C   UNL     1      -3.874   1.335  24.826  0.00  0.00    +0.126 C 
ATOM     11  C   UNL     1      -4.668   1.218  25.019  0.00  0.00    +0.045 C 
ATOM     12  C   UNL     1      -5.005   1.958  25.162  0.00  0.00    +0.096 C 
ATOM     13  N   UNL     1      -4.420   2.530  25.057  0.00  0.00    -0.271 N 
ATOM     14  C   UNL     1      -4.517   3.345  25.145  0.00  0.00    +0.237 C 
ATOM     15  O   UNL     1      -3.878   3.852  25.022  0.00  0.00    -0.274 OA
ENDROOT
BRANCH  10  19
ATOM     19  N   UNL     1      -3.329   0.743  24.641  0.00  0.00    -0.186 NA
ATOM     20  C   UNL     1      -3.571  -0.045  24.607  0.00  0.00    +0.344 C 
ATOM     21  O   UNL     1      -4.358  -0.242  24.757  0.00  0.00    -0.249 OA
ATOM     22  N   UNL     1      -3.026  -0.636  24.422  0.00  0.00    -0.159 NA
BRANCH  22  23
ATOM     23  C   UNL     1      -3.268  -1.425  24.388  0.00  0.00    +0.102 A 
ATOM     24  C   UNL     1      -2.866  -1.998  24.824  0.00  0.00    +0.158 A 
ATOM     25  F   UNL     1      -2.223  -1.784  25.294  0.00  0.00    -0.203 F 
ATOM     26  C   UNL     1      -3.109  -2.786  24.790  0.00  0.00    +0.061 A 
ATOM     27  C   UNL     1      -3.752  -3.000  24.320  0.00  0.00    +0.142 A 
ATOM     28  F   UNL     1      -3.994  -3.789  24.286  0.00  0.00    -0.204 F 
ATOM     29  C   UNL     1      -4.153  -2.427  23.884  0.00  0.00    +0.031 A 
ATOM     30  C   UNL     1      -3.911  -1.638  23.918  0.00  0.00    +0.021 A 
ENDBRANCH  22  23
ENDBRANCH  10  19
BRANCH   9   7
ATOM      6  N   UNL     1      -2.357   2.385  25.201  0.00  0.00    -0.194 NA
ATOM      7  C   UNL     1      -2.996   2.506  24.692  0.00  0.00    +0.262 C 
ATOM      8  O   UNL     1      -2.910   2.988  24.028  0.00  0.00    -0.271 OA
BRANCH   6   5
ATOM      5  C   UNL     1      -1.632   2.747  25.044  0.00  0.00    +0.193 C 
BRANCH   5  31
ATOM     31  C   UNL     1      -1.404   3.416  25.468  0.00  0.00    +0.031 C 
ATOM     32  C   UNL     1      -1.246   4.123  25.072  0.00  0.00    +0.002 C 
ATOM     33  C   UNL     1      -1.333   3.380  26.289  0.00  0.00    +0.002 C 
ENDBRANCH   5  31
BRANCH   5   3
ATOM      3  C   UNL     1      -1.135   2.438  24.462  0.00  0.00    +0.337 C 
ATOM      4  O   UNL     1      -1.116   2.780  23.711  0.00  0.00    -0.248 OA
BRANCH   3   2
ATOM      1  C   UNL     1      -0.093   1.537  24.084  0.00  0.00    +0.256 C 
ATOM      2  O   UNL     1      -0.657   1.787  24.631  0.00  0.00    -0.443 OA
ENDBRANCH   3   2
ENDBRANCH   5   3
ENDBRANCH   6   5
ENDBRANCH   9   7
BRANCH  14  16
ATOM     16  C   UNL     1      -5.252   3.652  25.356  0.00  0.00    +0.143 C 
BRANCH  16  17
ATOM     17  S   UNL     1      -5.342   4.465  25.471  0.00  0.00    -0.130 S 
ATOM     18  C   UNL     1      -6.089   4.781  25.621  0.00  0.00    +0.070 C 
ENDBRANCH  16  17
ENDBRANCH  14  16
TORSDOF 9
ENDMDL
MODEL 2
REMARK VINA RESULT:      -9.0      1.398      3.040
REMARK  Name = 
REMARK  9 active torsions:
REMARK  status: ('A' for Active; 'I' for Inactive)
REMARK    1  A    between atoms: O_2  and  C_3
REMARK    2  A    between atoms: C_3  and  C_5
REMARK    3  A    between atoms: C_5  and  N_6
REMARK    4  A    between atoms: C_5  and  C_31
REMARK    5  A    between atoms: C_7  and  C_9
REMARK    6  A    between atoms: C_10  and  N_19
REMARK    7  A    between atoms: C_14  and  C_16
REMARK    8  A    between atoms: C_16  and  S_17
REMARK    9  A    between atoms: N_22  and  C_23
REMARK                            x       y       z     vdW  Elec       q    Type
REMARK                         _______ _______ _______ _____ _____    ______ ____
ROOT
ATOM      9  C   UNL     1      -2.816   2.089  24.652  0.00  0.00    +0.174 C 
ATOM     10  C   UNL     1      -2.795   1.346  24.295  0.00  0.00    +0.126 C 
ATOM     11  C   UNL     1      -2.033   1.224  24.003  0.00  0.00    +0.045 C 
ATOM     12  C   UNL     1      -1.583   1.894  24.180  0.00  0.00    +0.096 C 
ATOM     13  N   UNL     1      -2.068   2.428  24.581  0.00  0.00    -0.271 N 
ATOM     14  C   UNL     1      -1.843   3.171  24.861  0.00  0.00    +0.237 C 
ATOM     15  O   UNL     1      -2.391   3.647  25.253  0.00  0.00    -0.274 OA
ENDROOT
BRANCH  10  19
ATOM     19  N   UNL     1      -3.425   0.815  24.240  0.00  0.00    -0.186 NA
ATOM     20  C   UNL     1      -3.303   0.012  24.386  0.00  0.00    +0.344 C 
ATOM     21  O   UNL     1      -2.551  -0.260  24.588  0.00  0.00    -0.249 OA
ATOM     22  N   UNL     1      -3.933  -0.517  24.331  0.00  0.00    -0.159 NA
BRANCH  22  23
ATOM     23  C   UNL     1      -3.810  -1.320  24.477  0.00  0.00    +0.102 A 
ATOM     24  C   UNL     1      -4.022  -1.879  23.908  0.00  0.00    +0.158 A 
ATOM     25  F   UNL     1      -4.355  -1.636  23.194  0.00  0.00    -0.203 F 
ATOM     26  C   UNL     1      -3.899  -2.682  24.054  0.00  0.00    +0.061 A 
ATOM     27  C   UNL     1      -3.566  -2.926  24.768  0.00  0.00    +0.142 A 
ATOM     28  F   UNL     1      -3.444  -3.729  24.915  0.00  0.00    -0.204 F 
ATOM     29  C   UNL     1      -3.355  -2.367  25.337  0.00  0.00    +0.031 A 
ATOM     30  C   UNL     1      -3.477  -1.563  25.191  0.00  0.00    +0.021 A 
ENDBRANCH  22  23
ENDBRANCH  10  19
BRANCH   9   7
ATOM      6  N   UNL     1      -4.125   2.657  24.563  0.00  0.00    -0.194 NA
ATOM      7  C   UNL     1      -3.472   2.433  25.016  0.00  0.00    +0.262 C 
ATOM      8  O   UNL     1      -3.475   2.554  25.832  0.00  0.00    -0.271 OA
BRANCH   6   5
ATOM      5  C   UNL     1      -4.781   3.001  24.927  0.00  0.00    +0.193 C 
BRANCH   5  31
ATOM     31  C   UNL     1      -4.847   3.822  24.967  0.00  0.00    +0.031 C 
ATOM     32  C   UNL     1      -4.777   4.276  24.281  0.00  0.00    +0.002 C 
ATOM     33  C   UNL     1      -4.982   4.191  25.693  0.00  0.00    +0.002 C 
ENDBRANCH   5  31
BRANCH   5   3
ATOM      3  C   UNL     1      -5.370   2.523  25.251  0.00  0.00    +0.337 C 
ATOM      4  O   UNL     1      -5.419   2.425  26.069  0.00  0.00    -0.248 OA
BRANCH   3   2
ATOM      1  C   UNL     1      -6.539   1.718  25.081  0.00  0.00    +0.256 C 
ATOM      2  O   UNL     1      -5.911   2.143  24.756  0.00  0.00    -0.443 OA
ENDBRANCH   3   2
ENDBRANCH   5   3
ENDBRANCH   6   5
ENDBRANCH   9   7
BRANCH  14  16
ATOM     16  C   UNL     1      -1.071   3.438  24.748  0.00  0.00    +0.143 C 
BRANCH  16  17
ATOM     17  S   UNL     1      -0.850   4.186  25.019  0.00  0.00    -0.130 S 
ATOM     18  C   UNL     1      -0.244   4.599  24.642  0.00  0.00    +0.070 C 
ENDBRANCH  16  17
ENDBRANCH  14  16
TORSDOF 9
ENDMDL
MODEL 3
REMARK VINA RESULT:      -8.5      2.538      5.138
REMARK  Name = 
REMARK  9 active torsions:
REMARK  status: ('A' for Active; 'I' for Inactive)
REMARK    1  A    between atoms: O_2  and  C_3
REMARK    2  A    between atoms: C_3  and  C_5
REMARK    3  A    between atoms: C_5  and  N_6
REMARK    4  A    between atoms: C_5  and  C_31
REMARK    5  A    between atoms: C_7  and  C_9
REMARK    6  A    between atoms: C_10  and  N_19
REMARK    7  A    between atoms: C_14  and  C_16
REMARK    8  A    between atoms: C_16  and  S_17
REMARK    9  A    between atoms: N_22  and  C_23
REMARK                            x       y       z     vdW  Elec       q    Type
REMARK                         _______ _______ _______ _____ _____    ______ ____
ROOT
ATOM      9  C   UNL     1      -1.854   0.465  24.233  0.00  0.00    +0.174 C 
ATOM     10  C   UNL     1      -2.413   1.048  24.066  0.00  0.00    +0.126 C 
ATOM     11  C   UNL     1      -2.043   1.637  23.622  0.00  0.00    +0.045 C 
ATOM     12  C   UNL     1      -1.255   1.417  23.515  0.00  0.00    +0.096 C 
ATOM     13  N   UNL     1      -1.139   0.693  23.893  0.00  0.00    -0.271 N 
ATOM     14  C   UNL     1      -0.431   0.271  23.924  0.00  0.00    +0.237 C 
ATOM     15  O   UNL     1      -0.398  -0.451  24.324  0.00  0.00    -0.274 OA
ENDROOT
BRANCH  10  19
ATOM     19  N   UNL     1      -3.204   1.044  24.301  0.00  0.00    -0.186 NA
ATOM     20  C   UNL     1      -3.570   1.747  24.533  0.00  0.00    +0.344 C 
ATOM     21  O   UNL     1      -3.144   2.453  24.530  0.00  0.00    -0.249 OA
ATOM     22  N   UNL     1      -4.361   1.742  24.768  0.00  0.00    -0.159 NA
BRANCH  22  23
ATOM     23  C   UNL     1      -4.726   2.444  25.000  0.00  0.00    +0.102 A 
ATOM     24  C   UNL     1      -5.340   2.427  25.551  0.00  0.00    +0.158 A 
ATOM     25  F   UNL     1      -5.588   1.708  25.870  0.00  0.00    -0.203 F 
ATOM     26  C   UNL     1      -5.705   3.130  25.783  0.00  0.00    +0.061 A 
ATOM     27  C   UNL     1      -5.457   3.849  25.464  0.00  0.00    +0.142 A 
ATOM     28  F   UNL     1      -5.822   4.552  25.696  0.00  0.00    -0.204 F 
ATOM     29  C   UNL     1      -4.843   3.866  24.914  0.00  0.00    +0.031 A 
ATOM     30  C   UNL     1      -4.477   3.163  24.682  0.00  0.00    +0.021 A 
ENDBRANCH  22  23
ENDBRANCH  10  19
BRANCH   9   7
ATOM      6  N   UNL     1      -2.461  -0.824  24.349  0.00  0.00    -0.194 NA
ATOM      7  C   UNL     1      -1.988  -0.226  24.665  0.00  0.00    +0.262 C 
ATOM      8  O   UNL     1      -1.650  -0.317  25.412  0.00  0.00    -0.271 OA
BRANCH   6   5
ATOM      5  C   UNL     1      -2.595  -1.515  24.781  0.00  0.00    +0.193 C 
BRANCH   5  31
ATOM     31  C   UNL     1      -3.203  -1.542  25.338  0.00  0.00    +0.031 C 
ATOM     32  C   UNL     1      -3.031  -1.467  26.142  0.00  0.00    +0.002 C 
ATOM     33  C   UNL     1      -3.984  -1.643  25.091  0.00  0.00    +0.002 C 
ENDBRANCH   5  31
BRANCH   5   3
ATOM      3  C   UNL     1      -2.119  -2.177  24.656  0.00  0.00    +0.337 C 
ATOM      4  O   UNL     1      -1.631  -2.455  25.261  0.00  0.00    -0.248 OA
BRANCH   3   2
ATOM      1  C   UNL     1      -1.726  -3.273  23.828  0.00  0.00    +0.256 C 
ATOM      2  O   UNL     1      -2.133  -2.562  23.926  0.00  0.00    -0.443 OA
ENDBRANCH   3   2
ENDBRANCH   5   3
ENDBRANCH   6   5
ENDBRANCH   9   7
BRANCH  14  16
ATOM     16  C   UNL     1       0.245   0.569  23.556  0.00  0.00    +0.143 C 
BRANCH  16  17
ATOM     17  S   UNL     1       0.881   0.068  23.394  0.00  0.00    -0.130 S 
ATOM     18  C   UNL     1       1.534   0.353  22.978  0.00  0.00    +0.070 C 
ENDBRANCH  16  17
ENDBRANCH  14  16
TORSDOF 9
ENDMDL
MODEL 4
REMARK VINA RESULT:      -8.5      2.710      5.737
REMARK  Name = 
REMARK  9 active torsions:
REMARK  status: ('A' for Active; 'I' for Inactive)
REMARK    1  A    between atoms: O_2  and  C_3
REMARK    2  A    between atoms: C_3  and  C_5
REMARK    3  A    between atoms: C_5  and  N_6
REMARK    4  A    between atoms: C_5  and  C_31
REMARK    5  A    between atoms: C_7  and  C_9
REMARK    6  A    between atoms: C_10  and  N_19
REMARK    7  A    between atoms: C_14  and  C_16
REMARK    8  A    between atoms: C_16  and  S_17
REMARK    9  A    between atoms: N_22  and  C_23
REMARK                            x       y       z     vdW  Elec       q    Type
REMARK                         _______ _______ _______ _____ _____    ______ ____
ROOT
ATOM      9  C   UNL     1      -1.681   0.156  24.819  0.00  0.00    +0.174 C 
ATOM     10  C   UNL     1      -1.448   0.921  24.620  0.00  0.00    +0.126 C 
ATOM     11  C   UNL     1      -0.627   0.923  24.534  0.00  0.00    +0.045 C 
ATOM     12  C   UNL     1      -0.354   0.158  24.681  0.00  0.00    +0.096 C 
ATOM     13  N   UNL     1      -1.006  -0.316  24.857  0.00  0.00    -0.271 N 
ATOM     14  C   UNL     1      -0.986  -1.120  25.039  0.00  0.00    +0.237 C 
ATOM     15  O   UNL     1      -1.687  -1.524  25.204  0.00  0.00    -0.274 OA
ENDROOT
BRANCH  10  19
ATOM     19  N   UNL     1      -1.946   1.572  24.523  0.00  0.00    -0.186 NA
ATOM     20  C   UNL     1      -1.674   2.330  24.701  0.00  0.00    +0.344 C 
ATOM     21  O   UNL     1      -0.904   2.439  24.976  0.00  0.00    -0.249 OA
ATOM     22  N   UNL     1      -2.173   2.980  24.603  0.00  0.00    -0.159 NA
BRANCH  22  23
ATOM     23  C   UNL     1      -1.902   3.739  24.781  0.00  0.00    +0.102 A 
ATOM     24  C   UNL     1      -2.373   4.252  25.223  0.00  0.00    +0.158 A 
ATOM     25  F   UNL     1      -3.115   4.007  25.487  0.00  0.00    -0.203 F 
ATOM     26  C   UNL     1      -2.101   5.011  25.401  0.00  0.00    +0.061 A 
ATOM     27  C   UNL     1      -1.359   5.255  25.137  0.00  0.00    +0.142 A 
ATOM     28  F   UNL     1      -1.087   6.014  25.315  0.00  0.00    -0.204 F 
ATOM     29  C   UNL     1      -0.888   4.742  24.695  0.00  0.00    +0.031 A 
ATOM     30  C   UNL     1      -1.160   3.984  24.517  0.00  0.00    +0.021 A 
ENDBRANCH  22  23
ENDBRANCH  10  19
BRANCH   9   7
ATOM      6  N   UNL     1      -3.008  -0.081  24.344  0.00  0.00    -0.194 NA
ATOM      7  C   UNL     1      -2.456  -0.094  24.957  0.00  0.00    +0.262 C 
ATOM      8  O   UNL     1      -2.678  -0.356  25.707  0.00  0.00    -0.271 OA
BRANCH   6   5
ATOM      5  C   UNL     1      -3.783  -0.331  24.481  0.00  0.00    +0.193 C 
BRANCH   5  31
ATOM     31  C   UNL     1      -4.037  -1.063  24.197  0.00  0.00    +0.031 C 
ATOM     32  C   UNL     1      -4.089  -1.194  23.383  0.00  0.00    +0.002 C 
ATOM     33  C   UNL     1      -4.239  -1.663  24.725  0.00  0.00    +0.002 C 
ENDBRANCH   5  31
BRANCH   5   3
ATOM      3  C   UNL     1      -4.302   0.151  24.903  0.00  0.00    +0.337 C 
ATOM      4  O   UNL     1      -4.454  -0.002  25.699  0.00  0.00    -0.248 OA
BRANCH   3   2
ATOM      1  C   UNL     1      -5.218   1.248  24.939  0.00  0.00    +0.256 C 
ATOM      2  O   UNL     1      -4.670   0.788  24.527  0.00  0.00    -0.443 OA
ENDBRANCH   3   2
ENDBRANCH   5   3
ENDBRANCH   6   5
ENDBRANCH   9   7
BRANCH  14  16
ATOM     16  C   UNL     1      -0.265  -1.522  25.056  0.00  0.00    +0.143 C 
BRANCH  16  17
ATOM     17  S   UNL     1      -0.246  -2.325  25.243  0.00  0.00    -0.130 S 
ATOM     18  C   UNL     1       0.469  -2.684  25.448  0.00  0.00    +0.070 C 
ENDBRANCH  16  17
ENDBRANCH  14  16
TORSDOF 9
ENDMDL
MODEL 5
REMARK VINA RESULT:      -8.4      2.275      4.010
REMARK  Name = 
REMARK  9 active torsions:
REMARK  status: ('A' for Active; 'I' for Inactive)
REMARK    1  A    between atoms: O_2  and  C_3
REMARK    2  A    between atoms: C_3  and  C_5
REMARK    3  A    between atoms: C_5  and  N_6
REMARK    4  A    between atoms: C_5  and  C_31
REMARK    5  A    between atoms: C_7  and  C_9
REMARK    6  A    between atoms: C_10  and  N_19
REMARK    7  A    between atoms: C_14  and  C_16
REMARK    8  A    between atoms: C_16  and  S_17
REMARK    9  A    between atoms: N_22  and  C_23
REMARK                            x       y       z     vdW  Elec       q    Type
REMARK                         _______ _______ _______ _____ _____    ______ ____
ROOT
ATOM      9  C   UNL     1      -0.215   0.464  24.118  0.00  0.00    +0.174 C 
ATOM     10  C   UNL     1      -0.655  -0.213  24.286  0.00  0.00    +0.126 C 
ATOM     11  C   UNL     1      -0.207  -0.870  24.064  0.00  0.00    +0.045 C 
ATOM     12  C   UNL     1       0.510  -0.597  23.759  0.00  0.00    +0.096 C 
ATOM     13  N   UNL     1       0.504   0.227  23.792  0.00  0.00    -0.271 N 
ATOM     14  C   UNL     1       1.111   0.726  23.543  0.00  0.00    +0.237 C 
ATOM     15  O   UNL     1       1.027   1.545  23.611  0.00  0.00    -0.274 OA
ENDROOT
BRANCH  10  19
ATOM     19  N   UNL     1      -1.410  -0.232  24.618  0.00  0.00    -0.186 NA
ATOM     20  C   UNL     1      -1.946  -0.818  24.392  0.00  0.00    +0.344 C 
ATOM     21  O   UNL     1      -1.727  -1.384  23.834  0.00  0.00    -0.249 OA
ATOM     22  N   UNL     1      -2.701  -0.836  24.725  0.00  0.00    -0.159 NA
BRANCH  22  23
ATOM     23  C   UNL     1      -3.237  -1.422  24.499  0.00  0.00    +0.102 A 
ATOM     24  C   UNL     1      -3.925  -1.216  24.093  0.00  0.00    +0.158 A 
ATOM     25  F   UNL     1      -4.078  -0.425  23.914  0.00  0.00    -0.203 F 
ATOM     26  C   UNL     1      -4.461  -1.801  23.867  0.00  0.00    +0.061 A 
ATOM     27  C   UNL     1      -4.308  -2.592  24.047  0.00  0.00    +0.142 A 
ATOM     28  F   UNL     1      -4.844  -3.177  23.821  0.00  0.00    -0.204 F 
ATOM     29  C   UNL     1      -3.620  -2.798  24.452  0.00  0.00    +0.031 A 
ATOM     30  C   UNL     1      -3.084  -2.212  24.678  0.00  0.00    +0.021 A 
ENDBRANCH  22  23
ENDBRANCH  10  19
BRANCH   9   7
ATOM      6  N   UNL     1      -0.643   1.489  25.016  0.00  0.00    -0.194 NA
ATOM      7  C   UNL     1      -0.454   1.243  24.252  0.00  0.00    +0.262 C 
ATOM      8  O   UNL     1      -0.504   1.774  23.623  0.00  0.00    -0.271 OA
BRANCH   6   5
ATOM      5  C   UNL     1      -0.882   2.268  25.151  0.00  0.00    +0.193 C 
BRANCH   5  31
ATOM     31  C   UNL     1      -0.387   2.787  25.559  0.00  0.00    +0.031 C 
ATOM     32  C   UNL     1      -0.088   2.576  26.298  0.00  0.00    +0.002 C 
ATOM     33  C   UNL     1      -0.192   3.517  25.228  0.00  0.00    +0.002 C 
ENDBRANCH   5  31
BRANCH   5   3
ATOM      3  C   UNL     1      -1.616   2.527  24.877  0.00  0.00    +0.337 C 
ATOM      4  O   UNL     1      -1.673   2.916  24.152  0.00  0.00    -0.248 OA
BRANCH   3   2
ATOM      1  C   UNL     1      -3.014   2.726  25.098  0.00  0.00    +0.256 C 
ATOM      2  O   UNL     1      -2.295   2.395  25.329  0.00  0.00    -0.443 OA
ENDBRANCH   3   2
ENDBRANCH   5   3
ENDBRANCH   6   5
ENDBRANCH   9   7
BRANCH  14  16
ATOM     16  C   UNL     1       1.804   0.408  23.226  0.00  0.00    +0.143 C 
BRANCH  16  17
ATOM     17  S   UNL     1       2.445   0.901  23.059  0.00  0.00    -0.130 S 
ATOM     18  C   UNL     1       3.124   0.590  22.709  0.00  0.00    +0.070 C 
ENDBRANCH  16  17
ENDBRANCH  14  16
TORSDOF 9
ENDMDL
MODEL 6
REMARK VINA RESULT:      -8.2      2.535      4.775
REMARK  Name = 
REMARK  9 active torsions:
REMARK  status: ('A' for Active; 'I' for Inactive)
REMARK    1  A    between atoms: O_2  and  C_3
REMARK    2  A    between atoms: C_3  and  C_5
REMARK    3  A    between atoms: C_5  and  N_6
REMARK    4  A    between atoms: C_5  and  C_31
REMARK    5  A    between atoms: C_7  and  C_9
REMARK    6  A    between atoms: C_10  and  N_19
REMARK    7  A    between atoms: C_14  and  C_16
REMARK    8  A    between atoms: C_16  and  S_17
REMARK    9  A    between atoms: N_22  and  C_23
REMARK                            x       y       z     vdW  Elec       q    Type
REMARK                         _______ _______ _______ _____ _____    ______ ____
ROOT
ATOM      9  C   UNL     1      -3.053  -0.194  24.694  0.00  0.00    +0.174 C 
ATOM     10  C   UNL     1      -3.581   0.435  24.619  0.00  0.00    +0.126 C 
ATOM     11  C   UNL     1      -4.314   0.129  24.395  0.00  0.00    +0.045 C 
ATOM     12  C   UNL     1      -4.238  -0.691  24.331  0.00  0.00    +0.096 C 
ATOM     13  N   UNL     1      -3.458  -0.890  24.516  0.00  0.00    -0.271 N 
ATOM     14  C   UNL     1      -3.141  -1.651  24.521  0.00  0.00    +0.237 C 
ATOM     15  O   UNL     1      -2.347  -1.766  24.718  0.00  0.00    -0.274 OA
ENDROOT
BRANCH  10  19
ATOM     19  N   UNL     1      -3.408   1.232  24.746  0.00  0.00    -0.186 NA
ATOM     20  C   UNL     1      -4.017   1.767  24.902  0.00  0.00    +0.344 C 
ATOM     21  O   UNL     1      -4.798   1.505  24.931  0.00  0.00    -0.249 OA
ATOM     22  N   UNL     1      -3.843   2.563  25.029  0.00  0.00    -0.159 NA
BRANCH  22  23
ATOM     23  C   UNL     1      -4.452   3.098  25.185  0.00  0.00    +0.102 A 
ATOM     24  C   UNL     1      -4.423   3.859  24.866  0.00  0.00    +0.158 A 
ATOM     25  F   UNL     1      -3.787   4.085  24.392  0.00  0.00    -0.203 F 
ATOM     26  C   UNL     1      -5.032   4.394  25.022  0.00  0.00    +0.061 A 
ATOM     27  C   UNL     1      -5.669   4.168  25.496  0.00  0.00    +0.142 A 
ATOM     28  F   UNL     1      -6.278   4.703  25.651  0.00  0.00    -0.204 F 
ATOM     29  C   UNL     1      -5.697   3.408  25.814  0.00  0.00    +0.031 A 
ATOM     30  C   UNL     1      -5.088   2.873  25.659  0.00  0.00    +0.021 A 
ENDBRANCH  22  23
ENDBRANCH  10  19
BRANCH   9   7
ATOM      6  N   UNL     1      -1.727   0.264  24.420  0.00  0.00    -0.194 NA
ATOM      7  C   UNL     1      -2.258  -0.137  24.909  0.00  0.00    +0.262 C 
ATOM      8  O   UNL     1      -1.995  -0.480  25.611  0.00  0.00    -0.271 OA
BRANCH   6   5
ATOM      5  C   UNL     1      -0.932   0.321  24.635  0.00  0.00    +0.193 C 
BRANCH   5  31
ATOM     31  C   UNL     1      -0.362  -0.117  24.230  0.00  0.00    +0.031 C 
ATOM     32  C   UNL     1      -0.161   0.084  23.455  0.00  0.00    +0.002 C 
ATOM     33  C   UNL     1       0.006  -0.757  24.598  0.00  0.00    +0.002 C 
ENDBRANCH   5  31
BRANCH   5   3
ATOM      3  C   UNL     1      -0.708   0.816  25.256  0.00  0.00    +0.337 C 
ATOM      4  O   UNL     1      -0.642   0.516  26.021  0.00  0.00    -0.248 OA
BRANCH   3   2
ATOM      1  C   UNL     1      -0.274   2.096  25.719  0.00  0.00    +0.256 C 
ATOM      2  O   UNL     1      -0.549   1.613  25.110  0.00  0.00    -0.443 OA
ENDBRANCH   3   2
ENDBRANCH   5   3
ENDBRANCH   6   5
ENDBRANCH   9   7
BRANCH  14  16
ATOM     16  C   UNL     1      -3.615  -2.298  24.330  0.00  0.00    +0.143 C 
BRANCH  16  17
ATOM     17  S   UNL     1      -3.312  -3.063  24.388  0.00  0.00    -0.130 S 
ATOM     18  C   UNL     1      -3.771  -3.708  24.155  0.00  0.00    +0.070 C 
ENDBRANCH  16  17
ENDBRANCH  14  16
TORSDOF 9
ENDMDL
MODEL 7
REMARK VINA RESULT:      -8.0     16.294     18.750
REMARK  Name = 
REMARK  9 active torsions:
REMARK  status: ('A' for Active; 'I' for Inactive)
REMARK    1  A    between atoms: O_2  and  C_3
REMARK    2  A    between atoms: C_3  and  C_5
REMARK    3  A    between atoms: C_5  and  N_6
REMARK    4  A    between atoms: C_5  and  C_31
REMARK    5  A    between atoms: C_7  and  C_9
REMARK    6  A    between atoms: C_10  and  N_19
REMARK    7  A    between atoms: C_14  and  C_16
REMARK    8  A    between atoms: C_16  and  S_17
REMARK    9  A    between atoms: N_22  and  C_23
REMARK                            x       y       z     vdW  Elec       q    Type
REMARK                         _______ _______ _______ _____ _____    ______ ____
ROOT
ATOM      9  C   UNL     1      13.763   7.446  18.779  0.00  0.00    +0.174 C 
ATOM     10  C   UNL     1      13.059   7.166  19.103  0.00  0.00    +0.126 C 
ATOM     11  C   UNL     1      12.466   7.249  18.535  0.00  0.00    +0.045 C 
ATOM     12  C   UNL     1      12.805   7.580  17.859  0.00  0.00    +0.096 C 
ATOM     13  N   UNL     1      13.607   7.702  18.011  0.00  0.00    -0.271 N 
ATOM     14  C   UNL     1      14.156   8.023  17.485  0.00  0.00    +0.237 C 
ATOM     15  O   UNL     1      14.944   8.111  17.715  0.00  0.00    -0.274 OA
ENDROOT
BRANCH  10  19
ATOM     19  N   UNL     1      12.962   6.857  19.862  0.00  0.00    -0.186 NA
ATOM     20  C   UNL     1      12.252   6.970  20.267  0.00  0.00    +0.344 C 
ATOM     21  O   UNL     1      11.638   7.393  19.913  0.00  0.00    -0.249 OA
ATOM     22  N   UNL     1      12.156   6.661  21.026  0.00  0.00    -0.159 NA
BRANCH  22  23
ATOM     23  C   UNL     1      11.446   6.775  21.430  0.00  0.00    +0.102 A 
ATOM     24  C   UNL     1      10.997   6.124  21.664  0.00  0.00    +0.158 A 
ATOM     25  F   UNL     1      11.257   5.360  21.494  0.00  0.00    -0.203 F 
ATOM     26  C   UNL     1      10.286   6.237  22.069  0.00  0.00    +0.061 A 
ATOM     27  C   UNL     1      10.027   7.001  22.240  0.00  0.00    +0.142 A 
ATOM     28  F   UNL     1       9.316   7.115  22.645  0.00  0.00    -0.204 F 
ATOM     29  C   UNL     1      10.476   7.652  22.006  0.00  0.00    +0.031 A 
ATOM     30  C   UNL     1      11.186   7.539  21.601  0.00  0.00    +0.021 A 
ENDBRANCH  22  23
ENDBRANCH  10  19
BRANCH   9   7
ATOM      6  N   UNL     1      14.866   6.761  19.378  0.00  0.00    -0.194 NA
ATOM      7  C   UNL     1      14.497   7.465  19.157  0.00  0.00    +0.262 C 
ATOM      8  O   UNL     1      14.861   8.189  19.314  0.00  0.00    -0.271 OA
BRANCH   6   5
ATOM      5  C   UNL     1      15.599   6.781  19.756  0.00  0.00    +0.193 C 
BRANCH   5  31
ATOM     31  C   UNL     1      15.648   6.999  20.551  0.00  0.00    +0.031 C 
ATOM     32  C   UNL     1      15.865   7.769  20.755  0.00  0.00    +0.002 C 
ATOM     33  C   UNL     1      15.480   6.448  21.141  0.00  0.00    +0.002 C 
ENDBRANCH   5  31
BRANCH   5   3
ATOM      3  C   UNL     1      16.283   6.583  19.340  0.00  0.00    +0.337 C 
ATOM      4  O   UNL     1      16.929   7.096  19.339  0.00  0.00    -0.248 OA
BRANCH   3   2
ATOM      1  C   UNL     1      17.029   5.636  18.573  0.00  0.00    +0.256 C 
ATOM      2  O   UNL     1      16.320   5.871  18.923  0.00  0.00    -0.443 OA
ENDBRANCH   3   2
ENDBRANCH   5   3
ENDBRANCH   6   5
ENDBRANCH   9   7
BRANCH  14  16
ATOM     16  C   UNL     1      13.919   8.256  16.731  0.00  0.00    +0.143 C 
BRANCH  16  17
ATOM     17  S   UNL     1      14.453   8.635  16.229  0.00  0.00    -0.130 S 
ATOM     18  C   UNL     1      14.194   8.950  15.512  0.00  0.00    +0.070 C 
ENDBRANCH  16  17
ENDBRANCH  14  16
TORSDOF 9
ENDMDL
MODEL 8
REMARK VINA RESULT:      -7.0     16.181     18.632
REMARK  Name = 
REMARK  9 active torsions:
REMARK  status: ('A' for Active; 'I' for Inactive)
REMARK    1  A    between atoms: O_2  and  C_3
REMARK    2  A    between atoms: C_3  and  C_5
REMARK    3  A    between atoms: C_5  and  N_6
REMARK    4  A    between atoms: C_5  and  C_31
REMARK    5  A    between atoms: C_7  and  C_9
REMARK    6  A    between atoms: C_10  and  N_19
REMARK    7  A    between atoms: C_14  and  C_16
REMARK    8  A    between atoms: C_16  and  S_17
REMARK    9  A    between atoms: N_22  and  C_23
REMARK                            x       y       z     vdW  Elec       q    Type
REMARK                         _______ _______ _______ _____ _____    ______ ____
ROOT
ATOM      9  C   UNL     1      13.609   7.695  19.743  0.00  0.00    +0.174 C 
ATOM     10  C   UNL     1      13.449   8.024  19.005  0.00  0.00    +0.126 C 
ATOM     11  C   UNL     1      14.083   7.851  18.505  0.00  0.00    +0.045 C 
ATOM     12  C   UNL     1      14.634   7.413  18.936  0.00  0.00    +0.096 C 
ATOM     13  N   UNL     1      14.341   7.317  19.701  0.00  0.00    -0.271 N 
ATOM     14  C   UNL     1      14.715   6.914  20.316  0.00  0.00    +0.237 C 
ATOM     15  O   UNL     1      14.353   6.863  21.056  0.00  0.00    -0.274 OA
ENDROOT
BRANCH  10  19
ATOM     19  N   UNL     1      12.775   8.453  18.800  0.00  0.00    -0.186 NA
ATOM     20  C   UNL     1      12.511   8.460  18.018  0.00  0.00    +0.344 C 
ATOM     21  O   UNL     1      12.923   8.039  17.440  0.00  0.00    -0.249 OA
ATOM     22  N   UNL     1      11.837   8.889  17.814  0.00  0.00    -0.159 NA
BRANCH  22  23
ATOM     23  C   UNL     1      11.573   8.896  17.032  0.00  0.00    +0.102 A 
ATOM     24  C   UNL     1      10.787   8.714  16.860  0.00  0.00    +0.158 A 
ATOM     25  F   UNL     1      10.265   8.525  17.470  0.00  0.00    -0.203 F 
ATOM     26  C   UNL     1      10.524   8.721  16.078  0.00  0.00    +0.061 A 
ATOM     27  C   UNL     1      11.047   8.911  15.469  0.00  0.00    +0.142 A 
ATOM     28  F   UNL     1      10.783   8.918  14.686  0.00  0.00    -0.204 F 
ATOM     29  C   UNL     1      11.833   9.093  15.640  0.00  0.00    +0.031 A 
ATOM     30  C   UNL     1      12.096   9.086  16.423  0.00  0.00    +0.021 A 
ENDBRANCH  22  23
ENDBRANCH  10  19
BRANCH   9   7
ATOM      6  N   UNL     1      12.348   7.453  20.370  0.00  0.00    -0.194 NA
ATOM      7  C   UNL     1      13.122   7.736  20.409  0.00  0.00    +0.262 C 
ATOM      8  O   UNL     1      13.409   8.059  21.111  0.00  0.00    -0.271 OA
BRANCH   6   5
ATOM      5  C   UNL     1      11.861   7.494  21.035  0.00  0.00    +0.193 C 
BRANCH   5  31
ATOM     31  C   UNL     1      11.523   8.213  21.256  0.00  0.00    +0.031 C 
ATOM     32  C   UNL     1      11.873   8.668  21.850  0.00  0.00    +0.002 C 
ATOM     33  C   UNL     1      10.837   8.479  20.884  0.00  0.00    +0.002 C 
ENDBRANCH   5  31
BRANCH   5   3
ATOM      3  C   UNL     1      11.711   6.814  21.478  0.00  0.00    +0.337 C 
ATOM      4  O   UNL     1      11.855   6.811  22.291  0.00  0.00    -0.248 OA
BRANCH   3   2
ATOM      1  C   UNL     1      11.057   5.546  21.557  0.00  0.00    +0.256 C 
ATOM      2  O   UNL     1      11.418   6.137  21.108  0.00  0.00    -0.443 OA
ENDBRANCH   3   2
ENDBRANCH   5   3
ENDBRANCH   6   5
ENDBRANCH   9   7
BRANCH  14  16
ATOM     16  C   UNL     1      15.450   6.561  20.192  0.00  0.00    +0.143 C 
BRANCH  16  17
ATOM     17  S   UNL     1      15.977   6.474  20.821  0.00  0.00    -0.130 S 
ATOM     18  C   UNL     1      16.717   6.132  20.696  0.00  0.00    +0.070 C 
ENDBRANCH  16  17
ENDBRANCH  14  16
TORSDOF 9
ENDMDL
MODEL 9
REMARK VINA RESULT:      -5.8     16.050     18.511
REMARK  Name = 
REMARK  9 active torsions:
REMARK  status: ('A' for Active; 'I' for Inactive)
REMARK    1  A    between atoms: O_2  and  C_3
REMARK    2  A    between atoms: C_3  and  C_5
REMARK    3  A    between atoms: C_5  and  N_6
REMARK    4  A    between atoms: C_5  and  C_31
REMARK    5  A    between atoms: C_7  and  C_9
REMARK    6  A    between atoms: C_10  and  N_19
REMARK    7  A    between atoms: C_14  and  C_16
REMARK    8  A    between atoms: C_16  and  S_17
REMARK    9  A    between atoms: N_22  and  C_23
REMARK                            x       y       z     vdW  Elec       q    Type
REMARK                         _______ _______ _______ _____ _____    ______ ____
ROOT
ATOM      9  C   UNL     1      12.417   8.458  19.200  0.00  0.00    +0.174 C 
ATOM     10  C   UNL     1      13.241   8.415  19.220  0.00  0.00    +0.126 C 
ATOM     11  C   UNL     1      13.515   8.421  18.441  0.00  0.00    +0.045 C 
ATOM     12  C   UNL     1      12.860   8.468  17.941  0.00  0.00    +0.096 C 
ATOM     13  N   UNL     1      12.182   8.490  18.410  0.00  0.00    -0.271 N 
ATOM     14  C   UNL     1      11.405   8.538  18.137  0.00  0.00    +0.237 C 
ATOM     15  O   UNL     1      10.779   8.556  18.675  0.00  0.00    -0.274 OA
ENDROOT
BRANCH  10  19
ATOM     19  N   UNL     1      13.709   8.373  19.898  0.00  0.00    -0.186 NA
ATOM     20  C   UNL     1      14.355   7.860  19.923  0.00  0.00    +0.344 C 
ATOM     21  O   UNL     1      14.533   7.389  19.270  0.00  0.00    -0.249 OA
ATOM     22  N   UNL     1      14.822   7.819  20.602  0.00  0.00    -0.159 NA
BRANCH  22  23
ATOM     23  C   UNL     1      15.468   7.306  20.627  0.00  0.00    +0.102 A 
ATOM     24  C   UNL     1      15.506   6.719  21.205  0.00  0.00    +0.158 A 
ATOM     25  F   UNL     1      14.898   6.645  21.758  0.00  0.00    -0.203 F 
ATOM     26  C   UNL     1      16.152   6.206  21.230  0.00  0.00    +0.061 A 
ATOM     27  C   UNL     1      16.759   6.280  20.677  0.00  0.00    +0.142 A 
ATOM     28  F   UNL     1      17.405   5.767  20.703  0.00  0.00    -0.204 F 
ATOM     29  C   UNL     1      16.722   6.867  20.099  0.00  0.00    +0.031 A 
ATOM     30  C   UNL     1      16.076   7.381  20.074  0.00  0.00    +0.021 A 
ENDBRANCH  22  23
ENDBRANCH  10  19
BRANCH   9   7
ATOM      6  N   UNL     1      11.942   7.849  20.402  0.00  0.00    -0.194 NA
ATOM      7  C   UNL     1      11.917   8.467  19.856  0.00  0.00    +0.262 C 
ATOM      8  O   UNL     1      11.391   9.094  19.966  0.00  0.00    -0.271 OA
BRANCH   6   5
ATOM      5  C   UNL     1      11.441   7.858  21.059  0.00  0.00    +0.193 C 
BRANCH   5  31
ATOM     31  C   UNL     1      11.353   8.549  21.501  0.00  0.00    +0.031 C 
ATOM     32  C   UNL     1      11.948   8.784  22.023  0.00  0.00    +0.002 C 
ATOM     33  C   UNL     1      10.671   9.006  21.423  0.00  0.00    +0.002 C 
ENDBRANCH   5  31
BRANCH   5   3
ATOM      3  C   UNL     1      11.029   7.176  21.271  0.00  0.00    +0.337 C 
ATOM      4  O   UNL     1      10.205   7.188  21.316  0.00  0.00    -0.248 OA
BRANCH   3   2
ATOM      1  C   UNL     1      11.033   5.768  21.515  0.00  0.00    +0.256 C 
ATOM      2  O   UNL     1      11.441   6.481  21.439  0.00  0.00    -0.443 OA
ENDBRANCH   3   2
ENDBRANCH   5   3
ENDBRANCH   6   5
ENDBRANCH   9   7
BRANCH  14  16
ATOM     16  C   UNL     1      11.253   8.566  17.327  0.00  0.00    +0.143 C 
BRANCH  16  17
ATOM     17  S   UNL     1      10.496   8.402  17.043  0.00  0.00    -0.130 S 
ATOM     18  C   UNL     1      10.327   8.491  16.241  0.00  0.00    +0.070 C 
ENDBRANCH  16  17
ENDBRANCH  14  16
TORSDOF 9
ENDMDL
