MODEL 1
REMARK VINA RESULT:      -9.0      0.000      0.000
REMARK  Name = 
REMARK  8 active torsions:
REMARK  status: ('A' for Active; 'I' for Inactive)
REMARK    1  A    between atoms: O_2  and  C_3
REMARK    2  A    between atoms: C_3  and  C_4
REMARK    3  A    between atoms: C_4  and  N_5
REMARK    4  A    between atoms: N_5  and  C_6
REMARK    5  A    between atoms: C_9  and  C_12
REMARK    6  A    between atoms: C_15  and  C_17
REMARK    7  A    between atoms: N_21  and  C_22
REMARK    8  A    between atoms: C_22  and  C_23
REMARK                            x       y       z     vdW  Elec       q    Type
REMARK                         _______ _______ _______ _____ _____    ______ ____
ROOT
ATOM     12  C   UNL     1      -1.036   0.111  24.506  0.00  0.00    +0.205 A 
ATOM     13  N   UNL     1      -1.071   0.098  25.330  0.00  0.00    -0.056 NA
ATOM     14  O   UNL     1      -1.866   0.100  25.552  0.00  0.00    -0.336 OA
ATOM     15  C   UNL     1      -2.322   0.114  24.864  0.00  0.00    +0.251 A 
ATOM     16  N   UNL     1      -1.809   0.120  24.218  0.00  0.00    -0.190 NA
ENDROOT
BRANCH  12   9
ATOM      6  C   UNL     1       1.027   0.119  23.138  0.00  0.00    +0.148 A 
ATOM      7  C   UNL     1       0.672   0.833  23.354  0.00  0.00    +0.036 A 
ATOM      8  C   UNL     1      -0.016   0.830  23.810  0.00  0.00    +0.008 A 
ATOM      9  C   UNL     1      -0.348   0.114  24.050  0.00  0.00    +0.058 A 
ATOM     10  C   UNL     1       0.006  -0.599  23.834  0.00  0.00    +0.103 A 
ATOM     11  N   UNL     1       0.693  -0.596  23.378  0.00  0.00    -0.228 NA
BRANCH   6   5
ATOM      5  N   UNL     1       1.714   0.122  22.682  0.00  0.00    -0.218 NA
BRANCH   5   4
ATOM      4  C   UNL     1       2.413   0.430  22.991  0.00  0.00    +0.146 C 
BRANCH   4   3
ATOM      3  C   UNL     1       3.119   0.354  22.572  0.00  0.00    +0.166 C 
BRANCH   3   2
ATOM      1  C   UNL     1       4.499   0.518  22.909  0.00  0.00    +0.174 C 
ATOM      2  O   UNL     1       3.759   0.845  22.748  0.00  0.00    -0.349 OA
ENDBRANCH   3   2
ENDBRANCH   4   3
ENDBRANCH   5   4
ENDBRANCH   6   5
ENDBRANCH  12   9
BRANCH  15  17
ATOM     17  C   UNL     1      -3.146   0.120  24.829  0.00  0.00    +0.138 C 
ATOM     18  C   UNL     1      -3.636  -0.545  24.828  0.00  0.00    +0.027 C 
ATOM     19  C   UNL     1      -4.418  -0.284  24.787  0.00  0.00    +0.019 C 
ATOM     20  C   UNL     1      -4.411   0.540  24.762  0.00  0.00    +0.073 C 
ATOM     21  N   UNL     1      -3.625   0.790  24.788  0.00  0.00    -0.263 NA
BRANCH  21  22
ATOM     22  C   UNL     1      -3.364   1.572  24.776  0.00  0.00    +0.099 C 
BRANCH  22  23
ATOM     23  C   UNL     1      -3.895   2.187  24.918  0.00  0.00    -0.006 A 
ATOM     24  C   UNL     1      -4.289   2.546  24.288  0.00  0.00    -0.002 A 
ATOM     25  C   UNL     1      -4.820   3.161  24.430  0.00  0.00    +0.011 A 
ATOM     26  C   UNL     1      -4.959   3.416  25.201  0.00  0.00    +0.058 A 
ATOM     27 CL   UNL     1      -5.491   4.031  25.344  0.00  0.00    -0.082 Cl
ATOM     28  C   UNL     1      -4.566   3.057  25.832  0.00  0.00    +0.011 A 
ATOM     29  C   UNL     1      -4.034   2.442  25.690  0.00  0.00    -0.002 A 
ENDBRANCH  22  23
ENDBRANCH  21  22
ENDBRANCH  15  17
TORSDOF 8
ENDMDL
MODEL 2
REMARK VINA RESULT:      -8.5      2.363      3.802
REMARK  Name = 
REMARK  8 active torsions:
REMARK  status: ('A' for Active; 'I' for Inactive)
REMARK    1  A    between atoms: O_2  and  C_3
REMARK    2  A    between atoms: C_3  and  C_4
REMARK    3  A    between atoms: C_4  and  N_5
REMARK    4  A    between atoms: N_5  and  C_6
REMARK    5  A    between atoms: C_9  and  C_12
REMARK    6  A    between atoms: C_15  and  C_17
REMARK    7  A    between atoms: N_21  and  C_22
REMARK    8  A    between atoms: C_22  and  C_23
REMARK                            x       y       z     vdW  Elec       q    Type
REMARK                         _______ _______ _______ _____ _____    ______ ____
ROOT
ATOM     12  C   UNL     1      -0.515   1.674  25.272  0.00  0.00    +0.205 A 
ATOM     13  N   UNL     1       0.155   2.010  25.617  0.00  0.00    -0.056 NA
ATOM     14  O   UNL     1       0.044   2.827  25.645  0.00  0.00    -0.336 OA
ATOM     15  C   UNL     1      -0.694   2.996  25.317  0.00  0.00    +0.251 A 
ATOM     16  N   UNL     1      -1.039   2.283  25.086  0.00  0.00    -0.190 NA
ENDROOT
BRANCH  12   9
ATOM      6  C   UNL     1      -0.886  -0.739  24.864  0.00  0.00    +0.148 A 
ATOM      7  C   UNL     1      -1.079  -0.409  25.596  0.00  0.00    +0.036 A 
ATOM      8  C   UNL     1      -0.956   0.395  25.732  0.00  0.00    +0.008 A 
ATOM      9  C   UNL     1      -0.639   0.869  25.136  0.00  0.00    +0.058 A 
ATOM     10  C   UNL     1      -0.446   0.540  24.405  0.00  0.00    +0.103 A 
ATOM     11  N   UNL     1      -0.569  -0.264  24.269  0.00  0.00    -0.228 NA
BRANCH   6   5
ATOM      5  N   UNL     1      -1.009  -1.544  24.729  0.00  0.00    -0.218 NA
BRANCH   5   4
ATOM      4  C   UNL     1      -1.718  -1.801  24.395  0.00  0.00    +0.146 C 
BRANCH   4   3
ATOM      3  C   UNL     1      -1.979  -2.573  24.527  0.00  0.00    +0.166 C 
BRANCH   3   2
ATOM      1  C   UNL     1      -3.343  -3.000  24.526  0.00  0.00    +0.174 C 
ATOM      2  O   UNL     1      -2.638  -2.860  24.121  0.00  0.00    -0.349 OA
ENDBRANCH   3   2
ENDBRANCH   4   3
ENDBRANCH   5   4
ENDBRANCH   6   5
ENDBRANCH  12   9
BRANCH  15  17
ATOM     17  C   UNL     1      -1.027   3.746  25.233  0.00  0.00    +0.138 C 
ATOM     18  C   UNL     1      -0.660   4.406  24.901  0.00  0.00    +0.027 C 
ATOM     19  C   UNL     1      -1.193   5.036  24.930  0.00  0.00    +0.019 C 
ATOM     20  C   UNL     1      -1.889   4.765  25.280  0.00  0.00    +0.073 C 
ATOM     21  N   UNL     1      -1.787   3.967  25.467  0.00  0.00    -0.263 NA
BRANCH  21  22
ATOM     22  C   UNL     1      -2.346   3.478  25.826  0.00  0.00    +0.099 C 
BRANCH  22  23
ATOM     23  C   UNL     1      -3.150   3.620  25.713  0.00  0.00    -0.006 A 
ATOM     24  C   UNL     1      -3.528   3.340  25.034  0.00  0.00    -0.002 A 
ATOM     25  C   UNL     1      -4.332   3.481  24.922  0.00  0.00    +0.011 A 
ATOM     26  C   UNL     1      -4.760   3.902  25.487  0.00  0.00    +0.058 A 
ATOM     27 CL   UNL     1      -5.566   4.044  25.375  0.00  0.00    -0.082 Cl
ATOM     28  C   UNL     1      -4.384   4.182  26.166  0.00  0.00    +0.011 A 
ATOM     29  C   UNL     1      -3.579   4.040  26.279  0.00  0.00    -0.002 A 
ENDBRANCH  22  23
ENDBRANCH  21  22
ENDBRANCH  15  17
TORSDOF 8
ENDMDL
MODEL 3
REMARK VINA RESULT:      -8.3      1.324      1.981
REMARK  Name = 
REMARK  8 active torsions:
REMARK  status: ('A' for Active; 'I' for Inactive)
REMARK    1  A    between atoms: O_2  and  C_3
REMARK    2  A    between atoms: C_3  and  C_4
REMARK    3  A    between atoms: C_4  and  N_5
REMARK    4  A    between atoms: N_5  and  C_6
REMARK    5  A    between atoms: C_9  and  C_12
REMARK    6  A    between atoms: C_15  and  C_17
REMARK    7  A    between atoms: N_21  and  C_22
REMARK    8  A    between atoms: C_22  and  C_23
REMARK                            x       y       z     vdW  Elec       q    Type
REMARK                         _______ _______ _______ _____ _____    ______ ____
ROOT
ATOM     12  C   UNL     1      -0.461   1.393  24.711  0.00  0.00    +0.205 A 
ATOM     13  N   UNL     1      -0.757   0.994  25.370  0.00  0.00    -0.056 NA
ATOM     14  O   UNL     1      -1.365   1.451  25.692  0.00  0.00    -0.336 OA
ATOM     15  C   UNL     1      -1.444   2.131  25.232  0.00  0.00    +0.251 A 
ATOM     16  N   UNL     1      -0.885   2.095  24.625  0.00  0.00    -0.190 NA
ENDROOT
BRANCH  12   9
ATOM      6  C   UNL     1       1.378   0.617  23.247  0.00  0.00    +0.148 A 
ATOM      7  C   UNL     1       0.688   0.170  23.315  0.00  0.00    +0.036 A 
ATOM      8  C   UNL     1       0.075   0.428  23.803  0.00  0.00    +0.008 A 
ATOM      9  C   UNL     1       0.152   1.134  24.223  0.00  0.00    +0.058 A 
ATOM     10  C   UNL     1       0.842   1.581  24.155  0.00  0.00    +0.103 A 
ATOM     11  N   UNL     1       1.455   1.323  23.667  0.00  0.00    -0.228 NA
BRANCH   6   5
ATOM      5  N   UNL     1       1.991   0.359  22.759  0.00  0.00    -0.218 NA
BRANCH   5   4
ATOM      4  C   UNL     1       2.770   0.571  22.928  0.00  0.00    +0.146 C 
BRANCH   4   3
ATOM      3  C   UNL     1       3.389   0.257  22.482  0.00  0.00    +0.166 C 
BRANCH   3   2
ATOM      1  C   UNL     1       4.741   0.315  22.942  0.00  0.00    +0.174 C 
ATOM      2  O   UNL     1       4.128   0.624  22.485  0.00  0.00    -0.349 OA
ENDBRANCH   3   2
ENDBRANCH   4   3
ENDBRANCH   5   4
ENDBRANCH   6   5
ENDBRANCH  12   9
BRANCH  15  17
ATOM     17  C   UNL     1      -1.986   2.739  25.355  0.00  0.00    +0.138 C 
ATOM     18  C   UNL     1      -1.833   3.455  25.736  0.00  0.00    +0.027 C 
ATOM     19  C   UNL     1      -2.530   3.898  25.737  0.00  0.00    +0.019 C 
ATOM     20  C   UNL     1      -3.113   3.456  25.356  0.00  0.00    +0.073 C 
ATOM     21  N   UNL     1      -2.777   2.740  25.121  0.00  0.00    -0.263 NA
BRANCH  21  22
ATOM     22  C   UNL     1      -3.165   2.132  24.721  0.00  0.00    +0.099 C 
BRANCH  22  23
ATOM     23  C   UNL     1      -3.984   2.055  24.780  0.00  0.00    -0.006 A 
ATOM     24  C   UNL     1      -4.310   1.484  25.278  0.00  0.00    -0.002 A 
ATOM     25  C   UNL     1      -5.129   1.407  25.337  0.00  0.00    +0.011 A 
ATOM     26  C   UNL     1      -5.622   1.901  24.898  0.00  0.00    +0.058 A 
ATOM     27 CL   UNL     1      -6.442   1.825  24.957  0.00  0.00    -0.082 Cl
ATOM     28  C   UNL     1      -5.297   2.473  24.400  0.00  0.00    +0.011 A 
ATOM     29  C   UNL     1      -4.477   2.549  24.341  0.00  0.00    -0.002 A 
ENDBRANCH  22  23
ENDBRANCH  21  22
ENDBRANCH  15  17
TORSDOF 8
ENDMDL
MODEL 4
REMARK VINA RESULT:      -8.2      3.135      4.111
REMARK  Name = 
REMARK  8 active torsions:
REMARK  status: ('A' for Active; 'I' for Inactive)
REMARK    1  A    between atoms: O_2  and  C_3
REMARK    2  A    between atoms: C_3  and  C_4
REMARK    3  A    between atoms: C_4  and  N_5
REMARK    4  A    between atoms: N_5  and  C_6
REMARK    5  A    between atoms: C_9  and  C_12
REMARK    6  A    between atoms: C_15  and  C_17
REMARK    7  A    between atoms: N_21  and  C_22
REMARK    8  A    between atoms: C_22  and  C_23
REMARK                            x       y       z     vdW  Elec       q    Type
REMARK                         _______ _______ _______ _____ _____    ______ ____
ROOT
ATOM     12  C   UNL     1      -2.019   2.169  25.034  0.00  0.00    +0.205 A 
ATOM     13  N   UNL     1      -2.203   2.466  24.286  0.00  0.00    -0.056 NA
ATOM     14  O   UNL     1      -2.950   2.185  24.077  0.00  0.00    -0.336 OA
ATOM     15  C   UNL     1      -3.228   1.714  24.695  0.00  0.00    +0.251 A 
ATOM     16  N   UNL     1      -2.652   1.704  25.287  0.00  0.00    -0.190 NA
ENDROOT
BRANCH  12   9
ATOM      6  C   UNL     1       0.066   2.597  26.297  0.00  0.00    +0.148 A 
ATOM      7  C   UNL     1      -0.486   3.203  26.193  0.00  0.00    +0.036 A 
ATOM      8  C   UNL     1      -1.181   3.060  25.772  0.00  0.00    +0.008 A 
ATOM      9  C   UNL     1      -1.324   2.312  25.455  0.00  0.00    +0.058 A 
ATOM     10  C   UNL     1      -0.774   1.707  25.559  0.00  0.00    +0.103 A 
ATOM     11  N   UNL     1      -0.079   1.849  25.980  0.00  0.00    -0.228 NA
BRANCH   6   5
ATOM      5  N   UNL     1       0.761   2.740  26.718  0.00  0.00    -0.218 NA
BRANCH   5   4
ATOM      4  C   UNL     1       0.795   2.576  27.525  0.00  0.00    +0.146 C 
BRANCH   4   3
ATOM      3  C   UNL     1       1.498   2.692  27.940  0.00  0.00    +0.166 C 
BRANCH   3   2
ATOM      1  C   UNL     1       2.228   2.642  29.169  0.00  0.00    +0.174 C 
ATOM      2  O   UNL     1       1.511   2.612  28.762  0.00  0.00    -0.349 OA
ENDBRANCH   3   2
ENDBRANCH   4   3
ENDBRANCH   5   4
ENDBRANCH   6   5
ENDBRANCH  12   9
BRANCH  15  17
ATOM     17  C   UNL     1      -3.953   1.322  24.718  0.00  0.00    +0.138 C 
ATOM     18  C   UNL     1      -4.667   1.638  24.986  0.00  0.00    +0.027 C 
ATOM     19  C   UNL     1      -5.248   1.056  24.910  0.00  0.00    +0.019 C 
ATOM     20  C   UNL     1      -4.893   0.381  24.597  0.00  0.00    +0.073 C 
ATOM     21  N   UNL     1      -4.092   0.545  24.478  0.00  0.00    -0.263 NA
BRANCH  21  22
ATOM     22  C   UNL     1      -3.531   0.024  24.172  0.00  0.00    +0.099 C 
BRANCH  22  23
ATOM     23  C   UNL     1      -3.642  -0.790  24.244  0.00  0.00    -0.006 A 
ATOM     24  C   UNL     1      -3.328  -1.194  24.892  0.00  0.00    -0.002 A 
ATOM     25  C   UNL     1      -3.439  -2.008  24.964  0.00  0.00    +0.011 A 
ATOM     26  C   UNL     1      -3.863  -2.419  24.388  0.00  0.00    +0.058 A 
ATOM     27 CL   UNL     1      -3.973  -3.234  24.459  0.00  0.00    -0.082 Cl
ATOM     28  C   UNL     1      -4.176  -2.016  23.740  0.00  0.00    +0.011 A 
ATOM     29  C   UNL     1      -4.065  -1.201  23.668  0.00  0.00    -0.002 A 
ENDBRANCH  22  23
ENDBRANCH  21  22
ENDBRANCH  15  17
TORSDOF 8
ENDMDL
MODEL 5
REMARK VINA RESULT:      -8.2      1.739      2.052
REMARK  Name = 
REMARK  8 active torsions:
REMARK  status: ('A' for Active; 'I' for Inactive)
REMARK    1  A    between atoms: O_2  and  C_3
REMARK    2  A    between atoms: C_3  and  C_4
REMARK    3  A    between atoms: C_4  and  N_5
REMARK    4  A    between atoms: N_5  and  C_6
REMARK    5  A    between atoms: C_9  and  C_12
REMARK    6  A    between atoms: C_15  and  C_17
REMARK    7  A    between atoms: N_21  and  C_22
REMARK    8  A    between atoms: C_22  and  C_23
REMARK                            x       y       z     vdW  Elec       q    Type
REMARK                         _______ _______ _______ _____ _____    ______ ____
ROOT
ATOM     12  C   UNL     1      -0.243   0.461  23.836  0.00  0.00    +0.205 A 
ATOM     13  N   UNL     1      -0.556  -0.022  24.428  0.00  0.00    -0.056 NA
ATOM     14  O   UNL     1      -1.319   0.243  24.597  0.00  0.00    -0.336 OA
ATOM     15  C   UNL     1      -1.478   0.890  24.110  0.00  0.00    +0.251 A 
ATOM     16  N   UNL     1      -0.813   1.024  23.640  0.00  0.00    -0.190 NA
ENDROOT
BRANCH  12   9
ATOM      6  C   UNL     1       2.007   0.256  22.827  0.00  0.00    +0.148 A 
ATOM      7  C   UNL     1       1.428  -0.310  22.664  0.00  0.00    +0.036 A 
ATOM      8  C   UNL     1       0.678  -0.242  23.000  0.00  0.00    +0.008 A 
ATOM      9  C   UNL     1       0.507   0.393  23.500  0.00  0.00    +0.058 A 
ATOM     10  C   UNL     1       1.085   0.958  23.663  0.00  0.00    +0.103 A 
ATOM     11  N   UNL     1       1.835   0.889  23.327  0.00  0.00    -0.228 NA
BRANCH   6   5
ATOM      5  N   UNL     1       2.758   0.187  22.491  0.00  0.00    -0.218 NA
BRANCH   5   4
ATOM      4  C   UNL     1       3.415   0.488  22.886  0.00  0.00    +0.146 C 
BRANCH   4   3
ATOM      3  C   UNL     1       4.174   0.261  22.657  0.00  0.00    +0.166 C 
BRANCH   3   2
ATOM      1  C   UNL     1       5.405   0.125  23.371  0.00  0.00    +0.174 C 
ATOM      2  O   UNL     1       4.834   0.603  23.016  0.00  0.00    -0.349 OA
ENDBRANCH   3   2
ENDBRANCH   4   3
ENDBRANCH   5   4
ENDBRANCH   6   5
ENDBRANCH  12   9
BRANCH  15  17
ATOM     17  C   UNL     1      -2.178   1.325  24.096  0.00  0.00    +0.138 C 
ATOM     18  C   UNL     1      -2.842   1.162  23.633  0.00  0.00    +0.027 C 
ATOM     19  C   UNL     1      -3.412   1.737  23.793  0.00  0.00    +0.019 C 
ATOM     20  C   UNL     1      -3.101   2.255  24.354  0.00  0.00    +0.073 C 
ATOM     21  N   UNL     1      -2.338   2.001  24.541  0.00  0.00    -0.263 NA
BRANCH  21  22
ATOM     22  C   UNL     1      -1.826   2.360  25.079  0.00  0.00    +0.099 C 
BRANCH  22  23
ATOM     23  C   UNL     1      -1.816   3.181  25.154  0.00  0.00    -0.006 A 
ATOM     24  C   UNL     1      -1.227   3.623  24.780  0.00  0.00    -0.002 A 
ATOM     25  C   UNL     1      -1.217   4.444  24.855  0.00  0.00    +0.011 A 
ATOM     26  C   UNL     1      -1.795   4.825  25.304  0.00  0.00    +0.058 A 
ATOM     27 CL   UNL     1      -1.785   5.647  25.379  0.00  0.00    -0.082 Cl
ATOM     28  C   UNL     1      -2.384   4.384  25.678  0.00  0.00    +0.011 A 
ATOM     29  C   UNL     1      -2.394   3.562  25.603  0.00  0.00    -0.002 A 
ENDBRANCH  22  23
ENDBRANCH  21  22
ENDBRANCH  15  17
TORSDOF 8
ENDMDL
MODEL 6
REMARK VINA RESULT:      -8.1      1.973      2.966
REMARK  Name = 
REMARK  8 active torsions:
REMARK  status: ('A' for Active; 'I' for Inactive)
REMARK    1  A    between atoms: O_2  and  C_3
REMARK    2  A    between atoms: C_3  and  C_4
REMARK    3  A    between atoms: C_4  and  N_5
REMARK    4  A    between atoms: N_5  and  C_6
REMARK    5  A    between atoms: C_9  and  C_12
REMARK    6  A    between atoms: C_15  and  C_17
REMARK    7  A    between atoms: N_21  and  C_22
REMARK    8  A    between atoms: C_22  and  C_23
REMARK                            x       y       z     vdW  Elec       q    Type
REMARK                         _______ _______ _______ _____ _____    ______ ____
ROOT
ATOM     12  C   UNL     1      -0.218   1.027  24.129  0.00  0.00    +0.205 A 
ATOM     13  N   UNL     1      -0.328   1.447  24.831  0.00  0.00    -0.056 NA
ATOM     14  O   UNL     1      -1.137   1.470  24.991  0.00  0.00    -0.336 OA
ATOM     15  C   UNL     1      -1.528   1.064  24.388  0.00  0.00    +0.251 A 
ATOM     16  N   UNL     1      -0.960   0.790  23.855  0.00  0.00    -0.190 NA
ENDROOT
BRANCH  12   9
ATOM      6  C   UNL     1       1.953   0.558  23.038  0.00  0.00    +0.148 A 
ATOM      7  C   UNL     1       1.330   0.021  22.965  0.00  0.00    +0.036 A 
ATOM      8  C   UNL     1       0.606   0.177  23.329  0.00  0.00    +0.008 A 
ATOM      9  C   UNL     1       0.505   0.870  23.765  0.00  0.00    +0.058 A 
ATOM     10  C   UNL     1       1.127   1.407  23.838  0.00  0.00    +0.103 A 
ATOM     11  N   UNL     1       1.851   1.250  23.474  0.00  0.00    -0.228 NA
BRANCH   6   5
ATOM      5  N   UNL     1       2.677   0.402  22.674  0.00  0.00    -0.218 NA
BRANCH   5   4
ATOM      4  C   UNL     1       3.377   0.672  23.016  0.00  0.00    +0.146 C 
BRANCH   4   3
ATOM      3  C   UNL     1       4.102   0.371  22.763  0.00  0.00    +0.166 C 
BRANCH   3   2
ATOM      1  C   UNL     1       5.386   0.069  23.315  0.00  0.00    +0.174 C 
ATOM      2  O   UNL     1       4.801   0.619  23.126  0.00  0.00    -0.349 OA
ENDBRANCH   3   2
ENDBRANCH   4   3
ENDBRANCH   5   4
ENDBRANCH   6   5
ENDBRANCH  12   9
BRANCH  15  17
ATOM     17  C   UNL     1      -2.343   0.952  24.327  0.00  0.00    +0.138 C 
ATOM     18  C   UNL     1      -2.871   1.441  23.923  0.00  0.00    +0.027 C 
ATOM     19  C   UNL     1      -3.628   1.122  24.007  0.00  0.00    +0.019 C 
ATOM     20  C   UNL     1      -3.567   0.437  24.461  0.00  0.00    +0.073 C 
ATOM     21  N   UNL     1      -2.773   0.332  24.660  0.00  0.00    -0.263 NA
BRANCH  21  22
ATOM     22  C   UNL     1      -2.464  -0.286  25.111  0.00  0.00    +0.099 C 
BRANCH  22  23
ATOM     23  C   UNL     1      -2.775  -1.046  25.038  0.00  0.00    -0.006 A 
ATOM     24  C   UNL     1      -3.347  -1.311  25.571  0.00  0.00    -0.002 A 
ATOM     25  C   UNL     1      -3.658  -2.071  25.498  0.00  0.00    +0.011 A 
ATOM     26  C   UNL     1      -3.398  -2.567  24.893  0.00  0.00    +0.058 A 
ATOM     27 CL   UNL     1      -3.709  -3.328  24.821  0.00  0.00    -0.082 Cl
ATOM     28  C   UNL     1      -2.826  -2.303  24.360  0.00  0.00    +0.011 A 
ATOM     29  C   UNL     1      -2.515  -1.542  24.433  0.00  0.00    -0.002 A 
ENDBRANCH  22  23
ENDBRANCH  21  22
ENDBRANCH  15  17
TORSDOF 8
ENDMDL
MODEL 7
REMARK VINA RESULT:      -8.0      3.122      4.186
REMARK  Name = 
REMARK  8 active torsions:
REMARK  status: ('A' for Active; 'I' for Inactive)
REMARK    1  A    between atoms: O_2  and  C_3
REMARK    2  A    between atoms: C_3  and  C_4
REMARK    3  A    between atoms: C_4  and  N_5
REMARK    4  A    between atoms: N_5  and  C_6
REMARK    5  A    between atoms: C_9  and  C_12
REMARK    6  A    between atoms: C_15  and  C_17
REMARK    7  A    between atoms: N_21  and  C_22
REMARK    8  A    between atoms: C_22  and  C_23
REMARK                            x       y       z     vdW  Elec       q    Type
REMARK                         _______ _______ _______ _____ _____    ______ ____
ROOT
ATOM     12  C   UNL     1      -4.687   0.640  24.826  0.00  0.00    +0.205 A 
ATOM     13  N   UNL     1      -5.408   0.775  24.448  0.00  0.00    -0.056 NA
ATOM     14  O   UNL     1      -5.621   1.561  24.580  0.00  0.00    -0.336 OA
ATOM     15  C   UNL     1      -5.033   1.911  25.040  0.00  0.00    +0.251 A 
ATOM     16  N   UNL     1      -4.455   1.342  25.192  0.00  0.00    -0.190 NA
ENDROOT
BRANCH  12   9
ATOM      6  C   UNL     1      -3.440  -1.498  24.858  0.00  0.00    +0.148 A 
ATOM      7  C   UNL     1      -3.726  -1.197  24.144  0.00  0.00    +0.036 A 
ATOM      8  C   UNL     1      -4.141  -0.485  24.133  0.00  0.00    +0.008 A 
ATOM      9  C   UNL     1      -4.271  -0.073  24.837  0.00  0.00    +0.058 A 
ATOM     10  C   UNL     1      -3.986  -0.373  25.550  0.00  0.00    +0.103 A 
ATOM     11  N   UNL     1      -3.571  -1.086  25.560  0.00  0.00    -0.228 NA
BRANCH   6   5
ATOM      5  N   UNL     1      -3.024  -2.211  24.868  0.00  0.00    -0.218 NA
BRANCH   5   4
ATOM      4  C   UNL     1      -2.261  -2.247  24.560  0.00  0.00    +0.146 C 
BRANCH   4   3
ATOM      3  C   UNL     1      -1.663  -2.627  24.983  0.00  0.00    +0.166 C 
BRANCH   3   2
ATOM      1  C   UNL     1      -0.302  -2.258  25.220  0.00  0.00    +0.174 C 
ATOM      2  O   UNL     1      -0.880  -2.579  24.726  0.00  0.00    -0.349 OA
ENDBRANCH   3   2
ENDBRANCH   4   3
ENDBRANCH   5   4
ENDBRANCH   6   5
ENDBRANCH  12   9
BRANCH  15  17
ATOM     17  C   UNL     1      -5.022   2.693  25.301  0.00  0.00    +0.138 C 
ATOM     18  C   UNL     1      -5.643   3.087  25.677  0.00  0.00    +0.027 C 
ATOM     19  C   UNL     1      -5.394   3.857  25.841  0.00  0.00    +0.019 C 
ATOM     20  C   UNL     1      -4.620   3.938  25.568  0.00  0.00    +0.073 C 
ATOM     21  N   UNL     1      -4.390   3.219  25.234  0.00  0.00    -0.263 NA
BRANCH  21  22
ATOM     22  C   UNL     1      -3.657   3.056  24.894  0.00  0.00    +0.099 C 
BRANCH  22  23
ATOM     23  C   UNL     1      -3.035   3.591  24.976  0.00  0.00    -0.006 A 
ATOM     24  C   UNL     1      -2.528   3.537  25.625  0.00  0.00    -0.002 A 
ATOM     25  C   UNL     1      -1.906   4.072  25.708  0.00  0.00    +0.011 A 
ATOM     26  C   UNL     1      -1.790   4.661  25.142  0.00  0.00    +0.058 A 
ATOM     27 CL   UNL     1      -1.168   5.196  25.225  0.00  0.00    -0.082 Cl
ATOM     28  C   UNL     1      -2.297   4.715  24.493  0.00  0.00    +0.011 A 
ATOM     29  C   UNL     1      -2.920   4.180  24.411  0.00  0.00    -0.002 A 
ENDBRANCH  22  23
ENDBRANCH  21  22
ENDBRANCH  15  17
TORSDOF 8
ENDMDL
MODEL 8
REMARK VINA RESULT:      -7.2      2.451      5.701
REMARK  Name = 
REMARK  8 active torsions:
REMARK  status: ('A' for Active; 'I' for Inactive)
REMARK    1  A    between atoms: O_2  and  C_3
REMARK    2  A    between atoms: C_3  and  C_4
REMARK    3  A    between atoms: C_4  and  N_5
REMARK    4  A    between atoms: N_5  and  C_6
REMARK    5  A    between atoms: C_9  and  C_12
REMARK    6  A    between atoms: C_15  and  C_17
REMARK    7  A    between atoms: N_21  and  C_22
REMARK    8  A    between atoms: C_22  and  C_23
REMARK                            x       y       z     vdW  Elec       q    Type
REMARK                         _______ _______ _______ _____ _____    ______ ____
ROOT
ATOM     12  C   UNL     1      -1.001   2.288  24.765  0.00  0.00    +0.205 A 
ATOM     13  N   UNL     1      -0.231   2.448  25.019  0.00  0.00    -0.056 NA
ATOM     14  O   UNL     1       0.256   1.838  24.752  0.00  0.00    -0.336 OA
ATOM     15  C   UNL     1      -0.211   1.302  24.334  0.00  0.00    +0.251 A 
ATOM     16  N   UNL     1      -0.988   1.580  24.342  0.00  0.00    -0.190 NA
ENDROOT
BRANCH  12   9
ATOM      6  C   UNL     1      -2.995   3.689  25.199  0.00  0.00    +0.148 A 
ATOM      7  C   UNL     1      -2.419   3.598  25.783  0.00  0.00    +0.036 A 
ATOM      8  C   UNL     1      -1.754   3.131  25.639  0.00  0.00    +0.008 A 
ATOM      9  C   UNL     1      -1.665   2.755  24.910  0.00  0.00    +0.058 A 
ATOM     10  C   UNL     1      -2.240   2.846  24.326  0.00  0.00    +0.103 A 
ATOM     11  N   UNL     1      -2.905   3.313  24.470  0.00  0.00    -0.228 NA
BRANCH   6   5
ATOM      5  N   UNL     1      -3.659   4.156  25.343  0.00  0.00    -0.218 NA
BRANCH   5   4
ATOM      4  C   UNL     1      -4.320   3.830  25.712  0.00  0.00    +0.146 C 
BRANCH   4   3
ATOM      3  C   UNL     1      -5.077   4.028  25.453  0.00  0.00    +0.166 C 
BRANCH   3   2
ATOM      1  C   UNL     1      -6.097   3.058  25.703  0.00  0.00    +0.174 C 
ATOM      2  O   UNL     1      -5.739   3.780  25.880  0.00  0.00    -0.349 OA
ENDBRANCH   3   2
ENDBRANCH   4   3
ENDBRANCH   5   4
ENDBRANCH   6   5
ENDBRANCH  12   9
BRANCH  15  17
ATOM     17  C   UNL     1       0.051   0.609  23.972  0.00  0.00    +0.138 C 
ATOM     18  C   UNL     1       0.560   0.564  23.324  0.00  0.00    +0.027 C 
ATOM     19  C   UNL     1       0.675  -0.234  23.145  0.00  0.00    +0.019 C 
ATOM     20  C   UNL     1       0.237  -0.681  23.682  0.00  0.00    +0.073 C 
ATOM     21  N   UNL     1      -0.149  -0.160  24.193  0.00  0.00    -0.263 NA
BRANCH  21  22
ATOM     22  C   UNL     1      -0.646  -0.372  24.816  0.00  0.00    +0.099 C 
BRANCH  22  23
ATOM     23  C   UNL     1      -1.130  -1.036  24.750  0.00  0.00    -0.006 A 
ATOM     24  C   UNL     1      -0.830  -1.784  24.929  0.00  0.00    -0.002 A 
ATOM     25  C   UNL     1      -1.313  -2.449  24.863  0.00  0.00    +0.011 A 
ATOM     26  C   UNL     1      -2.097  -2.367  24.619  0.00  0.00    +0.058 A 
ATOM     27 CL   UNL     1      -2.581  -3.033  24.553  0.00  0.00    -0.082 Cl
ATOM     28  C   UNL     1      -2.397  -1.620  24.440  0.00  0.00    +0.011 A 
ATOM     29  C   UNL     1      -1.913  -0.955  24.505  0.00  0.00    -0.002 A 
ENDBRANCH  22  23
ENDBRANCH  21  22
ENDBRANCH  15  17
TORSDOF 8
ENDMDL
