REMARK  Name = 
REMARK  3 active torsions:
REMARK  status: ('A' for Active; 'I' for Inactive)
REMARK    1  A    between atoms: C_2  and  N_3
REMARK    2  A    between atoms: C_11  and  O_13
REMARK    3  A    between atoms: O_13  and  C_14
REMARK                            x       y       z     vdW  Elec       q    Type
REMARK                         _______ _______ _______ _____ _____    ______ ____
ROOT
ATOM      3  N   UNL     1      -0.093   0.403   0.000  0.00  0.00    -0.188 NA
ATOM      4  C   UNL     1       0.712   0.220   0.000  0.00  0.00    +0.323 C 
ATOM      5  O   UNL     1       0.955  -0.569   0.000  0.00  0.00    -0.251 OA
ATOM      6  N   UNL     1       1.273   0.825   0.000  0.00  0.00    -0.257 N 
ATOM      7  C   UNL     1       0.971   1.593   0.000  0.00  0.00    +0.127 C 
ATOM      8  C   UNL     1       1.384   2.307   0.000  0.00  0.00    +0.164 C 
ATOM      9  O   UNL     1       2.200   2.430   0.000  0.00  0.00    -0.348 OA
ATOM     10  C   UNL     1       2.804   1.869   0.000  0.00  0.00    +0.187 C 
ATOM     11  C   UNL     1       2.743   1.046   0.000  0.00  0.00    +0.215 C 
ATOM     12  C   UNL     1       2.061   0.581   0.000  0.00  0.00    +0.141 C 
ENDROOT
BRANCH   3   2
ATOM      1  C   UNL     1      -1.458  -0.018   0.000  0.00  0.00    +0.025 C 
ATOM      2  C   UNL     1      -0.654  -0.202   0.000  0.00  0.00    +0.117 C 
ENDBRANCH   3   2
BRANCH  11  13
ATOM     13  O   UNL     1       3.457   0.634   0.000  0.00  0.00    -0.475 OA
BRANCH  13  14
ATOM     14  C   UNL     1       3.457  -0.191   0.000  0.00  0.00    +0.139 A 
ATOM     15  C   UNL     1       4.172  -0.604   0.000  0.00  0.00    +0.037 A 
ATOM     16  C   UNL     1       4.172  -1.429   0.000  0.00  0.00    +0.003 A 
ATOM     17  C   UNL     1       3.457  -1.841   0.000  0.00  0.00    +0.000 A 
ATOM     18  C   UNL     1       2.743  -1.429   0.000  0.00  0.00    +0.003 A 
ATOM     19  C   UNL     1       2.743  -0.604   0.000  0.00  0.00    +0.037 A 
ENDBRANCH  13  14
ENDBRANCH  11  13
TORSDOF 3
