MODEL 1
REMARK VINA RESULT:     -11.4      0.000      0.000
REMARK  Name = 
REMARK  4 active torsions:
REMARK  status: ('A' for Active; 'I' for Inactive)
REMARK    1  A    between atoms: O_2  and  C_3
REMARK    2  A    between atoms: C_3  and  C_5
REMARK    3  A    between atoms: N_14  and  C_15
REMARK    4  A    between atoms: C_15  and  C_16
REMARK                            x       y       z     vdW  Elec       q    Type
REMARK                         _______ _______ _______ _____ _____    ______ ____
ROOT
ATOM      5  C   UNL     1      -3.456   2.658  24.806  0.00  0.00    +0.181 C 
ATOM      6  C   UNL     1      -2.860   2.201  24.467  0.00  0.00    +0.078 C 
ATOM      7  C   UNL     1      -2.962   1.387  24.379  0.00  0.00    +0.076 A 
ATOM      8  C   UNL     1      -3.662   1.031  24.631  0.00  0.00    +0.072 A 
ATOM      9  C   UNL     1      -4.260   1.488  24.971  0.00  0.00    +0.139 C 
ATOM     10  N   UNL     1      -4.156   2.302  25.058  0.00  0.00    -0.265 N 
ATOM     11  C   UNL     1      -4.753   2.758  25.398  0.00  0.00    +0.227 C 
ATOM     12  C   UNL     1      -4.650   3.573  25.485  0.00  0.00    +0.095 C 
ATOM     13  O   UNL     1      -5.453   2.402  25.650  0.00  0.00    -0.275 OA
ATOM     14  N   UNL     1      -3.608   0.223  24.475  0.00  0.00    -0.307 N 
ATOM     22  C   UNL     1      -2.874   0.080  24.126  0.00  0.00    +0.178 A 
ATOM     23  N   UNL     1      -2.476   0.799  24.068  0.00  0.00    -0.229 NA
ENDROOT
BRANCH   5   3
ATOM      3  C   UNL     1      -3.353   3.472  24.894  0.00  0.00    +0.336 C 
ATOM      4  O   UNL     1      -3.695   3.991  24.352  0.00  0.00    -0.248 OA
BRANCH   3   2
ATOM      1  C   UNL     1      -2.536   4.499  25.458  0.00  0.00    +0.256 C 
ATOM      2  O   UNL     1      -2.908   3.767  25.523  0.00  0.00    -0.443 OA
ENDBRANCH   3   2
ENDBRANCH   5   3
BRANCH  14  15
ATOM     15  C   UNL     1      -4.186  -0.343  24.639  0.00  0.00    +0.134 C 
BRANCH  15  16
ATOM     16  C   UNL     1      -4.002  -1.146  24.592  0.00  0.00    +0.000 A 
ATOM     17  C   UNL     1      -4.205  -1.577  23.918  0.00  0.00    -0.002 A 
ATOM     18  C   UNL     1      -4.021  -2.380  23.870  0.00  0.00    -0.000 A 
ATOM     19  C   UNL     1      -3.634  -2.751  24.497  0.00  0.00    -0.000 A 
ATOM     20  C   UNL     1      -3.431  -2.321  25.171  0.00  0.00    -0.000 A 
ATOM     21  C   UNL     1      -3.615  -1.518  25.218  0.00  0.00    -0.002 A 
ENDBRANCH  15  16
ENDBRANCH  14  15
TORSDOF 4
ENDMDL
MODEL 2
REMARK VINA RESULT:     -10.7      0.907      1.572
REMARK  Name = 
REMARK  4 active torsions:
REMARK  status: ('A' for Active; 'I' for Inactive)
REMARK    1  A    between atoms: O_2  and  C_3
REMARK    2  A    between atoms: C_3  and  C_5
REMARK    3  A    between atoms: N_14  and  C_15
REMARK    4  A    between atoms: C_15  and  C_16
REMARK                            x       y       z     vdW  Elec       q    Type
REMARK                         _______ _______ _______ _____ _____    ______ ____
ROOT
ATOM      5  C   UNL     1      -3.363   2.583  24.896  0.00  0.00    +0.181 C 
ATOM      6  C   UNL     1      -4.060   2.199  25.110  0.00  0.00    +0.078 C 
ATOM      7  C   UNL     1      -4.180   1.410  24.900  0.00  0.00    +0.076 A 
ATOM      8  C   UNL     1      -3.600   1.005  24.476  0.00  0.00    +0.072 A 
ATOM      9  C   UNL     1      -2.901   1.388  24.262  0.00  0.00    +0.139 C 
ATOM     10  N   UNL     1      -2.783   2.177  24.472  0.00  0.00    -0.265 N 
ATOM     11  C   UNL     1      -2.084   2.560  24.257  0.00  0.00    +0.227 C 
ATOM     12  C   UNL     1      -1.966   3.349  24.468  0.00  0.00    +0.095 C 
ATOM     13  O   UNL     1      -1.504   2.154  23.833  0.00  0.00    -0.275 OA
ATOM     14  N   UNL     1      -3.869   0.236  24.347  0.00  0.00    -0.307 N 
ATOM     22  C   UNL     1      -4.615   0.166  24.692  0.00  0.00    +0.178 A 
ATOM     23  N   UNL     1      -4.807   0.892  25.033  0.00  0.00    -0.229 NA
ENDROOT
BRANCH   5   3
ATOM      3  C   UNL     1      -3.244   3.371  25.106  0.00  0.00    +0.336 C 
ATOM      4  O   UNL     1      -3.421   3.972  24.568  0.00  0.00    -0.248 OA
BRANCH   3   2
ATOM      1  C   UNL     1      -3.010   4.331  26.138  0.00  0.00    +0.256 C 
ATOM      2  O   UNL     1      -2.949   3.560  25.852  0.00  0.00    -0.443 OA
ENDBRANCH   3   2
ENDBRANCH   5   3
BRANCH  14  15
ATOM     15  C   UNL     1      -3.463  -0.359  23.945  0.00  0.00    +0.134 C 
BRANCH  15  16
ATOM     16  C   UNL     1      -3.563  -1.148  24.165  0.00  0.00    +0.000 A 
ATOM     17  C   UNL     1      -4.111  -1.621  23.768  0.00  0.00    -0.002 A 
ATOM     18  C   UNL     1      -4.211  -2.409  23.988  0.00  0.00    -0.000 A 
ATOM     19  C   UNL     1      -3.763  -2.726  24.604  0.00  0.00    -0.000 A 
ATOM     20  C   UNL     1      -3.215  -2.254  25.000  0.00  0.00    -0.000 A 
ATOM     21  C   UNL     1      -3.115  -1.465  24.780  0.00  0.00    -0.002 A 
ENDBRANCH  15  16
ENDBRANCH  14  15
TORSDOF 4
ENDMDL
MODEL 3
REMARK VINA RESULT:     -10.0      1.895      4.735
REMARK  Name = 
REMARK  4 active torsions:
REMARK  status: ('A' for Active; 'I' for Inactive)
REMARK    1  A    between atoms: O_2  and  C_3
REMARK    2  A    between atoms: C_3  and  C_5
REMARK    3  A    between atoms: N_14  and  C_15
REMARK    4  A    between atoms: C_15  and  C_16
REMARK                            x       y       z     vdW  Elec       q    Type
REMARK                         _______ _______ _______ _____ _____    ______ ____
ROOT
ATOM      5  C   UNL     1      -3.364   0.042  24.731  0.00  0.00    +0.181 C 
ATOM      6  C   UNL     1      -3.699   0.712  24.386  0.00  0.00    +0.078 C 
ATOM      7  C   UNL     1      -3.330   1.445  24.464  0.00  0.00    +0.076 A 
ATOM      8  C   UNL     1      -2.625   1.509  24.889  0.00  0.00    +0.072 A 
ATOM      9  C   UNL     1      -2.290   0.838  25.235  0.00  0.00    +0.139 C 
ATOM     10  N   UNL     1      -2.660   0.105  25.156  0.00  0.00    -0.265 N 
ATOM     11  C   UNL     1      -2.324  -0.564  25.501  0.00  0.00    +0.227 C 
ATOM     12  C   UNL     1      -2.694  -1.298  25.422  0.00  0.00    +0.095 C 
ATOM     13  O   UNL     1      -1.619  -0.501  25.926  0.00  0.00    -0.275 OA
ATOM     14  N   UNL     1      -2.388   2.298  24.874  0.00  0.00    -0.307 N 
ATOM     22  C   UNL     1      -2.946   2.723  24.440  0.00  0.00    +0.178 A 
ATOM     23  N   UNL     1      -3.528   2.196  24.187  0.00  0.00    -0.229 NA
ENDROOT
BRANCH   5   3
ATOM      3  C   UNL     1      -3.733  -0.691  24.652  0.00  0.00    +0.336 C 
ATOM      4  O   UNL     1      -4.132  -1.023  25.294  0.00  0.00    -0.248 OA
BRANCH   3   2
ATOM      1  C   UNL     1      -4.190  -1.747  23.805  0.00  0.00    +0.256 C 
ATOM      2  O   UNL     1      -3.704  -1.093  23.932  0.00  0.00    -0.443 OA
ENDBRANCH   3   2
ENDBRANCH   5   3
BRANCH  14  15
ATOM     15  C   UNL     1      -1.712   2.609  25.230  0.00  0.00    +0.134 C 
BRANCH  15  16
ATOM     16  C   UNL     1      -1.538   3.412  25.155  0.00  0.00    +0.000 A 
ATOM     17  C   UNL     1      -1.962   3.969  25.593  0.00  0.00    -0.002 A 
ATOM     18  C   UNL     1      -1.788   4.771  25.518  0.00  0.00    -0.000 A 
ATOM     19  C   UNL     1      -1.190   5.018  25.006  0.00  0.00    -0.000 A 
ATOM     20  C   UNL     1      -0.767   4.462  24.568  0.00  0.00    -0.000 A 
ATOM     21  C   UNL     1      -0.940   3.659  24.643  0.00  0.00    -0.002 A 
ENDBRANCH  15  16
ENDBRANCH  14  15
TORSDOF 4
ENDMDL
