MODEL 1
REMARK VINA RESULT:     -11.8      0.000      0.000
REMARK  Name = 
REMARK  5 active torsions:
REMARK  status: ('A' for Active; 'I' for Inactive)
REMARK    1  A    between atoms: N_2  and  C_3
REMARK    2  A    between atoms: C_6  and  C_9
REMARK    3  A    between atoms: C_12  and  C_14
REMARK    4  A    between atoms: N_18  and  C_19
REMARK    5  A    between atoms: C_19  and  C_20
REMARK                            x       y       z     vdW  Elec       q    Type
REMARK                         _______ _______ _______ _____ _____    ______ ____
ROOT
ATOM     14  C   UNL     1      -4.059   2.430  24.256  0.00  0.00    +0.138 C 
ATOM     15  C   UNL     1      -4.500   2.732  23.627  0.00  0.00    +0.027 C 
ATOM     16  C   UNL     1      -4.183   3.465  23.423  0.00  0.00    +0.019 C 
ATOM     17  C   UNL     1      -3.546   3.617  23.925  0.00  0.00    +0.073 C 
ATOM     18  N   UNL     1      -3.469   2.977  24.440  0.00  0.00    -0.263 NA
ENDROOT
BRANCH  14  12
ATOM      9  C   UNL     1      -4.146   0.407  24.932  0.00  0.00    +0.205 A 
ATOM     10  N   UNL     1      -4.613   0.784  25.498  0.00  0.00    -0.056 NA
ATOM     11  O   UNL     1      -4.637   1.588  25.314  0.00  0.00    -0.336 OA
ATOM     12  C   UNL     1      -4.185   1.708  24.634  0.00  0.00    +0.251 A 
ATOM     13  N   UNL     1      -3.882   0.977  24.398  0.00  0.00    -0.190 NA
BRANCH   9   6
ATOM      3  C   UNL     1      -3.630  -2.013  24.850  0.00  0.00    +0.148 A 
ATOM      4  C   UNL     1      -4.006  -1.649  24.212  0.00  0.00    +0.036 A 
ATOM      5  C   UNL     1      -4.178  -0.842  24.239  0.00  0.00    +0.008 A 
ATOM      6  C   UNL     1      -3.974  -0.400  24.904  0.00  0.00    +0.058 A 
ATOM      7  C   UNL     1      -3.598  -0.763  25.543  0.00  0.00    +0.103 A 
ATOM      8  N   UNL     1      -3.426  -1.569  25.516  0.00  0.00    -0.228 NA
BRANCH   3   2
ATOM      1  C   UNL     1      -2.753  -3.079  24.481  0.00  0.00    +0.137 C 
ATOM      2  N   UNL     1      -3.458  -2.819  24.823  0.00  0.00    -0.218 NA
ENDBRANCH   3   2
ENDBRANCH   9   6
ENDBRANCH  14  12
BRANCH  18  19
ATOM     19  C   UNL     1      -2.902   2.898  25.033  0.00  0.00    +0.100 C 
BRANCH  19  20
ATOM     20  C   UNL     1      -2.247   3.398  25.048  0.00  0.00    -0.004 A 
ATOM     21  C   UNL     1      -2.318   4.162  25.351  0.00  0.00    +0.029 A 
ATOM     22  C   UNL     1      -1.662   4.664  25.365  0.00  0.00    +0.167 A 
ATOM     23  F   UNL     1      -1.734   5.428  25.668  0.00  0.00    -0.202 F 
ATOM     24  C   UNL     1      -0.936   4.400  25.077  0.00  0.00    +0.167 A 
ATOM     25  F   UNL     1      -0.280   4.901  25.091  0.00  0.00    -0.202 F 
ATOM     26  C   UNL     1      -0.865   3.636  24.774  0.00  0.00    +0.032 A 
ATOM     27  C   UNL     1      -1.520   3.135  24.759  0.00  0.00    -0.000 A 
ENDBRANCH  19  20
ENDBRANCH  18  19
TORSDOF 5
ENDMDL
MODEL 2
REMARK VINA RESULT:     -11.3      2.618      5.364
REMARK  Name = 
REMARK  5 active torsions:
REMARK  status: ('A' for Active; 'I' for Inactive)
REMARK    1  A    between atoms: N_2  and  C_3
REMARK    2  A    between atoms: C_6  and  C_9
REMARK    3  A    between atoms: C_12  and  C_14
REMARK    4  A    between atoms: N_18  and  C_19
REMARK    5  A    between atoms: C_19  and  C_20
REMARK                            x       y       z     vdW  Elec       q    Type
REMARK                         _______ _______ _______ _____ _____    ______ ____
ROOT
ATOM     14  C   UNL     1      -4.535   1.368  24.813  0.00  0.00    +0.138 C 
ATOM     15  C   UNL     1      -5.255   1.548  25.174  0.00  0.00    +0.027 C 
ATOM     16  C   UNL     1      -5.608   0.840  25.409  0.00  0.00    +0.019 C 
ATOM     17  C   UNL     1      -5.106   0.222  25.192  0.00  0.00    +0.073 C 
ATOM     18  N   UNL     1      -4.443   0.548  24.824  0.00  0.00    -0.263 NA
ENDROOT
BRANCH  14  12
ATOM      9  C   UNL     1      -3.027   2.817  24.387  0.00  0.00    +0.205 A 
ATOM     10  N   UNL     1      -3.335   2.681  23.633  0.00  0.00    -0.056 NA
ATOM     11  O   UNL     1      -3.938   2.121  23.701  0.00  0.00    -0.336 OA
ATOM     12  C   UNL     1      -4.002   1.911  24.497  0.00  0.00    +0.251 A 
ATOM     13  N   UNL     1      -3.440   2.342  24.920  0.00  0.00    -0.190 NA
BRANCH   9   6
ATOM      3  C   UNL     1      -1.190   4.377  24.948  0.00  0.00    +0.148 A 
ATOM      4  C   UNL     1      -1.968   4.566  25.148  0.00  0.00    +0.036 A 
ATOM      5  C   UNL     1      -2.580   4.046  24.961  0.00  0.00    +0.008 A 
ATOM      6  C   UNL     1      -2.415   3.337  24.574  0.00  0.00    +0.058 A 
ATOM      7  C   UNL     1      -1.637   3.147  24.374  0.00  0.00    +0.103 A 
ATOM      8  N   UNL     1      -1.025   3.667  24.561  0.00  0.00    -0.228 NA
BRANCH   3   2
ATOM      1  C   UNL     1      -0.562   5.652  24.802  0.00  0.00    +0.137 C 
ATOM      2  N   UNL     1      -0.577   4.898  25.135  0.00  0.00    -0.218 NA
ENDBRANCH   3   2
ENDBRANCH   9   6
ENDBRANCH  14  12
BRANCH  18  19
ATOM     19  C   UNL     1      -3.802   0.128  24.520  0.00  0.00    +0.100 C 
BRANCH  19  20
ATOM     20  C   UNL     1      -3.779  -0.694  24.585  0.00  0.00    -0.004 A 
ATOM     21  C   UNL     1      -4.111  -1.164  23.995  0.00  0.00    +0.029 A 
ATOM     22  C   UNL     1      -4.088  -1.987  24.060  0.00  0.00    +0.167 A 
ATOM     23  F   UNL     1      -4.421  -2.457  23.469  0.00  0.00    -0.202 F 
ATOM     24  C   UNL     1      -3.732  -2.338  24.716  0.00  0.00    +0.167 A 
ATOM     25  F   UNL     1      -3.708  -3.161  24.781  0.00  0.00    -0.202 F 
ATOM     26  C   UNL     1      -3.399  -1.868  25.306  0.00  0.00    +0.032 A 
ATOM     27  C   UNL     1      -3.423  -1.046  25.241  0.00  0.00    -0.000 A 
ENDBRANCH  19  20
ENDBRANCH  18  19
TORSDOF 5
ENDMDL
MODEL 3
REMARK VINA RESULT:     -11.1      3.095      5.779
REMARK  Name = 
REMARK  5 active torsions:
REMARK  status: ('A' for Active; 'I' for Inactive)
REMARK    1  A    between atoms: N_2  and  C_3
REMARK    2  A    between atoms: C_6  and  C_9
REMARK    3  A    between atoms: C_12  and  C_14
REMARK    4  A    between atoms: N_18  and  C_19
REMARK    5  A    between atoms: C_19  and  C_20
REMARK                            x       y       z     vdW  Elec       q    Type
REMARK                         _______ _______ _______ _____ _____    ______ ____
ROOT
ATOM     14  C   UNL     1      -0.898  -0.197  24.754  0.00  0.00    +0.138 C 
ATOM     15  C   UNL     1      -0.246  -0.475  24.331  0.00  0.00    +0.027 C 
ATOM     16  C   UNL     1      -0.449  -1.203  24.000  0.00  0.00    +0.019 C 
ATOM     17  C   UNL     1      -1.225  -1.376  24.219  0.00  0.00    +0.073 C 
ATOM     18  N   UNL     1      -1.503  -0.754  24.685  0.00  0.00    -0.263 NA
ENDROOT
BRANCH  14  12
ATOM      9  C   UNL     1      -1.100   1.803  25.470  0.00  0.00    +0.205 A 
ATOM     10  N   UNL     1      -0.895   1.406  26.164  0.00  0.00    -0.056 NA
ATOM     11  O   UNL     1      -0.794   0.608  25.980  0.00  0.00    -0.336 OA
ATOM     12  C   UNL     1      -0.937   0.512  25.173  0.00  0.00    +0.251 A 
ATOM     13  N   UNL     1      -1.126   1.251  24.858  0.00  0.00    -0.190 NA
BRANCH   9   6
ATOM      3  C   UNL     1      -1.556   4.227  25.263  0.00  0.00    +0.148 A 
ATOM      4  C   UNL     1      -0.780   3.950  25.239  0.00  0.00    +0.036 A 
ATOM      5  C   UNL     1      -0.628   3.142  25.308  0.00  0.00    +0.008 A 
ATOM      6  C   UNL     1      -1.252   2.611  25.401  0.00  0.00    +0.058 A 
ATOM      7  C   UNL     1      -2.029   2.888  25.426  0.00  0.00    +0.103 A 
ATOM      8  N   UNL     1      -2.181   3.696  25.357  0.00  0.00    -0.228 NA
BRANCH   3   2
ATOM      1  C   UNL     1      -1.138   5.536  24.870  0.00  0.00    +0.137 C 
ATOM      2  N   UNL     1      -1.708   5.035  25.195  0.00  0.00    -0.218 NA
ENDBRANCH   3   2
ENDBRANCH   9   6
ENDBRANCH  14  12
BRANCH  18  19
ATOM     19  C   UNL     1      -2.253  -0.699  25.023  0.00  0.00    +0.100 C 
BRANCH  19  20
ATOM     20  C   UNL     1      -2.871  -1.163  24.734  0.00  0.00    -0.004 A 
ATOM     21  C   UNL     1      -2.973  -1.933  25.012  0.00  0.00    +0.029 A 
ATOM     22  C   UNL     1      -3.590  -2.398  24.723  0.00  0.00    +0.167 A 
ATOM     23  F   UNL     1      -3.692  -3.169  25.002  0.00  0.00    -0.202 F 
ATOM     24  C   UNL     1      -4.106  -2.092  24.157  0.00  0.00    +0.167 A 
ATOM     25  F   UNL     1      -4.724  -2.557  23.868  0.00  0.00    -0.202 F 
ATOM     26  C   UNL     1      -4.005  -1.322  23.879  0.00  0.00    +0.032 A 
ATOM     27  C   UNL     1      -3.387  -0.858  24.168  0.00  0.00    -0.000 A 
ENDBRANCH  19  20
ENDBRANCH  18  19
TORSDOF 5
ENDMDL
MODEL 4
REMARK VINA RESULT:     -10.8      1.870      2.637
REMARK  Name = 
REMARK  5 active torsions:
REMARK  status: ('A' for Active; 'I' for Inactive)
REMARK    1  A    between atoms: N_2  and  C_3
REMARK    2  A    between atoms: C_6  and  C_9
REMARK    3  A    between atoms: C_12  and  C_14
REMARK    4  A    between atoms: N_18  and  C_19
REMARK    5  A    between atoms: C_19  and  C_20
REMARK                            x       y       z     vdW  Elec       q    Type
REMARK                         _______ _______ _______ _____ _____    ______ ____
ROOT
ATOM     14  C   UNL     1      -0.598   1.666  25.655  0.00  0.00    +0.138 C 
ATOM     15  C   UNL     1      -0.064   1.543  26.273  0.00  0.00    +0.027 C 
ATOM     16  C   UNL     1       0.107   2.275  26.612  0.00  0.00    +0.019 C 
ATOM     17  C   UNL     1      -0.321   2.851  26.205  0.00  0.00    +0.073 C 
ATOM     18  N   UNL     1      -0.757   2.475  25.613  0.00  0.00    -0.263 NA
ENDROOT
BRANCH  14  12
ATOM      9  C   UNL     1      -1.656   0.066  24.719  0.00  0.00    +0.205 A 
ATOM     10  N   UNL     1      -1.156   0.306  24.107  0.00  0.00    -0.056 NA
ATOM     11  O   UNL     1      -0.698   0.935  24.384  0.00  0.00    -0.336 OA
ATOM     12  C   UNL     1      -0.916   1.084  25.166  0.00  0.00    +0.251 A 
ATOM     13  N   UNL     1      -1.508   0.547  25.372  0.00  0.00    -0.190 NA
BRANCH   9   6
ATOM      3  C   UNL     1      -3.311  -1.771  24.609  0.00  0.00    +0.148 A 
ATOM      4  C   UNL     1      -3.563  -0.986  24.592  0.00  0.00    +0.036 A 
ATOM      5  C   UNL     1      -3.012  -0.374  24.629  0.00  0.00    +0.008 A 
ATOM      6  C   UNL     1      -2.208  -0.546  24.682  0.00  0.00    +0.058 A 
ATOM      7  C   UNL     1      -1.953  -1.331  24.699  0.00  0.00    +0.103 A 
ATOM      8  N   UNL     1      -2.505  -1.943  24.662  0.00  0.00    -0.228 NA
BRANCH   3   2
ATOM      1  C   UNL     1      -4.189  -2.601  23.846  0.00  0.00    +0.137 C 
ATOM      2  N   UNL     1      -3.862  -2.384  24.572  0.00  0.00    -0.218 NA
ENDBRANCH   3   2
ENDBRANCH   9   6
ENDBRANCH  14  12
BRANCH  18  19
ATOM     19  C   UNL     1      -1.262   2.843  25.075  0.00  0.00    +0.100 C 
BRANCH  19  20
ATOM     20  C   UNL     1      -1.381   3.658  25.112  0.00  0.00    -0.004 A 
ATOM     21  C   UNL     1      -0.820   4.172  24.793  0.00  0.00    +0.029 A 
ATOM     22  C   UNL     1      -0.939   4.988  24.829  0.00  0.00    +0.167 A 
ATOM     23  F   UNL     1      -0.378   5.502  24.510  0.00  0.00    -0.202 F 
ATOM     24  C   UNL     1      -1.620   5.289  25.185  0.00  0.00    +0.167 A 
ATOM     25  F   UNL     1      -1.739   6.105  25.222  0.00  0.00    -0.202 F 
ATOM     26  C   UNL     1      -2.181   4.775  25.504  0.00  0.00    +0.032 A 
ATOM     27  C   UNL     1      -2.062   3.960  25.467  0.00  0.00    -0.000 A 
ENDBRANCH  19  20
ENDBRANCH  18  19
TORSDOF 5
ENDMDL
MODEL 5
REMARK VINA RESULT:     -10.5      1.838      2.605
REMARK  Name = 
REMARK  5 active torsions:
REMARK  status: ('A' for Active; 'I' for Inactive)
REMARK    1  A    between atoms: N_2  and  C_3
REMARK    2  A    between atoms: C_6  and  C_9
REMARK    3  A    between atoms: C_12  and  C_14
REMARK    4  A    between atoms: N_18  and  C_19
REMARK    5  A    between atoms: C_19  and  C_20
REMARK                            x       y       z     vdW  Elec       q    Type
REMARK                         _______ _______ _______ _____ _____    ______ ____
ROOT
ATOM     14  C   UNL     1      -0.415   1.128  24.714  0.00  0.00    +0.138 C 
ATOM     15  C   UNL     1       0.237   1.104  24.209  0.00  0.00    +0.027 C 
ATOM     16  C   UNL     1       0.456   1.880  24.037  0.00  0.00    +0.019 C 
ATOM     17  C   UNL     1      -0.061   2.385  24.435  0.00  0.00    +0.073 C 
ATOM     18  N   UNL     1      -0.600   1.920  24.854  0.00  0.00    -0.263 NA
ENDROOT
BRANCH  14  12
ATOM      9  C   UNL     1      -1.626  -0.577  25.142  0.00  0.00    +0.205 A 
ATOM     10  N   UNL     1      -1.226  -0.481  25.858  0.00  0.00    -0.056 NA
ATOM     11  O   UNL     1      -0.724   0.169  25.785  0.00  0.00    -0.336 OA
ATOM     12  C   UNL     1      -0.813   0.476  25.024  0.00  0.00    +0.251 A 
ATOM     13  N   UNL     1      -1.371   0.014  24.627  0.00  0.00    -0.190 NA
BRANCH   9   6
ATOM      3  C   UNL     1      -3.296  -2.331  24.633  0.00  0.00    +0.148 A 
ATOM      4  C   UNL     1      -3.539  -1.608  24.947  0.00  0.00    +0.036 A 
ATOM      5  C   UNL     1      -2.982  -1.023  25.117  0.00  0.00    +0.008 A 
ATOM      6  C   UNL     1      -2.182  -1.162  24.973  0.00  0.00    +0.058 A 
ATOM      7  C   UNL     1      -1.938  -1.885  24.659  0.00  0.00    +0.103 A 
ATOM      8  N   UNL     1      -2.495  -2.469  24.489  0.00  0.00    -0.228 NA
BRANCH   3   2
ATOM      1  C   UNL     1      -4.313  -2.860  23.781  0.00  0.00    +0.137 C 
ATOM      2  N   UNL     1      -3.853  -2.915  24.463  0.00  0.00    -0.218 NA
ENDBRANCH   3   2
ENDBRANCH   9   6
ENDBRANCH  14  12
BRANCH  18  19
ATOM     19  C   UNL     1      -1.214   2.199  25.329  0.00  0.00    +0.100 C 
BRANCH  19  20
ATOM     20  C   UNL     1      -1.440   2.990  25.288  0.00  0.00    -0.004 A 
ATOM     21  C   UNL     1      -2.138   3.201  24.903  0.00  0.00    +0.029 A 
ATOM     22  C   UNL     1      -2.365   3.994  24.863  0.00  0.00    +0.167 A 
ATOM     23  F   UNL     1      -3.064   4.204  24.477  0.00  0.00    -0.202 F 
ATOM     24  C   UNL     1      -1.893   4.575  25.208  0.00  0.00    +0.167 A 
ATOM     25  F   UNL     1      -2.119   5.368  25.167  0.00  0.00    -0.202 F 
ATOM     26  C   UNL     1      -1.194   4.365  25.593  0.00  0.00    +0.032 A 
ATOM     27  C   UNL     1      -0.968   3.573  25.633  0.00  0.00    -0.000 A 
ENDBRANCH  19  20
ENDBRANCH  18  19
TORSDOF 5
ENDMDL
MODEL 6
REMARK VINA RESULT:     -10.5      2.964      5.387
REMARK  Name = 
REMARK  5 active torsions:
REMARK  status: ('A' for Active; 'I' for Inactive)
REMARK    1  A    between atoms: N_2  and  C_3
REMARK    2  A    between atoms: C_6  and  C_9
REMARK    3  A    between atoms: C_12  and  C_14
REMARK    4  A    between atoms: N_18  and  C_19
REMARK    5  A    between atoms: C_19  and  C_20
REMARK                            x       y       z     vdW  Elec       q    Type
REMARK                         _______ _______ _______ _____ _____    ______ ____
ROOT
ATOM     14  C   UNL     1      -2.229   0.558  24.379  0.00  0.00    +0.138 C 
ATOM     15  C   UNL     1      -1.410   0.584  24.285  0.00  0.00    +0.027 C 
ATOM     16  C   UNL     1      -1.107  -0.159  24.477  0.00  0.00    +0.019 C 
ATOM     17  C   UNL     1      -1.739  -0.645  24.690  0.00  0.00    +0.073 C 
ATOM     18  N   UNL     1      -2.433  -0.201  24.630  0.00  0.00    -0.263 NA
ENDROOT
BRANCH  14  12
ATOM      9  C   UNL     1      -3.656   2.144  24.444  0.00  0.00    +0.205 A 
ATOM     10  N   UNL     1      -3.460   2.139  23.642  0.00  0.00    -0.056 NA
ATOM     11  O   UNL     1      -2.901   1.544  23.520  0.00  0.00    -0.336 OA
ATOM     12  C   UNL     1      -2.752   1.181  24.246  0.00  0.00    +0.251 A 
ATOM     13  N   UNL     1      -3.219   1.552  24.817  0.00  0.00    -0.190 NA
BRANCH   9   6
ATOM      3  C   UNL     1      -5.274   3.667  25.534  0.00  0.00    +0.148 A 
ATOM      4  C   UNL     1      -5.507   2.907  25.313  0.00  0.00    +0.036 A 
ATOM      5  C   UNL     1      -4.967   2.399  24.950  0.00  0.00    +0.008 A 
ATOM      6  C   UNL     1      -4.196   2.651  24.807  0.00  0.00    +0.058 A 
ATOM      7  C   UNL     1      -3.962   3.411  25.028  0.00  0.00    +0.103 A 
ATOM      8  N   UNL     1      -4.501   3.919  25.392  0.00  0.00    -0.228 NA
BRANCH   3   2
ATOM      1  C   UNL     1      -6.055   4.863  25.513  0.00  0.00    +0.137 C 
ATOM      2  N   UNL     1      -5.813   4.174  25.898  0.00  0.00    -0.218 NA
ENDBRANCH   3   2
ENDBRANCH   9   6
ENDBRANCH  14  12
BRANCH  18  19
ATOM     19  C   UNL     1      -3.195  -0.470  24.791  0.00  0.00    +0.100 C 
BRANCH  19  20
ATOM     20  C   UNL     1      -3.380  -1.268  24.696  0.00  0.00    -0.004 A 
ATOM     21  C   UNL     1      -3.785  -1.521  24.024  0.00  0.00    +0.029 A 
ATOM     22  C   UNL     1      -3.971  -2.319  23.928  0.00  0.00    +0.167 A 
ATOM     23  F   UNL     1      -4.376  -2.571  23.255  0.00  0.00    -0.202 F 
ATOM     24  C   UNL     1      -3.750  -2.865  24.506  0.00  0.00    +0.167 A 
ATOM     25  F   UNL     1      -3.935  -3.664  24.411  0.00  0.00    -0.202 F 
ATOM     26  C   UNL     1      -3.345  -2.613  25.179  0.00  0.00    +0.032 A 
ATOM     27  C   UNL     1      -3.160  -1.815  25.274  0.00  0.00    -0.000 A 
ENDBRANCH  19  20
ENDBRANCH  18  19
TORSDOF 5
ENDMDL
MODEL 7
REMARK VINA RESULT:     -10.1      2.001      2.842
REMARK  Name = 
REMARK  5 active torsions:
REMARK  status: ('A' for Active; 'I' for Inactive)
REMARK    1  A    between atoms: N_2  and  C_3
REMARK    2  A    between atoms: C_6  and  C_9
REMARK    3  A    between atoms: C_12  and  C_14
REMARK    4  A    between atoms: N_18  and  C_19
REMARK    5  A    between atoms: C_19  and  C_20
REMARK                            x       y       z     vdW  Elec       q    Type
REMARK                         _______ _______ _______ _____ _____    ______ ____
ROOT
ATOM     14  C   UNL     1      -1.793   2.342  25.167  0.00  0.00    +0.138 C 
ATOM     15  C   UNL     1      -1.221   2.694  25.646  0.00  0.00    +0.027 C 
ATOM     16  C   UNL     1      -1.517   3.419  25.906  0.00  0.00    +0.019 C 
ATOM     17  C   UNL     1      -2.272   3.515  25.587  0.00  0.00    +0.073 C 
ATOM     18  N   UNL     1      -2.443   2.849  25.131  0.00  0.00    -0.263 NA
ENDROOT
BRANCH  14  12
ATOM      9  C   UNL     1      -1.850   0.311  24.513  0.00  0.00    +0.205 A 
ATOM     10  N   UNL     1      -1.400   0.659  23.914  0.00  0.00    -0.056 NA
ATOM     11  O   UNL     1      -1.325   1.462  24.087  0.00  0.00    -0.336 OA
ATOM     12  C   UNL     1      -1.727   1.611  24.791  0.00  0.00    +0.251 A 
ATOM     13  N   UNL     1      -2.051   0.899  25.055  0.00  0.00    -0.190 NA
BRANCH   9   6
ATOM      3  C   UNL     1      -2.481  -2.078  24.655  0.00  0.00    +0.148 A 
ATOM      4  C   UNL     1      -3.064  -1.502  24.567  0.00  0.00    +0.036 A 
ATOM      5  C   UNL     1      -2.854  -0.705  24.520  0.00  0.00    +0.008 A 
ATOM      6  C   UNL     1      -2.060  -0.486  24.560  0.00  0.00    +0.058 A 
ATOM      7  C   UNL     1      -1.476  -1.062  24.649  0.00  0.00    +0.103 A 
ATOM      8  N   UNL     1      -1.686  -1.858  24.696  0.00  0.00    -0.228 NA
BRANCH   3   2
ATOM      1  C   UNL     1      -3.466  -3.107  24.539  0.00  0.00    +0.137 C 
ATOM      2  N   UNL     1      -2.691  -2.875  24.703  0.00  0.00    -0.218 NA
ENDBRANCH   3   2
ENDBRANCH   9   6
ENDBRANCH  14  12
BRANCH  18  19
ATOM     19  C   UNL     1      -3.140   2.714  24.712  0.00  0.00    +0.100 C 
BRANCH  19  20
ATOM     20  C   UNL     1      -3.839   3.085  24.944  0.00  0.00    -0.004 A 
ATOM     21  C   UNL     1      -4.339   2.719  25.489  0.00  0.00    +0.029 A 
ATOM     22  C   UNL     1      -5.039   3.090  25.721  0.00  0.00    +0.167 A 
ATOM     23  F   UNL     1      -5.539   2.724  26.267  0.00  0.00    -0.202 F 
ATOM     24  C   UNL     1      -5.238   3.827  25.408  0.00  0.00    +0.167 A 
ATOM     25  F   UNL     1      -5.938   4.198  25.640  0.00  0.00    -0.202 F 
ATOM     26  C   UNL     1      -4.738   4.192  24.863  0.00  0.00    +0.032 A 
ATOM     27  C   UNL     1      -4.039   3.822  24.631  0.00  0.00    -0.000 A 
ENDBRANCH  19  20
ENDBRANCH  18  19
TORSDOF 5
ENDMDL
MODEL 8
REMARK VINA RESULT:      -8.2     16.300     18.522
REMARK  Name = 
REMARK  5 active torsions:
REMARK  status: ('A' for Active; 'I' for Inactive)
REMARK    1  A    between atoms: N_2  and  C_3
REMARK    2  A    between atoms: C_6  and  C_9
REMARK    3  A    between atoms: C_12  and  C_14
REMARK    4  A    between atoms: N_18  and  C_19
REMARK    5  A    between atoms: C_19  and  C_20
REMARK                            x       y       z     vdW  Elec       q    Type
REMARK                         _______ _______ _______ _____ _____    ______ ____
ROOT
ATOM     14  C   UNL     1      12.475   8.423  19.045  0.00  0.00    +0.138 C 
ATOM     15  C   UNL     1      12.036   8.494  18.350  0.00  0.00    +0.027 C 
ATOM     16  C   UNL     1      11.237   8.496  18.552  0.00  0.00    +0.019 C 
ATOM     17  C   UNL     1      11.181   8.426  19.372  0.00  0.00    +0.073 C 
ATOM     18  N   UNL     1      11.947   8.381  19.677  0.00  0.00    -0.263 NA
ENDROOT
BRANCH  14  12
ATOM      9  C   UNL     1      14.551   7.948  19.200  0.00  0.00    +0.205 A 
ATOM     10  N   UNL     1      14.578   8.772  19.162  0.00  0.00    -0.056 NA
ATOM     11  O   UNL     1      13.804   9.050  19.099  0.00  0.00    -0.336 OA
ATOM     12  C   UNL     1      13.298   8.399  19.098  0.00  0.00    +0.251 A 
ATOM     13  N   UNL     1      13.760   7.717  19.161  0.00  0.00    -0.190 NA
BRANCH   9   6
ATOM      3  C   UNL     1      16.500   6.435  19.397  0.00  0.00    +0.148 A 
ATOM      4  C   UNL     1      16.321   6.960  20.007  0.00  0.00    +0.036 A 
ATOM      5  C   UNL     1      15.671   7.464  19.942  0.00  0.00    +0.008 A 
ATOM      6  C   UNL     1      15.200   7.444  19.265  0.00  0.00    +0.058 A 
ATOM      7  C   UNL     1      15.378   6.919  18.654  0.00  0.00    +0.103 A 
ATOM      8  N   UNL     1      16.028   6.415  18.719  0.00  0.00    -0.228 NA
BRANCH   3   2
ATOM      1  C   UNL     1      17.405   5.501  18.806  0.00  0.00    +0.137 C 
ATOM      2  N   UNL     1      17.149   5.931  19.462  0.00  0.00    -0.218 NA
ENDBRANCH   3   2
ENDBRANCH   9   6
ENDBRANCH  14  12
BRANCH  18  19
ATOM     19  C   UNL     1      12.148   8.307  20.473  0.00  0.00    +0.100 C 
BRANCH  19  20
ATOM     20  C   UNL     1      11.565   8.141  21.032  0.00  0.00    -0.004 A 
ATOM     21  C   UNL     1      11.351   7.359  21.186  0.00  0.00    +0.029 A 
ATOM     22  C   UNL     1      10.767   7.192  21.745  0.00  0.00    +0.167 A 
ATOM     23  F   UNL     1      10.553   6.410  21.898  0.00  0.00    -0.202 F 
ATOM     24  C   UNL     1      10.398   7.809  22.151  0.00  0.00    +0.167 A 
ATOM     25  F   UNL     1       9.815   7.642  22.711  0.00  0.00    -0.202 F 
ATOM     26  C   UNL     1      10.613   8.590  21.998  0.00  0.00    +0.032 A 
ATOM     27  C   UNL     1      11.195   8.756  21.439  0.00  0.00    -0.000 A 
ENDBRANCH  19  20
ENDBRANCH  18  19
TORSDOF 5
ENDMDL
