REMARK  Name = 
REMARK  7 active torsions:
REMARK  status: ('A' for Active; 'I' for Inactive)
REMARK    1  A    between atoms: O_2  and  C_3
REMARK    2  A    between atoms: C_6  and  C_7
REMARK    3  A    between atoms: C_7  and  N_8
REMARK    4  A    between atoms: N_8  and  C_9
REMARK    5  A    between atoms: C_12  and  C_13
REMARK    6  A    between atoms: C_13  and  N_14
REMARK    7  A    between atoms: N_17  and  C_18
REMARK                            x       y       z     vdW  Elec       q    Type
REMARK                         _______ _______ _______ _____ _____    ______ ____
ROOT
ATOM      9  C   UNL     1      -1.306  -2.197   0.000  0.00  0.00    +0.135 C 
ATOM     10  C   UNL     1      -0.893  -1.483   0.000  0.00  0.00    +0.162 C 
ATOM     11  O   UNL     1      -0.086  -1.655   0.000  0.00  0.00    -0.350 OA
ATOM     12  C   UNL     1       0.000  -2.475   0.000  0.00  0.00    +0.169 C 
ATOM     24  C   UNL     1      -0.754  -2.811   0.000  0.00  0.00    +0.199 C 
ATOM     25  O   UNL     1      -0.925  -3.618   0.000  0.00  0.00    -0.219 OA
ENDROOT
BRANCH   9   8
ATOM      8  N   UNL     1      -2.126  -2.284   0.000  0.00  0.00    -0.209 NA
BRANCH   8   7
ATOM      7  C   UNL     1      -2.611  -1.616   0.000  0.00  0.00    +0.115 C 
BRANCH   7   6
ATOM      3  C   UNL     1      -5.073  -1.875   0.000  0.00  0.00    +0.139 A 
ATOM      4  C   UNL     1      -4.737  -1.121   0.000  0.00  0.00    +0.037 A 
ATOM      5  C   UNL     1      -3.917  -1.035   0.000  0.00  0.00    +0.000 A 
ATOM      6  C   UNL     1      -3.432  -1.702   0.000  0.00  0.00    -0.005 A 
ATOM     26  C   UNL     1      -3.767  -2.456   0.000  0.00  0.00    +0.000 A 
ATOM     27  C   UNL     1      -4.588  -2.542   0.000  0.00  0.00    +0.037 A 
BRANCH   3   2
ATOM      1  C   UNL     1      -6.229  -2.715   0.000  0.00  0.00    +0.252 C 
ATOM      2  O   UNL     1      -5.893  -1.961   0.000  0.00  0.00    -0.471 OA
ENDBRANCH   3   2
ENDBRANCH   7   6
ENDBRANCH   8   7
ENDBRANCH   9   8
BRANCH  12  13
ATOM     13  C   UNL     1       0.715  -2.888   0.000  0.00  0.00    +0.149 C 
BRANCH  13  14
ATOM     14  N   UNL     1       1.429  -2.475   0.000  0.00  0.00    -0.184 NA
ATOM     15  C   UNL     1       2.143  -2.888   0.000  0.00  0.00    +0.344 C 
ATOM     16  O   UNL     1       2.143  -3.712   0.000  0.00  0.00    -0.249 OA
ATOM     17  N   UNL     1       2.858  -2.475   0.000  0.00  0.00    -0.161 NA
BRANCH  17  18
ATOM     18  C   UNL     1       3.572  -2.888   0.000  0.00  0.00    +0.075 A 
ATOM     19  C   UNL     1       4.287  -2.475   0.000  0.00  0.00    +0.017 A 
ATOM     20  C   UNL     1       5.001  -2.888   0.000  0.00  0.00    +0.001 A 
ATOM     21  C   UNL     1       5.001  -3.712   0.000  0.00  0.00    +0.000 A 
ATOM     22  C   UNL     1       4.287  -4.125   0.000  0.00  0.00    +0.001 A 
ATOM     23  C   UNL     1       3.572  -3.712   0.000  0.00  0.00    +0.017 A 
ENDBRANCH  17  18
ENDBRANCH  13  14
ENDBRANCH  12  13
TORSDOF 7
