MODEL 1
REMARK VINA RESULT:      -8.8      0.000      0.000
REMARK  Name = 
REMARK  7 active torsions:
REMARK  status: ('A' for Active; 'I' for Inactive)
REMARK    1  A    between atoms: C_2  and  N_4
REMARK    2  A    between atoms: N_7  and  C_8
REMARK    3  A    between atoms: C_8  and  C_9
REMARK    4  A    between atoms: C_11  and  C_12
REMARK    5  A    between atoms: C_12  and  C_13
REMARK    6  A    between atoms: N_15  and  C_16
REMARK    7  A    between atoms: C_16  and  C_17
REMARK                            x       y       z     vdW  Elec       q    Type
REMARK                         _______ _______ _______ _____ _____    ______ ____
ROOT
ATOM      9  C   UNL     1      -4.423   2.726  25.350  0.00  0.00    +0.170 C 
ATOM     10  O   UNL     1      -4.246   1.958  25.106  0.00  0.00    -0.351 OA
ATOM     11  C   UNL     1      -4.959   1.560  24.982  0.00  0.00    +0.157 C 
ATOM     19  C   UNL     1      -5.575   2.081  25.149  0.00  0.00    +0.212 C 
ATOM     20  O   UNL     1      -6.381   1.912  25.098  0.00  0.00    -0.218 OA
ATOM     21  C   UNL     1      -5.244   2.802  25.377  0.00  0.00    +0.213 C 
ATOM     22  O   UNL     1      -5.661   3.480  25.593  0.00  0.00    -0.218 OA
ENDROOT
BRANCH   9   8
ATOM      8  C   UNL     1      -3.875   3.314  25.535  0.00  0.00    +0.149 C 
BRANCH   8   7
ATOM      4  N   UNL     1      -1.956   4.037  24.790  0.00  0.00    -0.189 NA
ATOM      5  C   UNL     1      -2.589   3.890  25.297  0.00  0.00    +0.339 C 
ATOM      6  O   UNL     1      -2.570   4.169  26.073  0.00  0.00    -0.249 OA
ATOM      7  N   UNL     1      -3.241   3.462  25.028  0.00  0.00    -0.185 NA
BRANCH   4   2
ATOM      1  C   UNL     1      -0.628   4.068  25.319  0.00  0.00    +0.023 C 
ATOM      2  C   UNL     1      -1.303   4.465  25.058  0.00  0.00    +0.097 C 
ATOM      3  C   UNL     1      -1.325   5.289  25.066  0.00  0.00    +0.023 C 
ENDBRANCH   4   2
ENDBRANCH   8   7
ENDBRANCH   9   8
BRANCH  11  12
ATOM     12  C   UNL     1      -5.040   0.776  24.733  0.00  0.00    +0.119 C 
BRANCH  12  13
ATOM     13  C   UNL     1      -4.371   0.336  24.537  0.00  0.00    +0.245 C 
ATOM     14  O   UNL     1      -3.882   0.580  23.919  0.00  0.00    -0.273 OA
ATOM     15  N   UNL     1      -4.192  -0.350  24.959  0.00  0.00    -0.191 NA
BRANCH  15  16
ATOM     16  C   UNL     1      -3.522  -0.792  24.763  0.00  0.00    +0.191 C 
BRANCH  16  17
ATOM     17  C   UNL     1      -3.451  -1.570  25.026  0.00  0.00    -0.054 C 
ATOM     18  C   UNL     1      -3.381  -2.349  25.290  0.00  0.00    -0.012 C 
ENDBRANCH  16  17
ENDBRANCH  15  16
ENDBRANCH  12  13
ENDBRANCH  11  12
TORSDOF 7
ENDMDL
MODEL 2
REMARK VINA RESULT:      -8.8      0.812      4.436
REMARK  Name = 
REMARK  7 active torsions:
REMARK  status: ('A' for Active; 'I' for Inactive)
REMARK    1  A    between atoms: C_2  and  N_4
REMARK    2  A    between atoms: N_7  and  C_8
REMARK    3  A    between atoms: C_8  and  C_9
REMARK    4  A    between atoms: C_11  and  C_12
REMARK    5  A    between atoms: C_12  and  C_13
REMARK    6  A    between atoms: N_15  and  C_16
REMARK    7  A    between atoms: C_16  and  C_17
REMARK                            x       y       z     vdW  Elec       q    Type
REMARK                         _______ _______ _______ _____ _____    ______ ____
ROOT
ATOM      9  C   UNL     1      -4.782   1.832  25.291  0.00  0.00    +0.170 C 
ATOM     10  O   UNL     1      -4.160   2.360  25.167  0.00  0.00    -0.351 OA
ATOM     11  C   UNL     1      -4.462   3.127  25.223  0.00  0.00    +0.157 C 
ATOM     19  C   UNL     1      -5.269   3.072  25.383  0.00  0.00    +0.212 C 
ATOM     20  O   UNL     1      -5.788   3.706  25.483  0.00  0.00    -0.218 OA
ATOM     21  C   UNL     1      -5.467   2.272  25.425  0.00  0.00    +0.213 C 
ATOM     22  O   UNL     1      -6.218   1.965  25.575  0.00  0.00    -0.218 OA
ENDROOT
BRANCH   9   8
ATOM      8  C   UNL     1      -4.727   1.010  25.284  0.00  0.00    +0.149 C 
BRANCH   8   7
ATOM      4  N   UNL     1      -3.775  -0.559  24.103  0.00  0.00    -0.189 NA
ATOM      5  C   UNL     1      -4.163  -0.177  24.722  0.00  0.00    +0.339 C 
ATOM      6  O   UNL     1      -4.375  -0.598  25.400  0.00  0.00    -0.249 OA
ATOM      7  N   UNL     1      -4.340   0.627  24.665  0.00  0.00    -0.185 NA
BRANCH   4   2
ATOM      1  C   UNL     1      -4.144  -1.925  23.899  0.00  0.00    +0.023 C 
ATOM      2  C   UNL     1      -3.599  -1.363  24.160  0.00  0.00    +0.097 C 
ATOM      3  C   UNL     1      -2.878  -1.606  24.479  0.00  0.00    +0.023 C 
ENDBRANCH   4   2
ENDBRANCH   8   7
ENDBRANCH   9   8
BRANCH  11  12
ATOM     12  C   UNL     1      -4.031   3.825  25.135  0.00  0.00    +0.119 C 
BRANCH  12  13
ATOM     13  C   UNL     1      -3.313   3.919  25.531  0.00  0.00    +0.245 C 
ATOM     14  O   UNL     1      -3.282   3.842  26.352  0.00  0.00    -0.273 OA
ATOM     15  N   UNL     1      -2.628   4.090  25.106  0.00  0.00    -0.191 NA
BRANCH  15  16
ATOM     16  C   UNL     1      -1.910   4.184  25.503  0.00  0.00    +0.191 C 
BRANCH  16  17
ATOM     17  C   UNL     1      -1.268   4.530  25.116  0.00  0.00    -0.054 C 
ATOM     18  C   UNL     1      -0.626   4.877  24.731  0.00  0.00    -0.012 C 
ENDBRANCH  16  17
ENDBRANCH  15  16
ENDBRANCH  12  13
ENDBRANCH  11  12
TORSDOF 7
ENDMDL
MODEL 3
REMARK VINA RESULT:      -8.2      2.566      3.666
REMARK  Name = 
REMARK  7 active torsions:
REMARK  status: ('A' for Active; 'I' for Inactive)
REMARK    1  A    between atoms: C_2  and  N_4
REMARK    2  A    between atoms: N_7  and  C_8
REMARK    3  A    between atoms: C_8  and  C_9
REMARK    4  A    between atoms: C_11  and  C_12
REMARK    5  A    between atoms: C_12  and  C_13
REMARK    6  A    between atoms: N_15  and  C_16
REMARK    7  A    between atoms: C_16  and  C_17
REMARK                            x       y       z     vdW  Elec       q    Type
REMARK                         _______ _______ _______ _____ _____    ______ ____
ROOT
ATOM      9  C   UNL     1      -0.581   0.984  24.869  0.00  0.00    +0.170 C 
ATOM     10  O   UNL     1      -1.026   0.355  25.166  0.00  0.00    -0.351 OA
ATOM     11  C   UNL     1      -0.790  -0.331  24.773  0.00  0.00    +0.157 C 
ATOM     19  C   UNL     1      -0.200  -0.127  24.234  0.00  0.00    +0.212 C 
ATOM     20  O   UNL     1       0.192  -0.645  23.726  0.00  0.00    -0.218 OA
ATOM     21  C   UNL     1      -0.071   0.685  24.293  0.00  0.00    +0.213 C 
ATOM     22  O   UNL     1       0.473   1.124  23.854  0.00  0.00    -0.218 OA
ENDROOT
BRANCH   9   8
ATOM      8  C   UNL     1      -0.637   1.772  25.106  0.00  0.00    +0.149 C 
BRANCH   8   7
ATOM      4  N   UNL     1      -2.134   3.358  25.182  0.00  0.00    -0.189 NA
ATOM      5  C   UNL     1      -1.440   2.935  25.320  0.00  0.00    +0.339 C 
ATOM      6  O   UNL     1      -0.855   3.248  25.809  0.00  0.00    -0.249 OA
ATOM      7  N   UNL     1      -1.331   2.196  24.969  0.00  0.00    -0.185 NA
BRANCH   4   2
ATOM      1  C   UNL     1      -2.771   4.180  26.163  0.00  0.00    +0.023 C 
ATOM      2  C   UNL     1      -2.243   4.097  25.534  0.00  0.00    +0.097 C 
ATOM      3  C   UNL     1      -1.826   4.751  25.257  0.00  0.00    +0.023 C 
ENDBRANCH   4   2
ENDBRANCH   8   7
ENDBRANCH   9   8
BRANCH  11  12
ATOM     12  C   UNL     1      -1.092  -1.090  24.898  0.00  0.00    +0.119 C 
BRANCH  12  13
ATOM     13  C   UNL     1      -1.872  -1.186  25.149  0.00  0.00    +0.245 C 
ATOM     14  O   UNL     1      -2.085  -0.988  25.920  0.00  0.00    -0.273 OA
ATOM     15  N   UNL     1      -2.438  -1.481  24.626  0.00  0.00    -0.191 NA
BRANCH  15  16
ATOM     16  C   UNL     1      -3.219  -1.578  24.876  0.00  0.00    +0.191 C 
BRANCH  16  17
ATOM     17  C   UNL     1      -3.784  -1.875  24.355  0.00  0.00    -0.054 C 
ATOM     18  C   UNL     1      -4.350  -2.170  23.832  0.00  0.00    -0.012 C 
ENDBRANCH  16  17
ENDBRANCH  15  16
ENDBRANCH  12  13
ENDBRANCH  11  12
TORSDOF 7
ENDMDL
MODEL 4
REMARK VINA RESULT:      -8.0      1.839      4.941
REMARK  Name = 
REMARK  7 active torsions:
REMARK  status: ('A' for Active; 'I' for Inactive)
REMARK    1  A    between atoms: C_2  and  N_4
REMARK    2  A    between atoms: N_7  and  C_8
REMARK    3  A    between atoms: C_8  and  C_9
REMARK    4  A    between atoms: C_11  and  C_12
REMARK    5  A    between atoms: C_12  and  C_13
REMARK    6  A    between atoms: N_15  and  C_16
REMARK    7  A    between atoms: C_16  and  C_17
REMARK                            x       y       z     vdW  Elec       q    Type
REMARK                         _______ _______ _______ _____ _____    ______ ____
ROOT
ATOM      9  C   UNL     1      -1.676   1.130  25.058  0.00  0.00    +0.170 C 
ATOM     10  O   UNL     1      -2.226   1.744  25.084  0.00  0.00    -0.351 OA
ATOM     11  C   UNL     1      -1.829   2.431  25.314  0.00  0.00    +0.157 C 
ATOM     19  C   UNL     1      -1.035   2.241  25.429  0.00  0.00    +0.212 C 
ATOM     20  O   UNL     1      -0.440   2.762  25.662  0.00  0.00    -0.218 OA
ATOM     21  C   UNL     1      -0.940   1.436  25.271  0.00  0.00    +0.213 C 
ATOM     22  O   UNL     1      -0.234   1.012  25.317  0.00  0.00    -0.218 OA
ENDROOT
BRANCH   9   8
ATOM      8  C   UNL     1      -1.835   0.347  24.854  0.00  0.00    +0.149 C 
BRANCH   8   7
ATOM      4  N   UNL     1      -3.505  -1.057  24.891  0.00  0.00    -0.189 NA
ATOM      5  C   UNL     1      -2.765  -0.732  24.731  0.00  0.00    +0.339 C 
ATOM      6  O   UNL     1      -2.212  -1.157  24.290  0.00  0.00    -0.249 OA
ATOM      7  N   UNL     1      -2.575   0.020  25.013  0.00  0.00    -0.185 NA
BRANCH   4   2
ATOM      1  C   UNL     1      -3.441  -2.480  25.019  0.00  0.00    +0.023 C 
ATOM      2  C   UNL     1      -3.694  -1.810  24.608  0.00  0.00    +0.097 C 
ATOM      3  C   UNL     1      -4.136  -1.892  23.917  0.00  0.00    +0.023 C 
ENDBRANCH   4   2
ENDBRANCH   8   7
ENDBRANCH   9   8
BRANCH  11  12
ATOM     12  C   UNL     1      -2.168   3.178  25.411  0.00  0.00    +0.119 C 
BRANCH  12  13
ATOM     13  C   UNL     1      -2.868   3.366  25.017  0.00  0.00    +0.245 C 
ATOM     14  O   UNL     1      -2.855   3.530  24.209  0.00  0.00    -0.273 OA
ATOM     15  N   UNL     1      -3.580   3.391  25.433  0.00  0.00    -0.191 NA
BRANCH  15  16
ATOM     16  C   UNL     1      -4.280   3.580  25.039  0.00  0.00    +0.191 C 
BRANCH  16  17
ATOM     17  C   UNL     1      -5.008   3.406  25.386  0.00  0.00    -0.054 C 
ATOM     18  C   UNL     1      -5.736   3.231  25.733  0.00  0.00    -0.012 C 
ENDBRANCH  16  17
ENDBRANCH  15  16
ENDBRANCH  12  13
ENDBRANCH  11  12
TORSDOF 7
ENDMDL
MODEL 5
REMARK VINA RESULT:      -8.0      2.216      3.703
REMARK  Name = 
REMARK  7 active torsions:
REMARK  status: ('A' for Active; 'I' for Inactive)
REMARK    1  A    between atoms: C_2  and  N_4
REMARK    2  A    between atoms: N_7  and  C_8
REMARK    3  A    between atoms: C_8  and  C_9
REMARK    4  A    between atoms: C_11  and  C_12
REMARK    5  A    between atoms: C_12  and  C_13
REMARK    6  A    between atoms: N_15  and  C_16
REMARK    7  A    between atoms: C_16  and  C_17
REMARK                            x       y       z     vdW  Elec       q    Type
REMARK                         _______ _______ _______ _____ _____    ______ ____
ROOT
ATOM      9  C   UNL     1      -1.983   1.474  24.282  0.00  0.00    +0.170 C 
ATOM     10  O   UNL     1      -1.990   0.665  24.445  0.00  0.00    -0.351 OA
ATOM     11  C   UNL     1      -1.221   0.380  24.354  0.00  0.00    +0.157 C 
ATOM     19  C   UNL     1      -0.739   1.012  24.135  0.00  0.00    +0.212 C 
ATOM     20  O   UNL     1       0.072   0.975  23.987  0.00  0.00    -0.218 OA
ATOM     21  C   UNL     1      -1.209   1.689  24.090  0.00  0.00    +0.213 C 
ATOM     22  O   UNL     1      -0.953   2.446  23.890  0.00  0.00    -0.218 OA
ENDROOT
BRANCH   9   8
ATOM      8  C   UNL     1      -2.634   1.979  24.306  0.00  0.00    +0.149 C 
BRANCH   8   7
ATOM      4  N   UNL     1      -4.536   2.127  25.366  0.00  0.00    -0.189 NA
ATOM      5  C   UNL     1      -3.955   2.231  24.791  0.00  0.00    +0.339 C 
ATOM      6  O   UNL     1      -4.111   2.692  24.124  0.00  0.00    -0.249 OA
ATOM      7  N   UNL     1      -3.216   1.875  24.881  0.00  0.00    -0.185 NA
BRANCH   4   2
ATOM      1  C   UNL     1      -5.901   2.058  24.946  0.00  0.00    +0.023 C 
ATOM      2  C   UNL     1      -5.275   2.484  25.275  0.00  0.00    +0.097 C 
ATOM      3  C   UNL     1      -5.388   3.265  25.514  0.00  0.00    +0.023 C 
ENDBRANCH   4   2
ENDBRANCH   8   7
ENDBRANCH   9   8
BRANCH  11  12
ATOM     12  C   UNL     1      -0.977  -0.401  24.464  0.00  0.00    +0.119 C 
BRANCH  12  13
ATOM     13  C   UNL     1      -1.430  -0.913  24.925  0.00  0.00    +0.245 C 
ATOM     14  O   UNL     1      -1.391  -0.871  25.748  0.00  0.00    -0.273 OA
ATOM     15  N   UNL     1      -1.921  -1.468  24.563  0.00  0.00    -0.191 NA
BRANCH  15  16
ATOM     16  C   UNL     1      -2.375  -1.980  25.024  0.00  0.00    +0.191 C 
BRANCH  16  17
ATOM     17  C   UNL     1      -2.982  -2.418  24.678  0.00  0.00    -0.054 C 
ATOM     18  C   UNL     1      -3.590  -2.856  24.333  0.00  0.00    -0.012 C 
ENDBRANCH  16  17
ENDBRANCH  15  16
ENDBRANCH  12  13
ENDBRANCH  11  12
TORSDOF 7
ENDMDL
MODEL 6
REMARK VINA RESULT:      -7.1     16.206     19.018
REMARK  Name = 
REMARK  7 active torsions:
REMARK  status: ('A' for Active; 'I' for Inactive)
REMARK    1  A    between atoms: C_2  and  N_4
REMARK    2  A    between atoms: N_7  and  C_8
REMARK    3  A    between atoms: C_8  and  C_9
REMARK    4  A    between atoms: C_11  and  C_12
REMARK    5  A    between atoms: C_12  and  C_13
REMARK    6  A    between atoms: N_15  and  C_16
REMARK    7  A    between atoms: C_16  and  C_17
REMARK                            x       y       z     vdW  Elec       q    Type
REMARK                         _______ _______ _______ _____ _____    ______ ____
ROOT
ATOM      9  C   UNL     1      12.522   7.671  18.724  0.00  0.00    +0.170 C 
ATOM     10  O   UNL     1      13.321   7.673  18.930  0.00  0.00    -0.351 OA
ATOM     11  C   UNL     1      13.763   7.590  18.237  0.00  0.00    +0.157 C 
ATOM     19  C   UNL     1      13.237   7.537  17.604  0.00  0.00    +0.212 C 
ATOM     20  O   UNL     1      13.442   7.449  16.810  0.00  0.00    -0.218 OA
ATOM     21  C   UNL     1      12.470   7.587  17.904  0.00  0.00    +0.213 C 
ATOM     22  O   UNL     1      11.774   7.558  17.464  0.00  0.00    -0.218 OA
ENDROOT
BRANCH   9   8
ATOM      8  C   UNL     1      11.887   7.741  19.245  0.00  0.00    +0.149 C 
BRANCH   8   7
ATOM      4  N   UNL     1      11.480   7.543  21.380  0.00  0.00    -0.189 NA
ATOM      5  C   UNL     1      11.377   7.714  20.580  0.00  0.00    +0.339 C 
ATOM      6  O   UNL     1      10.663   8.028  20.313  0.00  0.00    -0.249 OA
ATOM      7  N   UNL     1      11.990   7.571  20.046  0.00  0.00    -0.185 NA
BRANCH   4   2
ATOM      1  C   UNL     1      10.841   8.399  22.330  0.00  0.00    +0.023 C 
ATOM      2  C   UNL     1      10.868   7.686  21.914  0.00  0.00    +0.097 C 
ATOM      3  C   UNL     1      10.282   7.118  22.034  0.00  0.00    +0.023 C 
ENDBRANCH   4   2
ENDBRANCH   8   7
ENDBRANCH   9   8
BRANCH  11  12
ATOM     12  C   UNL     1      14.587   7.564  18.187  0.00  0.00    +0.119 C 
BRANCH  12  13
ATOM     13  C   UNL     1      15.046   7.819  18.823  0.00  0.00    +0.245 C 
ATOM     14  O   UNL     1      15.019   8.609  19.061  0.00  0.00    -0.273 OA
ATOM     15  N   UNL     1      15.531   7.284  19.221  0.00  0.00    -0.191 NA
BRANCH  15  16
ATOM     16  C   UNL     1      15.991   7.539  19.858  0.00  0.00    +0.191 C 
BRANCH  16  17
ATOM     17  C   UNL     1      16.570   7.043  20.172  0.00  0.00    -0.054 C 
ATOM     18  C   UNL     1      17.149   6.548  20.488  0.00  0.00    -0.012 C 
ENDBRANCH  16  17
ENDBRANCH  15  16
ENDBRANCH  12  13
ENDBRANCH  11  12
TORSDOF 7
ENDMDL
MODEL 7
REMARK VINA RESULT:      -6.9     16.956     18.820
REMARK  Name = 
REMARK  7 active torsions:
REMARK  status: ('A' for Active; 'I' for Inactive)
REMARK    1  A    between atoms: C_2  and  N_4
REMARK    2  A    between atoms: N_7  and  C_8
REMARK    3  A    between atoms: C_8  and  C_9
REMARK    4  A    between atoms: C_11  and  C_12
REMARK    5  A    between atoms: C_12  and  C_13
REMARK    6  A    between atoms: N_15  and  C_16
REMARK    7  A    between atoms: C_16  and  C_17
REMARK                            x       y       z     vdW  Elec       q    Type
REMARK                         _______ _______ _______ _____ _____    ______ ____
ROOT
ATOM      9  C   UNL     1      12.925   7.060  20.358  0.00  0.00    +0.170 C 
ATOM     10  O   UNL     1      12.680   7.631  19.815  0.00  0.00    -0.351 OA
ATOM     11  C   UNL     1      11.878   7.777  19.943  0.00  0.00    +0.157 C 
ATOM     19  C   UNL     1      11.627   7.297  20.565  0.00  0.00    +0.212 C 
ATOM     20  O   UNL     1      10.864   7.266  20.876  0.00  0.00    -0.218 OA
ATOM     21  C   UNL     1      12.274   6.854  20.821  0.00  0.00    +0.213 C 
ATOM     22  O   UNL     1      12.271   6.301  21.434  0.00  0.00    -0.218 OA
ENDROOT
BRANCH   9   8
ATOM      8  C   UNL     1      13.686   6.750  20.425  0.00  0.00    +0.149 C 
BRANCH   8   7
ATOM      4  N   UNL     1      15.607   6.857  19.397  0.00  0.00    -0.189 NA
ATOM      5  C   UNL     1      15.033   6.666  19.956  0.00  0.00    +0.339 C 
ATOM      6  O   UNL     1      15.230   6.198  20.607  0.00  0.00    -0.249 OA
ATOM      7  N   UNL     1      14.261   6.942  19.866  0.00  0.00    -0.185 NA
BRANCH   4   2
ATOM      1  C   UNL     1      16.894   6.958  20.013  0.00  0.00    +0.023 C 
ATOM      2  C   UNL     1      16.380   6.582  19.487  0.00  0.00    +0.097 C 
ATOM      3  C   UNL     1      16.639   5.930  19.053  0.00  0.00    +0.023 C 
ENDBRANCH   4   2
ENDBRANCH   8   7
ENDBRANCH   9   8
BRANCH  11  12
ATOM     12  C   UNL     1      11.409   8.311  19.522  0.00  0.00    +0.119 C 
BRANCH  12  13
ATOM     13  C   UNL     1      11.665   8.598  18.793  0.00  0.00    +0.245 C 
ATOM     14  O   UNL     1      12.325   9.091  18.751  0.00  0.00    -0.273 OA
ATOM     15  N   UNL     1      11.261   8.391  18.104  0.00  0.00    -0.191 NA
BRANCH  15  16
ATOM     16  C   UNL     1      11.517   8.678  17.374  0.00  0.00    +0.191 C 
BRANCH  16  17
ATOM     17  C   UNL     1      11.008   8.664  16.724  0.00  0.00    -0.054 C 
ATOM     18  C   UNL     1      10.499   8.651  16.075  0.00  0.00    -0.012 C 
ENDBRANCH  16  17
ENDBRANCH  15  16
ENDBRANCH  12  13
ENDBRANCH  11  12
TORSDOF 7
ENDMDL
MODEL 8
REMARK VINA RESULT:      -6.9     16.375     19.057
REMARK  Name = 
REMARK  7 active torsions:
REMARK  status: ('A' for Active; 'I' for Inactive)
REMARK    1  A    between atoms: C_2  and  N_4
REMARK    2  A    between atoms: N_7  and  C_8
REMARK    3  A    between atoms: C_8  and  C_9
REMARK    4  A    between atoms: C_11  and  C_12
REMARK    5  A    between atoms: C_12  and  C_13
REMARK    6  A    between atoms: N_15  and  C_16
REMARK    7  A    between atoms: C_16  and  C_17
REMARK                            x       y       z     vdW  Elec       q    Type
REMARK                         _______ _______ _______ _____ _____    ______ ____
ROOT
ATOM      9  C   UNL     1      13.511   7.691  18.390  0.00  0.00    +0.170 C 
ATOM     10  O   UNL     1      12.933   7.902  18.939  0.00  0.00    -0.351 OA
ATOM     11  C   UNL     1      12.212   7.955  18.541  0.00  0.00    +0.157 C 
ATOM     19  C   UNL     1      12.344   7.776  17.748  0.00  0.00    +0.212 C 
ATOM     20  O   UNL     1      11.774   7.762  17.152  0.00  0.00    -0.218 OA
ATOM     21  C   UNL     1      13.147   7.613  17.653  0.00  0.00    +0.213 C 
ATOM     22  O   UNL     1      13.522   7.407  16.948  0.00  0.00    -0.218 OA
ENDROOT
BRANCH   9   8
ATOM      8  C   UNL     1      14.312   7.578  18.550  0.00  0.00    +0.149 C 
BRANCH   8   7
ATOM      4  N   UNL     1      15.561   6.440  19.931  0.00  0.00    -0.189 NA
ATOM      5  C   UNL     1      15.328   7.002  19.375  0.00  0.00    +0.339 C 
ATOM      6  O   UNL     1      15.873   7.550  19.086  0.00  0.00    -0.249 OA
ATOM      7  N   UNL     1      14.547   7.016  19.106  0.00  0.00    -0.185 NA
BRANCH   4   2
ATOM      1  C   UNL     1      16.932   6.085  19.735  0.00  0.00    +0.023 C 
ATOM      2  C   UNL     1      16.342   6.426  20.200  0.00  0.00    +0.097 C 
ATOM      3  C   UNL     1      16.532   6.752  20.933  0.00  0.00    +0.023 C 
ENDBRANCH   4   2
ENDBRANCH   8   7
ENDBRANCH   9   8
BRANCH  11  12
ATOM     12  C   UNL     1      11.485   8.152  18.880  0.00  0.00    +0.119 C 
BRANCH  12  13
ATOM     13  C   UNL     1      11.449   8.393  19.667  0.00  0.00    +0.245 C 
ATOM     14  O   UNL     1      11.817   9.094  19.902  0.00  0.00    -0.273 OA
ATOM     15  N   UNL     1      11.045   7.934  20.221  0.00  0.00    -0.191 NA
BRANCH  15  16
ATOM     16  C   UNL     1      11.009   8.175  21.009  0.00  0.00    +0.191 C 
BRANCH  16  17
ATOM     17  C   UNL     1      10.669   7.681  21.576  0.00  0.00    -0.054 C 
ATOM     18  C   UNL     1      10.330   7.187  22.143  0.00  0.00    -0.012 C 
ENDBRANCH  16  17
ENDBRANCH  15  16
ENDBRANCH  12  13
ENDBRANCH  11  12
TORSDOF 7
ENDMDL
MODEL 9
REMARK VINA RESULT:      -6.7     17.076     18.684
REMARK  Name = 
REMARK  7 active torsions:
REMARK  status: ('A' for Active; 'I' for Inactive)
REMARK    1  A    between atoms: C_2  and  N_4
REMARK    2  A    between atoms: N_7  and  C_8
REMARK    3  A    between atoms: C_8  and  C_9
REMARK    4  A    between atoms: C_11  and  C_12
REMARK    5  A    between atoms: C_12  and  C_13
REMARK    6  A    between atoms: N_15  and  C_16
REMARK    7  A    between atoms: C_16  and  C_17
REMARK                            x       y       z     vdW  Elec       q    Type
REMARK                         _______ _______ _______ _____ _____    ______ ____
ROOT
ATOM      9  C   UNL     1      12.060   7.558  19.797  0.00  0.00    +0.170 C 
ATOM     10  O   UNL     1      12.869   7.397  19.777  0.00  0.00    -0.351 OA
ATOM     11  C   UNL     1      13.063   6.978  20.461  0.00  0.00    +0.157 C 
ATOM     19  C   UNL     1      12.374   6.880  20.904  0.00  0.00    +0.212 C 
ATOM     20  O   UNL     1      12.315   6.492  21.629  0.00  0.00    -0.218 OA
ATOM     21  C   UNL     1      11.754   7.238  20.494  0.00  0.00    +0.213 C 
ATOM     22  O   UNL     1      10.966   7.271  20.737  0.00  0.00    -0.218 OA
ENDROOT
BRANCH   9   8
ATOM      8  C   UNL     1      11.632   7.966  19.222  0.00  0.00    +0.149 C 
BRANCH   8   7
ATOM      4  N   UNL     1      11.505   8.107  17.049  0.00  0.00    -0.189 NA
ATOM      5  C   UNL     1      11.358   8.245  17.848  0.00  0.00    +0.339 C 
ATOM      6  O   UNL     1      10.791   8.800  18.073  0.00  0.00    -0.249 OA
ATOM      7  N   UNL     1      11.779   7.828  18.423  0.00  0.00    -0.185 NA
BRANCH   4   2
ATOM      1  C   UNL     1      10.277   8.387  16.373  0.00  0.00    +0.023 C 
ATOM      2  C   UNL     1      11.085   8.524  16.473  0.00  0.00    +0.097 C 
ATOM      3  C   UNL     1      11.471   9.076  15.999  0.00  0.00    +0.023 C 
ENDBRANCH   4   2
ENDBRANCH   8   7
ENDBRANCH   9   8
BRANCH  11  12
ATOM     12  C   UNL     1      13.814   6.705  20.665  0.00  0.00    +0.119 C 
BRANCH  12  13
ATOM     13  C   UNL     1      14.482   7.033  20.310  0.00  0.00    +0.245 C 
ATOM     14  O   UNL     1      14.624   7.844  20.366  0.00  0.00    -0.273 OA
ATOM     15  N   UNL     1      15.009   6.550  19.898  0.00  0.00    -0.191 NA
BRANCH  15  16
ATOM     16  C   UNL     1      15.677   6.878  19.542  0.00  0.00    +0.191 C 
BRANCH  16  17
ATOM     17  C   UNL     1      16.279   6.387  19.264  0.00  0.00    -0.054 C 
ATOM     18  C   UNL     1      16.879   5.894  18.985  0.00  0.00    -0.012 C 
ENDBRANCH  16  17
ENDBRANCH  15  16
ENDBRANCH  12  13
ENDBRANCH  11  12
TORSDOF 7
ENDMDL
MODEL 10
REMARK VINA RESULT:      -6.6     15.999     18.879
REMARK  Name = 
REMARK  7 active torsions:
REMARK  status: ('A' for Active; 'I' for Inactive)
REMARK    1  A    between atoms: C_2  and  N_4
REMARK    2  A    between atoms: N_7  and  C_8
REMARK    3  A    between atoms: C_8  and  C_9
REMARK    4  A    between atoms: C_11  and  C_12
REMARK    5  A    between atoms: C_12  and  C_13
REMARK    6  A    between atoms: N_15  and  C_16
REMARK    7  A    between atoms: C_16  and  C_17
REMARK                            x       y       z     vdW  Elec       q    Type
REMARK                         _______ _______ _______ _____ _____    ______ ____
ROOT
ATOM      9  C   UNL     1      13.576   7.103  19.545  0.00  0.00    +0.170 C 
ATOM     10  O   UNL     1      13.280   7.422  18.844  0.00  0.00    -0.351 OA
ATOM     11  C   UNL     1      13.883   7.402  18.281  0.00  0.00    +0.157 C 
ATOM     19  C   UNL     1      14.551   7.072  18.633  0.00  0.00    +0.212 C 
ATOM     20  O   UNL     1      15.281   6.948  18.269  0.00  0.00    -0.218 OA
ATOM     21  C   UNL     1      14.362   6.887  19.415  0.00  0.00    +0.213 C 
ATOM     22  O   UNL     1      14.868   6.546  19.969  0.00  0.00    -0.218 OA
ENDROOT
BRANCH   9   8
ATOM      8  C   UNL     1      13.160   7.016  20.252  0.00  0.00    +0.149 C 
BRANCH   8   7
ATOM      4  N   UNL     1      11.102   7.106  20.972  0.00  0.00    -0.189 NA
ATOM      5  C   UNL     1      11.925   7.059  20.970  0.00  0.00    +0.339 C 
ATOM      6  O   UNL     1      12.338   7.005  21.682  0.00  0.00    -0.249 OA
ATOM      7  N   UNL     1      12.337   7.064  20.254  0.00  0.00    -0.185 NA
BRANCH   4   2
ATOM      1  C   UNL     1      10.544   7.809  22.084  0.00  0.00    +0.023 C 
ATOM      2  C   UNL     1      10.690   7.101  21.687  0.00  0.00    +0.097 C 
ATOM      3  C   UNL     1      10.425   6.388  22.005  0.00  0.00    +0.023 C 
ENDBRANCH   4   2
ENDBRANCH   8   7
ENDBRANCH   9   8
BRANCH  11  12
ATOM     12  C   UNL     1      13.827   7.667  17.501  0.00  0.00    +0.119 C 
BRANCH  12  13
ATOM     13  C   UNL     1      13.426   8.368  17.332  0.00  0.00    +0.245 C 
ATOM     14  O   UNL     1      13.713   9.087  17.618  0.00  0.00    -0.273 OA
ATOM     15  N   UNL     1      12.739   8.349  16.876  0.00  0.00    -0.191 NA
BRANCH  15  16
ATOM     16  C   UNL     1      12.338   9.051  16.707  0.00  0.00    +0.191 C 
BRANCH  16  17
ATOM     17  C   UNL     1      11.617   9.026  16.306  0.00  0.00    -0.054 C 
ATOM     18  C   UNL     1      10.897   9.001  15.904  0.00  0.00    -0.012 C 
ENDBRANCH  16  17
ENDBRANCH  15  16
ENDBRANCH  12  13
ENDBRANCH  11  12
TORSDOF 7
ENDMDL
