MODEL 1
REMARK VINA RESULT:     -10.3      0.000      0.000
REMARK  Name = 
REMARK  6 active torsions:
REMARK  status: ('A' for Active; 'I' for Inactive)
REMARK    1  A    between atoms: C_2  and  N_3
REMARK    2  A    between atoms: C_2  and  C_22
REMARK    3  A    between atoms: C_4  and  C_6
REMARK    4  A    between atoms: C_8  and  N_9
REMARK    5  A    between atoms: C_10  and  C_12
REMARK    6  A    between atoms: C_12  and  C_13
REMARK                            x       y       z     vdW  Elec       q    Type
REMARK                         _______ _______ _______ _____ _____    ______ ____
ROOT
ATOM      6  C   UNL     1      -4.237   1.484  24.854  0.00  0.00    +0.033 C 
ATOM      7  C   UNL     1      -3.694   2.001  25.197  0.00  0.00    -0.002 C 
ATOM      8  C   UNL     1      -3.941   2.742  25.462  0.00  0.00    +0.150 C 
ATOM     17  C   UNL     1      -4.732   2.966  25.384  0.00  0.00    +0.206 C 
ATOM     18  O   UNL     1      -4.979   3.707  25.649  0.00  0.00    -0.218 OA
ATOM     19  C   UNL     1      -5.275   2.448  25.040  0.00  0.00    +0.189 C 
ATOM     20  O   UNL     1      -6.065   2.672  24.962  0.00  0.00    -0.220 OA
ATOM     21  C   UNL     1      -5.027   1.707  24.775  0.00  0.00    +0.066 C 
ENDROOT
BRANCH   6   4
ATOM      3  N   UNL     1      -3.947   0.109  25.115  0.00  0.00    -0.194 NA
ATOM      4  C   UNL     1      -3.990   0.743  24.589  0.00  0.00    +0.261 C 
ATOM      5  O   UNL     1      -3.785   0.635  23.796  0.00  0.00    -0.269 OA
BRANCH   3   2
ATOM      1  C   UNL     1      -3.865  -0.871  24.077  0.00  0.00    +0.033 C 
ATOM      2  C   UNL     1      -3.699  -0.632  24.851  0.00  0.00    +0.175 C 
BRANCH   2  22
ATOM     22  C   UNL     1      -3.287  -1.135  25.357  0.00  0.00    +0.281 C 
ATOM     23  N   UNL     1      -2.568  -1.462  25.120  0.00  0.00    -0.086 NA
ATOM     24  O   UNL     1      -3.593  -1.311  26.103  0.00  0.00    -0.270 OA
ENDBRANCH   2  22
ENDBRANCH   3   2
ENDBRANCH   6   4
BRANCH   8   9
ATOM      9  N   UNL     1      -3.399   3.259  25.806  0.00  0.00    -0.200 NA
ATOM     10  C   UNL     1      -2.765   3.547  25.362  0.00  0.00    +0.242 C 
ATOM     11  O   UNL     1      -2.676   3.318  24.575  0.00  0.00    -0.273 OA
BRANCH  10  12
ATOM     12  C   UNL     1      -2.222   4.065  25.705  0.00  0.00    +0.087 C 
BRANCH  12  13
ATOM     13  C   UNL     1      -1.540   4.279  25.295  0.00  0.00    +0.009 C 
ATOM     14  C   UNL     1      -0.857   4.493  24.883  0.00  0.00    +0.000 C 
ATOM     15  C   UNL     1      -1.901   4.984  25.063  0.00  0.00    +0.000 C 
ATOM     16  C   UNL     1      -1.179   3.574  25.526  0.00  0.00    +0.000 C 
ENDBRANCH  12  13
ENDBRANCH  10  12
ENDBRANCH   8   9
TORSDOF 6
ENDMDL
MODEL 2
REMARK VINA RESULT:     -10.3      1.449      4.231
REMARK  Name = 
REMARK  6 active torsions:
REMARK  status: ('A' for Active; 'I' for Inactive)
REMARK    1  A    between atoms: C_2  and  N_3
REMARK    2  A    between atoms: C_2  and  C_22
REMARK    3  A    between atoms: C_4  and  C_6
REMARK    4  A    between atoms: C_8  and  N_9
REMARK    5  A    between atoms: C_10  and  C_12
REMARK    6  A    between atoms: C_12  and  C_13
REMARK                            x       y       z     vdW  Elec       q    Type
REMARK                         _______ _______ _______ _____ _____    ______ ____
ROOT
ATOM      6  C   UNL     1      -2.986   1.903  24.519  0.00  0.00    +0.033 C 
ATOM      7  C   UNL     1      -3.177   1.136  24.755  0.00  0.00    -0.002 C 
ATOM      8  C   UNL     1      -3.966   0.921  24.863  0.00  0.00    +0.150 C 
ATOM     17  C   UNL     1      -4.565   1.475  24.735  0.00  0.00    +0.206 C 
ATOM     18  O   UNL     1      -5.354   1.261  24.843  0.00  0.00    -0.218 OA
ATOM     19  C   UNL     1      -4.374   2.242  24.499  0.00  0.00    +0.189 C 
ATOM     20  O   UNL     1      -4.972   2.795  24.370  0.00  0.00    -0.220 OA
ATOM     21  C   UNL     1      -3.584   2.455  24.391  0.00  0.00    +0.066 C 
ENDROOT
BRANCH   6   4
ATOM      3  N   UNL     1      -1.718   2.272  25.065  0.00  0.00    -0.194 NA
ATOM      4  C   UNL     1      -2.197   2.116  24.411  0.00  0.00    +0.261 C 
ATOM      5  O   UNL     1      -1.885   2.174  23.648  0.00  0.00    -0.269 OA
BRANCH   3   2
ATOM      1  C   UNL     1      -0.543   2.299  24.251  0.00  0.00    +0.033 C 
ATOM      2  C   UNL     1      -0.928   2.486  24.958  0.00  0.00    +0.175 C 
BRANCH   2  22
ATOM     22  C   UNL     1      -0.524   2.886  25.554  0.00  0.00    +0.281 C 
ATOM     23  N   UNL     1      -0.151   2.462  26.155  0.00  0.00    -0.086 NA
ATOM     24  O   UNL     1      -0.492   3.710  25.550  0.00  0.00    -0.270 OA
ENDBRANCH   2  22
ENDBRANCH   3   2
ENDBRANCH   6   4
BRANCH   8   9
ATOM      9  N   UNL     1      -4.157   0.155  25.099  0.00  0.00    -0.200 NA
ATOM     10  C   UNL     1      -3.951  -0.487  24.622  0.00  0.00    +0.242 C 
ATOM     11  O   UNL     1      -3.554  -0.361  23.911  0.00  0.00    -0.273 OA
BRANCH  10  12
ATOM     12  C   UNL     1      -4.142  -1.254  24.859  0.00  0.00    +0.087 C 
BRANCH  12  13
ATOM     13  C   UNL     1      -3.741  -1.897  24.533  0.00  0.00    +0.009 C 
ATOM     14  C   UNL     1      -3.340  -2.541  24.208  0.00  0.00    +0.000 C 
ATOM     15  C   UNL     1      -3.220  -1.896  25.173  0.00  0.00    +0.000 C 
ATOM     16  C   UNL     1      -4.262  -1.899  23.894  0.00  0.00    +0.000 C 
ENDBRANCH  12  13
ENDBRANCH  10  12
ENDBRANCH   8   9
TORSDOF 6
ENDMDL
MODEL 3
REMARK VINA RESULT:      -9.8      1.835      4.806
REMARK  Name = 
REMARK  6 active torsions:
REMARK  status: ('A' for Active; 'I' for Inactive)
REMARK    1  A    between atoms: C_2  and  N_3
REMARK    2  A    between atoms: C_2  and  C_22
REMARK    3  A    between atoms: C_4  and  C_6
REMARK    4  A    between atoms: C_8  and  N_9
REMARK    5  A    between atoms: C_10  and  C_12
REMARK    6  A    between atoms: C_12  and  C_13
REMARK                            x       y       z     vdW  Elec       q    Type
REMARK                         _______ _______ _______ _____ _____    ______ ____
ROOT
ATOM      6  C   UNL     1      -2.156   1.680  24.542  0.00  0.00    +0.033 C 
ATOM      7  C   UNL     1      -2.345   0.942  24.858  0.00  0.00    -0.002 C 
ATOM      8  C   UNL     1      -1.750   0.387  24.994  0.00  0.00    +0.150 C 
ATOM     17  C   UNL     1      -0.966   0.570  24.814  0.00  0.00    +0.206 C 
ATOM     18  O   UNL     1      -0.371   0.015  24.950  0.00  0.00    -0.218 OA
ATOM     19  C   UNL     1      -0.777   1.309  24.498  0.00  0.00    +0.189 C 
ATOM     20  O   UNL     1       0.007   1.491  24.318  0.00  0.00    -0.220 OA
ATOM     21  C   UNL     1      -1.372   1.863  24.362  0.00  0.00    +0.066 C 
ENDROOT
BRANCH   6   4
ATOM      3  N   UNL     1      -3.061   2.671  25.034  0.00  0.00    -0.194 NA
ATOM      4  C   UNL     1      -2.750   2.235  24.406  0.00  0.00    +0.261 C 
ATOM      5  O   UNL     1      -3.036   2.355  23.640  0.00  0.00    -0.269 OA
BRANCH   3   2
ATOM      1  C   UNL     1      -3.876   3.415  24.125  0.00  0.00    +0.033 C 
ATOM      2  C   UNL     1      -3.656   3.226  24.899  0.00  0.00    +0.175 C 
BRANCH   2  22
ATOM     22  C   UNL     1      -4.031   3.592  25.535  0.00  0.00    +0.281 C 
ATOM     23  N   UNL     1      -4.849   3.533  25.620  0.00  0.00    -0.086 NA
ATOM     24  O   UNL     1      -3.589   4.018  26.086  0.00  0.00    -0.270 OA
ENDBRANCH   2  22
ENDBRANCH   3   2
ENDBRANCH   6   4
BRANCH   8   9
ATOM      9  N   UNL     1      -1.939  -0.351  25.310  0.00  0.00    -0.200 NA
ATOM     10  C   UNL     1      -2.440  -0.861  24.897  0.00  0.00    +0.242 C 
ATOM     11  O   UNL     1      -2.750  -0.632  24.168  0.00  0.00    -0.273 OA
BRANCH  10  12
ATOM     12  C   UNL     1      -2.629  -1.599  25.213  0.00  0.00    +0.087 C 
BRANCH  12  13
ATOM     13  C   UNL     1      -3.142  -2.101  24.808  0.00  0.00    +0.009 C 
ATOM     14  C   UNL     1      -3.656  -2.604  24.402  0.00  0.00    +0.000 C 
ATOM     15  C   UNL     1      -2.497  -2.489  24.470  0.00  0.00    +0.000 C 
ATOM     16  C   UNL     1      -3.788  -1.714  25.145  0.00  0.00    +0.000 C 
ENDBRANCH  12  13
ENDBRANCH  10  12
ENDBRANCH   8   9
TORSDOF 6
ENDMDL
MODEL 4
REMARK VINA RESULT:      -9.8      2.041      3.161
REMARK  Name = 
REMARK  6 active torsions:
REMARK  status: ('A' for Active; 'I' for Inactive)
REMARK    1  A    between atoms: C_2  and  N_3
REMARK    2  A    between atoms: C_2  and  C_22
REMARK    3  A    between atoms: C_4  and  C_6
REMARK    4  A    between atoms: C_8  and  N_9
REMARK    5  A    between atoms: C_10  and  C_12
REMARK    6  A    between atoms: C_12  and  C_13
REMARK                            x       y       z     vdW  Elec       q    Type
REMARK                         _______ _______ _______ _____ _____    ______ ____
ROOT
ATOM      6  C   UNL     1      -1.450   0.139  24.963  0.00  0.00    +0.033 C 
ATOM      7  C   UNL     1      -1.328   0.878  25.310  0.00  0.00    -0.002 C 
ATOM      8  C   UNL     1      -0.691   1.345  25.073  0.00  0.00    +0.150 C 
ATOM     17  C   UNL     1      -0.176   1.074  24.488  0.00  0.00    +0.206 C 
ATOM     18  O   UNL     1       0.461   1.541  24.251  0.00  0.00    -0.218 OA
ATOM     19  C   UNL     1      -0.298   0.335  24.141  0.00  0.00    +0.189 C 
ATOM     20  O   UNL     1       0.217   0.064  23.557  0.00  0.00    -0.220 OA
ATOM     21  C   UNL     1      -0.935  -0.132  24.379  0.00  0.00    +0.066 C 
ENDROOT
BRANCH   6   4
ATOM      3  N   UNL     1      -2.755  -0.390  24.720  0.00  0.00    -0.194 NA
ATOM      4  C   UNL     1      -2.087  -0.327  25.201  0.00  0.00    +0.261 C 
ATOM      5  O   UNL     1      -2.056  -0.732  25.920  0.00  0.00    -0.269 OA
BRANCH   3   2
ATOM      1  C   UNL     1      -3.360  -1.266  25.675  0.00  0.00    +0.033 C 
ATOM      2  C   UNL     1      -3.393  -0.857  24.958  0.00  0.00    +0.175 C 
BRANCH   2  22
ATOM     22  C   UNL     1      -4.062  -0.915  24.480  0.00  0.00    +0.281 C 
ATOM     23  N   UNL     1      -4.225  -1.619  24.083  0.00  0.00    -0.086 NA
ATOM     24  O   UNL     1      -4.569  -0.269  24.400  0.00  0.00    -0.270 OA
ENDBRANCH   2  22
ENDBRANCH   3   2
ENDBRANCH   6   4
BRANCH   8   9
ATOM      9  N   UNL     1      -0.570   2.083  25.419  0.00  0.00    -0.200 NA
ATOM     10  C   UNL     1      -1.112   2.693  25.293  0.00  0.00    +0.242 C 
ATOM     11  O   UNL     1      -1.775   2.563  24.820  0.00  0.00    -0.273 OA
BRANCH  10  12
ATOM     12  C   UNL     1      -0.990   3.432  25.640  0.00  0.00    +0.087 C 
BRANCH  12  13
ATOM     13  C   UNL     1      -1.477   4.066  25.440  0.00  0.00    +0.009 C 
ATOM     14  C   UNL     1      -1.966   4.701  25.241  0.00  0.00    +0.000 C 
ATOM     15  C   UNL     1      -2.055   3.786  25.959  0.00  0.00    +0.000 C 
ATOM     16  C   UNL     1      -0.901   4.347  24.921  0.00  0.00    +0.000 C 
ENDBRANCH  12  13
ENDBRANCH  10  12
ENDBRANCH   8   9
TORSDOF 6
ENDMDL
