MODEL 1
REMARK VINA RESULT:     -10.9      0.000      0.000
REMARK  Name = 
REMARK  6 active torsions:
REMARK  status: ('A' for Active; 'I' for Inactive)
REMARK    1  A    between atoms: C_2  and  N_4
REMARK    2  A    between atoms: C_5  and  C_7
REMARK    3  A    between atoms: C_7  and  C_8
REMARK    4  A    between atoms: C_10  and  C_11
REMARK    5  A    between atoms: C_11  and  N_12
REMARK    6  A    between atoms: C_13  and  C_15
REMARK                            x       y       z     vdW  Elec       q    Type
REMARK                         _______ _______ _______ _____ _____    ______ ____
ROOT
ATOM      8  C   UNL     1      -4.992   1.604  24.882  0.00  0.00    +0.157 C 
ATOM      9  O   UNL     1      -4.329   2.038  25.112  0.00  0.00    -0.351 OA
ATOM     10  C   UNL     1      -4.590   2.758  25.417  0.00  0.00    +0.170 C 
ATOM     22  C   UNL     1      -5.414   2.770  25.377  0.00  0.00    +0.213 C 
ATOM     23  O   UNL     1      -5.904   3.385  25.623  0.00  0.00    -0.218 OA
ATOM     24  C   UNL     1      -5.662   2.056  25.046  0.00  0.00    +0.212 C 
ATOM     25  O   UNL     1      -6.444   1.833  24.904  0.00  0.00    -0.218 OA
ENDROOT
BRANCH   8   7
ATOM      7  C   UNL     1      -4.985   0.849  24.548  0.00  0.00    +0.119 C 
BRANCH   7   5
ATOM      4  N   UNL     1      -3.915  -0.041  24.223  0.00  0.00    -0.207 NA
ATOM      5  C   UNL     1      -4.417   0.299  24.783  0.00  0.00    +0.244 C 
ATOM      6  O   UNL     1      -4.350   0.090  25.579  0.00  0.00    -0.273 OA
BRANCH   4   2
ATOM      1  C   UNL     1      -2.566  -0.352  24.576  0.00  0.00    +0.023 C 
ATOM      2  C   UNL     1      -3.348  -0.591  24.459  0.00  0.00    +0.095 C 
ATOM      3  C   UNL     1      -3.560  -1.379  24.577  0.00  0.00    +0.023 C 
ENDBRANCH   4   2
ENDBRANCH   7   5
ENDBRANCH   8   7
BRANCH  10  11
ATOM     11  C   UNL     1      -4.111   3.362  25.712  0.00  0.00    +0.148 C 
BRANCH  11  12
ATOM     12  N   UNL     1      -3.333   3.438  25.450  0.00  0.00    -0.199 NA
ATOM     13  C   UNL     1      -2.811   3.938  25.846  0.00  0.00    +0.265 C 
ATOM     14  O   UNL     1      -3.066   4.364  26.505  0.00  0.00    -0.268 OA
BRANCH  13  15
ATOM     15  C   UNL     1      -2.033   4.014  25.583  0.00  0.00    +0.057 A 
ATOM     16  C   UNL     1      -1.516   3.372  25.631  0.00  0.00    +0.005 A 
ATOM     17  C   UNL     1      -0.738   3.449  25.368  0.00  0.00    +0.002 A 
ATOM     18  C   UNL     1      -0.476   4.166  25.057  0.00  0.00    +0.030 A 
ATOM     19  C   UNL     1      -0.991   4.808  25.009  0.00  0.00    +0.140 A 
ATOM     20  F   UNL     1      -0.730   5.525  24.698  0.00  0.00    -0.204 F 
ATOM     21  C   UNL     1      -1.770   4.731  25.272  0.00  0.00    +0.034 A 
ENDBRANCH  13  15
ENDBRANCH  11  12
ENDBRANCH  10  11
TORSDOF 6
ENDMDL
MODEL 2
REMARK VINA RESULT:     -10.9      2.024      4.692
REMARK  Name = 
REMARK  6 active torsions:
REMARK  status: ('A' for Active; 'I' for Inactive)
REMARK    1  A    between atoms: C_2  and  N_4
REMARK    2  A    between atoms: C_5  and  C_7
REMARK    3  A    between atoms: C_7  and  C_8
REMARK    4  A    between atoms: C_10  and  C_11
REMARK    5  A    between atoms: C_11  and  N_12
REMARK    6  A    between atoms: C_13  and  C_15
REMARK                            x       y       z     vdW  Elec       q    Type
REMARK                         _______ _______ _______ _____ _____    ______ ____
ROOT
ATOM      8  C   UNL     1      -4.192   3.033  25.393  0.00  0.00    +0.157 C 
ATOM      9  O   UNL     1      -3.891   2.371  25.004  0.00  0.00    -0.351 OA
ATOM     10  C   UNL     1      -4.528   1.908  24.760  0.00  0.00    +0.170 C 
ATOM     22  C   UNL     1      -5.223   2.284  24.997  0.00  0.00    +0.213 C 
ATOM     23  O   UNL     1      -5.990   2.013  24.866  0.00  0.00    -0.218 OA
ATOM     24  C   UNL     1      -5.014   2.980  25.388  0.00  0.00    +0.212 C 
ATOM     25  O   UNL     1      -5.537   3.527  25.717  0.00  0.00    -0.218 OA
ENDROOT
BRANCH   8   7
ATOM      7  C   UNL     1      -3.746   3.643  25.727  0.00  0.00    +0.119 C 
BRANCH   7   5
ATOM      4  N   UNL     1      -2.364   3.994  25.811  0.00  0.00    -0.207 NA
ATOM      5  C   UNL     1      -3.049   3.891  25.363  0.00  0.00    +0.244 C 
ATOM      6  O   UNL     1      -3.037   4.037  24.551  0.00  0.00    -0.273 OA
BRANCH   4   2
ATOM      1  C   UNL     1      -1.057   3.703  25.312  0.00  0.00    +0.023 C 
ATOM      2  C   UNL     1      -1.667   4.243  25.447  0.00  0.00    +0.095 C 
ATOM      3  C   UNL     1      -1.579   5.030  25.218  0.00  0.00    +0.023 C 
ENDBRANCH   4   2
ENDBRANCH   7   5
ENDBRANCH   8   7
BRANCH  10  11
ATOM     11  C   UNL     1      -4.480   1.193  24.349  0.00  0.00    +0.148 C 
BRANCH  11  12
ATOM     12  N   UNL     1      -4.259   0.504  24.745  0.00  0.00    -0.199 NA
ATOM     13  C   UNL     1      -3.996  -0.150  24.319  0.00  0.00    +0.265 C 
ATOM     14  O   UNL     1      -3.953  -0.116  23.495  0.00  0.00    -0.268 OA
BRANCH  13  15
ATOM     15  C   UNL     1      -3.776  -0.840  24.714  0.00  0.00    +0.057 A 
ATOM     16  C   UNL     1      -3.423  -0.794  25.459  0.00  0.00    +0.005 A 
ATOM     17  C   UNL     1      -3.203  -1.484  25.854  0.00  0.00    +0.002 A 
ATOM     18  C   UNL     1      -3.335  -2.219  25.506  0.00  0.00    +0.030 A 
ATOM     19  C   UNL     1      -3.688  -2.266  24.762  0.00  0.00    +0.140 A 
ATOM     20  F   UNL     1      -3.821  -3.001  24.413  0.00  0.00    -0.204 F 
ATOM     21  C   UNL     1      -3.908  -1.576  24.366  0.00  0.00    +0.034 A 
ENDBRANCH  13  15
ENDBRANCH  11  12
ENDBRANCH  10  11
TORSDOF 6
ENDMDL
MODEL 3
REMARK VINA RESULT:     -10.3      2.504      3.933
REMARK  Name = 
REMARK  6 active torsions:
REMARK  status: ('A' for Active; 'I' for Inactive)
REMARK    1  A    between atoms: C_2  and  N_4
REMARK    2  A    between atoms: C_5  and  C_7
REMARK    3  A    between atoms: C_7  and  C_8
REMARK    4  A    between atoms: C_10  and  C_11
REMARK    5  A    between atoms: C_11  and  N_12
REMARK    6  A    between atoms: C_13  and  C_15
REMARK                            x       y       z     vdW  Elec       q    Type
REMARK                         _______ _______ _______ _____ _____    ______ ____
ROOT
ATOM      8  C   UNL     1      -1.605  -0.179  24.539  0.00  0.00    +0.157 C 
ATOM      9  O   UNL     1      -2.243   0.341  24.493  0.00  0.00    -0.351 OA
ATOM     10  C   UNL     1      -1.954   1.078  24.263  0.00  0.00    +0.170 C 
ATOM     22  C   UNL     1      -1.138   1.014  24.165  0.00  0.00    +0.213 C 
ATOM     23  O   UNL     1      -0.627   1.619  23.938  0.00  0.00    -0.218 OA
ATOM     24  C   UNL     1      -0.922   0.236  24.336  0.00  0.00    +0.212 C 
ATOM     25  O   UNL     1      -0.157  -0.072  24.309  0.00  0.00    -0.218 OA
ENDROOT
BRANCH   8   7
ATOM      7  C   UNL     1      -1.643  -0.977  24.750  0.00  0.00    +0.119 C 
BRANCH   7   5
ATOM      4  N   UNL     1      -2.665  -1.873  24.308  0.00  0.00    -0.207 NA
ATOM      5  C   UNL     1      -2.376  -1.337  24.866  0.00  0.00    +0.244 C 
ATOM      6  O   UNL     1      -2.821  -1.162  25.539  0.00  0.00    -0.273 OA
BRANCH   4   2
ATOM      1  C   UNL     1      -3.465  -2.874  24.940  0.00  0.00    +0.023 C 
ATOM      2  C   UNL     1      -3.398  -2.233  24.424  0.00  0.00    +0.095 C 
ATOM      3  C   UNL     1      -4.063  -1.953  24.024  0.00  0.00    +0.023 C 
ENDBRANCH   4   2
ENDBRANCH   7   5
ENDBRANCH   8   7
BRANCH  10  11
ATOM     11  C   UNL     1      -2.404   1.761  24.149  0.00  0.00    +0.148 C 
BRANCH  11  12
ATOM     12  N   UNL     1      -3.114   1.861  24.555  0.00  0.00    -0.199 NA
ATOM     13  C   UNL     1      -3.632   2.465  24.339  0.00  0.00    +0.265 C 
ATOM     14  O   UNL     1      -3.440   2.970  23.715  0.00  0.00    -0.268 OA
BRANCH  13  15
ATOM     15  C   UNL     1      -4.343   2.564  24.746  0.00  0.00    +0.057 A 
ATOM     16  C   UNL     1      -4.411   3.153  25.320  0.00  0.00    +0.005 A 
ATOM     17  C   UNL     1      -5.123   3.251  25.726  0.00  0.00    +0.002 A 
ATOM     18  C   UNL     1      -5.765   2.763  25.559  0.00  0.00    +0.030 A 
ATOM     19  C   UNL     1      -5.698   2.175  24.985  0.00  0.00    +0.140 A 
ATOM     20  F   UNL     1      -6.340   1.686  24.817  0.00  0.00    -0.204 F 
ATOM     21  C   UNL     1      -4.986   2.075  24.578  0.00  0.00    +0.034 A 
ENDBRANCH  13  15
ENDBRANCH  11  12
ENDBRANCH  10  11
TORSDOF 6
ENDMDL
MODEL 4
REMARK VINA RESULT:     -10.2      2.271      4.924
REMARK  Name = 
REMARK  6 active torsions:
REMARK  status: ('A' for Active; 'I' for Inactive)
REMARK    1  A    between atoms: C_2  and  N_4
REMARK    2  A    between atoms: C_5  and  C_7
REMARK    3  A    between atoms: C_7  and  C_8
REMARK    4  A    between atoms: C_10  and  C_11
REMARK    5  A    between atoms: C_11  and  N_12
REMARK    6  A    between atoms: C_13  and  C_15
REMARK                            x       y       z     vdW  Elec       q    Type
REMARK                         _______ _______ _______ _____ _____    ______ ____
ROOT
ATOM      8  C   UNL     1      -2.294   3.023  25.365  0.00  0.00    +0.157 C 
ATOM      9  O   UNL     1      -2.444   2.232  25.190  0.00  0.00    -0.351 OA
ATOM     10  C   UNL     1      -1.719   1.849  25.099  0.00  0.00    +0.170 C 
ATOM     22  C   UNL     1      -1.121   2.404  25.218  0.00  0.00    +0.213 C 
ATOM     23  O   UNL     1      -0.310   2.260  25.179  0.00  0.00    -0.218 OA
ATOM     24  C   UNL     1      -1.477   3.130  25.382  0.00  0.00    +0.212 C 
ATOM     25  O   UNL     1      -1.083   3.839  25.537  0.00  0.00    -0.218 OA
ENDROOT
BRANCH   8   7
ATOM      7  C   UNL     1      -2.863   3.606  25.500  0.00  0.00    +0.119 C 
BRANCH   7   5
ATOM      4  N   UNL     1      -4.232   3.392  25.847  0.00  0.00    -0.207 NA
ATOM      5  C   UNL     1      -3.645   3.478  25.273  0.00  0.00    +0.244 C 
ATOM      6  O   UNL     1      -3.842   3.436  24.473  0.00  0.00    -0.273 OA
BRANCH   4   2
ATOM      1  C   UNL     1      -5.503   3.907  25.443  0.00  0.00    +0.023 C 
ATOM      2  C   UNL     1      -5.015   3.264  25.620  0.00  0.00    +0.095 C 
ATOM      3  C   UNL     1      -5.310   2.496  25.569  0.00  0.00    +0.023 C 
ENDBRANCH   4   2
ENDBRANCH   7   5
ENDBRANCH   8   7
BRANCH  10  11
ATOM     11  C   UNL     1      -1.611   1.050  24.920  0.00  0.00    +0.148 C 
BRANCH  11  12
ATOM     12  N   UNL     1      -2.260   0.544  24.883  0.00  0.00    -0.199 NA
ATOM     13  C   UNL     1      -2.159  -0.240  24.648  0.00  0.00    +0.265 C 
ATOM     14  O   UNL     1      -1.408  -0.518  24.450  0.00  0.00    -0.268 OA
BRANCH  13  15
ATOM     15  C   UNL     1      -2.809  -0.747  24.612  0.00  0.00    +0.057 A 
ATOM     16  C   UNL     1      -3.383  -0.641  24.028  0.00  0.00    +0.005 A 
ATOM     17  C   UNL     1      -4.032  -1.149  23.993  0.00  0.00    +0.002 A 
ATOM     18  C   UNL     1      -4.108  -1.762  24.539  0.00  0.00    +0.030 A 
ATOM     19  C   UNL     1      -3.535  -1.868  25.122  0.00  0.00    +0.140 A 
ATOM     20  F   UNL     1      -3.610  -2.481  25.669  0.00  0.00    -0.204 F 
ATOM     21  C   UNL     1      -2.885  -1.361  25.158  0.00  0.00    +0.034 A 
ENDBRANCH  13  15
ENDBRANCH  11  12
ENDBRANCH  10  11
TORSDOF 6
ENDMDL
MODEL 5
REMARK VINA RESULT:     -10.1      2.934      5.707
REMARK  Name = 
REMARK  6 active torsions:
REMARK  status: ('A' for Active; 'I' for Inactive)
REMARK    1  A    between atoms: C_2  and  N_4
REMARK    2  A    between atoms: C_5  and  C_7
REMARK    3  A    between atoms: C_7  and  C_8
REMARK    4  A    between atoms: C_10  and  C_11
REMARK    5  A    between atoms: C_11  and  N_12
REMARK    6  A    between atoms: C_13  and  C_15
REMARK                            x       y       z     vdW  Elec       q    Type
REMARK                         _______ _______ _______ _____ _____    ______ ____
ROOT
ATOM      8  C   UNL     1      -0.764   1.865  24.488  0.00  0.00    +0.157 C 
ATOM      9  O   UNL     1      -1.371   1.453  24.865  0.00  0.00    -0.351 OA
ATOM     10  C   UNL     1      -1.129   0.670  24.957  0.00  0.00    +0.170 C 
ATOM     22  C   UNL     1      -0.372   0.597  24.638  0.00  0.00    +0.213 C 
ATOM     23  O   UNL     1       0.080  -0.091  24.612  0.00  0.00    -0.218 OA
ATOM     24  C   UNL     1      -0.146   1.337  24.348  0.00  0.00    +0.212 C 
ATOM     25  O   UNL     1       0.571   1.515  23.983  0.00  0.00    -0.218 OA
ENDROOT
BRANCH   8   7
ATOM      7  C   UNL     1      -0.773   2.665  24.288  0.00  0.00    +0.119 C 
BRANCH   7   5
ATOM      4  N   UNL     1      -1.639   3.737  24.667  0.00  0.00    -0.207 NA
ATOM      5  C   UNL     1      -1.014   3.226  24.842  0.00  0.00    +0.244 C 
ATOM      6  O   UNL     1      -0.631   3.278  25.571  0.00  0.00    -0.273 OA
BRANCH   4   2
ATOM      1  C   UNL     1      -2.508   4.131  25.730  0.00  0.00    +0.023 C 
ATOM      2  C   UNL     1      -1.880   4.298  25.222  0.00  0.00    +0.095 C 
ATOM      3  C   UNL     1      -1.493   5.025  25.269  0.00  0.00    +0.023 C 
ENDBRANCH   4   2
ENDBRANCH   7   5
ENDBRANCH   8   7
BRANCH  10  11
ATOM     11  C   UNL     1      -1.567   0.065  25.307  0.00  0.00    +0.148 C 
BRANCH  11  12
ATOM     12  N   UNL     1      -2.133  -0.343  24.867  0.00  0.00    -0.199 NA
ATOM     13  C   UNL     1      -2.659  -0.854  25.244  0.00  0.00    +0.265 C 
ATOM     14  O   UNL     1      -2.620  -0.958  26.062  0.00  0.00    -0.268 OA
BRANCH  13  15
ATOM     15  C   UNL     1      -3.225  -1.263  24.804  0.00  0.00    +0.057 A 
ATOM     16  C   UNL     1      -3.817  -0.848  24.406  0.00  0.00    +0.005 A 
ATOM     17  C   UNL     1      -4.383  -1.257  23.966  0.00  0.00    +0.002 A 
ATOM     18  C   UNL     1      -4.356  -2.080  23.923  0.00  0.00    +0.030 A 
ATOM     19  C   UNL     1      -3.765  -2.495  24.320  0.00  0.00    +0.140 A 
ATOM     20  F   UNL     1      -3.738  -3.318  24.278  0.00  0.00    -0.204 F 
ATOM     21  C   UNL     1      -3.199  -2.086  24.761  0.00  0.00    +0.034 A 
ENDBRANCH  13  15
ENDBRANCH  11  12
ENDBRANCH  10  11
TORSDOF 6
ENDMDL
