MODEL 1
REMARK VINA RESULT:     -13.6      0.000      0.000
REMARK  Name = 
REMARK  5 active torsions:
REMARK  status: ('A' for Active; 'I' for Inactive)
REMARK    1  A    between atoms: C_3  and  N_4
REMARK    2  A    between atoms: N_7  and  C_8
REMARK    3  A    between atoms: C_19  and  N_20
REMARK    4  A    between atoms: C_23  and  C_24
REMARK    5  A    between atoms: C_24  and  C_25
REMARK                            x       y       z     vdW  Elec       q    Type
REMARK                         _______ _______ _______ _____ _____    ______ ____
ROOT
ATOM      1  O   UNL     1      -2.882   0.956  25.290  0.00  0.00    -0.220 OA
ATOM      2  C   UNL     1      -3.431   1.569  25.227  0.00  0.00    +0.194 C 
ATOM      3  C   UNL     1      -3.768   2.321  25.309  0.00  0.00    +0.158 C 
ATOM     14  C   UNL     1      -4.573   2.163  24.873  0.00  0.00    +0.170 C 
ATOM     15  C   UNL     1      -4.663   1.442  24.595  0.00  0.00    +0.176 C 
ATOM     16  O   UNL     1      -5.102   0.988  24.237  0.00  0.00    -0.327 OA
ATOM     17  C   UNL     1      -4.839   1.744  24.609  0.00  0.00    +0.253 C 
ATOM     18  O   UNL     1      -5.177   2.492  24.690  0.00  0.00    -0.327 OA
ATOM     19  C   UNL     1      -3.994   1.895  25.063  0.00  0.00    +0.147 C 
ENDROOT
BRANCH  19  20
ATOM     20  N   UNL     1      -4.031   1.117  24.792  0.00  0.00    -0.268 NA
ATOM     21  C   UNL     1      -4.377   0.532  25.261  0.00  0.00    +0.072 C 
ATOM     22  C   UNL     1      -4.414  -0.246  24.990  0.00  0.00    +0.018 C 
ATOM     23  C   UNL     1      -4.106  -0.440  24.250  0.00  0.00    +0.007 C 
ATOM     31  C   UNL     1      -3.761   0.143  23.781  0.00  0.00    +0.018 C 
ATOM     32  C   UNL     1      -3.723   0.922  24.052  0.00  0.00    +0.072 C 
BRANCH  23  24
ATOM     24  C   UNL     1      -4.143  -1.218  23.978  0.00  0.00    +0.026 C 
BRANCH  24  25
ATOM     25  C   UNL     1      -3.617  -1.783  24.269  0.00  0.00    -0.022 A 
ATOM     26  C   UNL     1      -2.850  -1.826  23.969  0.00  0.00    -0.004 A 
ATOM     27  C   UNL     1      -2.324  -2.391  24.260  0.00  0.00    -0.000 A 
ATOM     28  C   UNL     1      -2.566  -2.914  24.851  0.00  0.00    -0.000 A 
ATOM     29  C   UNL     1      -3.333  -2.871  25.151  0.00  0.00    -0.000 A 
ATOM     30  C   UNL     1      -3.859  -2.306  24.860  0.00  0.00    -0.004 A 
ENDBRANCH  24  25
ENDBRANCH  23  24
ENDBRANCH  19  20
BRANCH   3   4
ATOM      4  N   UNL     1      -3.477   3.005  25.671  0.00  0.00    -0.184 NA
ATOM      5  C   UNL     1      -2.827   3.397  25.348  0.00  0.00    +0.339 C 
ATOM      6  O   UNL     1      -2.467   3.105  24.664  0.00  0.00    -0.249 OA
ATOM      7  N   UNL     1      -2.537   4.079  25.709  0.00  0.00    -0.189 NA
BRANCH   7   8
ATOM      8  C   UNL     1      -1.886   4.471  25.386  0.00  0.00    +0.097 C 
ATOM      9  C   UNL     1      -1.156   4.089  25.340  0.00  0.00    +0.022 C 
ATOM     10  C   UNL     1      -0.506   4.481  25.017  0.00  0.00    +0.002 C 
ATOM     11  C   UNL     1      -0.585   5.255  24.741  0.00  0.00    +0.000 C 
ATOM     12  C   UNL     1      -1.315   5.636  24.788  0.00  0.00    +0.002 C 
ATOM     13  C   UNL     1      -1.965   5.244  25.111  0.00  0.00    +0.022 C 
ENDBRANCH   7   8
ENDBRANCH   3   4
TORSDOF 5
ENDMDL
MODEL 2
REMARK VINA RESULT:     -13.3      0.873      5.159
REMARK  Name = 
REMARK  5 active torsions:
REMARK  status: ('A' for Active; 'I' for Inactive)
REMARK    1  A    between atoms: C_3  and  N_4
REMARK    2  A    between atoms: N_7  and  C_8
REMARK    3  A    between atoms: C_19  and  N_20
REMARK    4  A    between atoms: C_23  and  C_24
REMARK    5  A    between atoms: C_24  and  C_25
REMARK                            x       y       z     vdW  Elec       q    Type
REMARK                         _______ _______ _______ _____ _____    ______ ____
ROOT
ATOM      1  O   UNL     1      -3.105   2.018  24.462  0.00  0.00    -0.220 OA
ATOM      2  C   UNL     1      -3.888   1.838  24.650  0.00  0.00    +0.194 C 
ATOM      3  C   UNL     1      -4.601   1.418  24.689  0.00  0.00    +0.158 C 
ATOM     14  C   UNL     1      -5.097   2.027  25.185  0.00  0.00    +0.170 C 
ATOM     15  C   UNL     1      -4.718   2.676  25.386  0.00  0.00    +0.176 C 
ATOM     16  O   UNL     1      -4.763   3.312  25.733  0.00  0.00    -0.327 OA
ATOM     17  C   UNL     1      -5.035   2.531  25.425  0.00  0.00    +0.253 C 
ATOM     18  O   UNL     1      -5.746   2.114  25.465  0.00  0.00    -0.327 OA
ATOM     19  C   UNL     1      -4.505   1.904  24.907  0.00  0.00    +0.147 C 
ENDROOT
BRANCH  19  20
ATOM     20  N   UNL     1      -4.052   2.569  25.090  0.00  0.00    -0.268 NA
ATOM     21  C   UNL     1      -4.010   3.199  24.558  0.00  0.00    +0.072 C 
ATOM     22  C   UNL     1      -3.557   3.864  24.741  0.00  0.00    +0.018 C 
ATOM     23  C   UNL     1      -3.147   3.899  25.456  0.00  0.00    +0.007 C 
ATOM     31  C   UNL     1      -3.189   3.270  25.988  0.00  0.00    +0.018 C 
ATOM     32  C   UNL     1      -3.641   2.605  25.805  0.00  0.00    +0.072 C 
BRANCH  23  24
ATOM     24  C   UNL     1      -2.694   4.564  25.640  0.00  0.00    +0.026 C 
BRANCH  24  25
ATOM     25  C   UNL     1      -1.923   4.632  25.353  0.00  0.00    -0.022 A 
ATOM     26  C   UNL     1      -1.345   4.098  25.594  0.00  0.00    -0.004 A 
ATOM     27  C   UNL     1      -0.574   4.165  25.307  0.00  0.00    -0.000 A 
ATOM     28  C   UNL     1      -0.383   4.769  24.778  0.00  0.00    -0.000 A 
ATOM     29  C   UNL     1      -0.963   5.304  24.536  0.00  0.00    -0.000 A 
ATOM     30  C   UNL     1      -1.733   5.236  24.823  0.00  0.00    -0.004 A 
ENDBRANCH  24  25
ENDBRANCH  23  24
ENDBRANCH  19  20
BRANCH   3   4
ATOM      4  N   UNL     1      -4.808   0.680  24.380  0.00  0.00    -0.184 NA
ATOM      5  C   UNL     1      -4.364   0.013  24.573  0.00  0.00    +0.339 C 
ATOM      6  O   UNL     1      -3.712   0.082  25.075  0.00  0.00    -0.249 OA
ATOM      7  N   UNL     1      -4.570  -0.723  24.264  0.00  0.00    -0.189 NA
BRANCH   7   8
ATOM      8  C   UNL     1      -4.126  -1.391  24.458  0.00  0.00    +0.097 C 
ATOM      9  C   UNL     1      -3.929  -1.939  23.873  0.00  0.00    +0.022 C 
ATOM     10  C   UNL     1      -3.485  -2.607  24.066  0.00  0.00    +0.002 C 
ATOM     11  C   UNL     1      -3.237  -2.727  24.844  0.00  0.00    +0.000 C 
ATOM     12  C   UNL     1      -3.434  -2.178  25.428  0.00  0.00    +0.002 C 
ATOM     13  C   UNL     1      -3.878  -1.511  25.235  0.00  0.00    +0.022 C 
ENDBRANCH   7   8
ENDBRANCH   3   4
TORSDOF 5
ENDMDL
MODEL 3
REMARK VINA RESULT:     -12.6      2.237      2.997
REMARK  Name = 
REMARK  5 active torsions:
REMARK  status: ('A' for Active; 'I' for Inactive)
REMARK    1  A    between atoms: C_3  and  N_4
REMARK    2  A    between atoms: N_7  and  C_8
REMARK    3  A    between atoms: C_19  and  N_20
REMARK    4  A    between atoms: C_23  and  C_24
REMARK    5  A    between atoms: C_24  and  C_25
REMARK                            x       y       z     vdW  Elec       q    Type
REMARK                         _______ _______ _______ _____ _____    ______ ____
ROOT
ATOM      1  O   UNL     1      -1.494   0.289  25.655  0.00  0.00    -0.220 OA
ATOM      2  C   UNL     1      -0.888   0.686  25.260  0.00  0.00    +0.194 C 
ATOM      3  C   UNL     1      -0.343   1.282  25.071  0.00  0.00    +0.158 C 
ATOM     14  C   UNL     1       0.060   0.875  24.340  0.00  0.00    +0.170 C 
ATOM     15  C   UNL     1      -0.217   0.172  24.156  0.00  0.00    +0.176 C 
ATOM     16  O   UNL     1      -0.164  -0.393  23.704  0.00  0.00    -0.327 OA
ATOM     17  C   UNL     1       0.026   0.398  24.045  0.00  0.00    +0.253 C 
ATOM     18  O   UNL     1       0.569   0.990  23.855  0.00  0.00    -0.327 OA
ATOM     19  C   UNL     1      -0.405   0.811  24.811  0.00  0.00    +0.147 C 
ENDROOT
BRANCH  19  20
ATOM     20  N   UNL     1      -0.740   0.071  24.666  0.00  0.00    -0.268 NA
ATOM     21  C   UNL     1      -1.331  -0.010  24.096  0.00  0.00    +0.072 C 
ATOM     22  C   UNL     1      -1.666  -0.750  23.951  0.00  0.00    +0.018 C 
ATOM     23  C   UNL     1      -1.409  -1.409  24.375  0.00  0.00    +0.007 C 
ATOM     31  C   UNL     1      -0.818  -1.329  24.945  0.00  0.00    +0.018 C 
ATOM     32  C   UNL     1      -0.483  -0.589  25.090  0.00  0.00    +0.072 C 
BRANCH  23  24
ATOM     24  C   UNL     1      -1.743  -2.150  24.231  0.00  0.00    +0.026 C 
BRANCH  24  25
ATOM     25  C   UNL     1      -2.535  -2.290  24.415  0.00  0.00    -0.022 A 
ATOM     26  C   UNL     1      -2.743  -2.552  25.168  0.00  0.00    -0.004 A 
ATOM     27  C   UNL     1      -3.535  -2.692  25.353  0.00  0.00    -0.000 A 
ATOM     28  C   UNL     1      -4.119  -2.568  24.783  0.00  0.00    -0.000 A 
ATOM     29  C   UNL     1      -3.911  -2.306  24.029  0.00  0.00    -0.000 A 
ATOM     30  C   UNL     1      -3.119  -2.166  23.845  0.00  0.00    -0.004 A 
ENDBRANCH  24  25
ENDBRANCH  23  24
ENDBRANCH  19  20
BRANCH   3   4
ATOM      4  N   UNL     1      -0.202   2.014  25.426  0.00  0.00    -0.184 NA
ATOM      5  C   UNL     1      -0.703   2.651  25.269  0.00  0.00    +0.339 C 
ATOM      6  O   UNL     1      -1.345   2.556  24.759  0.00  0.00    -0.249 OA
ATOM      7  N   UNL     1      -0.562   3.382  25.623  0.00  0.00    -0.189 NA
BRANCH   7   8
ATOM      8  C   UNL     1      -1.063   4.019  25.467  0.00  0.00    +0.097 C 
ATOM      9  C   UNL     1      -0.806   4.637  24.985  0.00  0.00    +0.022 C 
ATOM     10  C   UNL     1      -1.306   5.274  24.828  0.00  0.00    +0.002 C 
ATOM     11  C   UNL     1      -2.064   5.293  25.154  0.00  0.00    +0.000 C 
ATOM     12  C   UNL     1      -2.321   4.675  25.637  0.00  0.00    +0.002 C 
ATOM     13  C   UNL     1      -1.821   4.039  25.793  0.00  0.00    +0.022 C 
ENDBRANCH   7   8
ENDBRANCH   3   4
TORSDOF 5
ENDMDL
MODEL 4
REMARK VINA RESULT:     -12.1      2.409      5.814
REMARK  Name = 
REMARK  5 active torsions:
REMARK  status: ('A' for Active; 'I' for Inactive)
REMARK    1  A    between atoms: C_3  and  N_4
REMARK    2  A    between atoms: N_7  and  C_8
REMARK    3  A    between atoms: C_19  and  N_20
REMARK    4  A    between atoms: C_23  and  C_24
REMARK    5  A    between atoms: C_24  and  C_25
REMARK                            x       y       z     vdW  Elec       q    Type
REMARK                         _______ _______ _______ _____ _____    ______ ____
ROOT
ATOM      1  O   UNL     1      -1.392   1.006  25.638  0.00  0.00    -0.220 OA
ATOM      2  C   UNL     1      -0.923   0.605  25.090  0.00  0.00    +0.194 C 
ATOM      3  C   UNL     1      -0.584  -0.024  24.670  0.00  0.00    +0.158 C 
ATOM     14  C   UNL     1      -0.036   0.466  24.102  0.00  0.00    +0.170 C 
ATOM     15  C   UNL     1      -0.067   1.237  24.195  0.00  0.00    +0.176 C 
ATOM     16  O   UNL     1       0.184   1.878  23.967  0.00  0.00    -0.327 OA
ATOM     17  C   UNL     1       0.097   1.001  23.996  0.00  0.00    +0.253 C 
ATOM     18  O   UNL     1       0.436   0.376  23.576  0.00  0.00    -0.327 OA
ATOM     19  C   UNL     1      -0.481   0.502  24.596  0.00  0.00    +0.147 C 
ENDROOT
BRANCH  19  20
ATOM     20  N   UNL     1      -0.557   1.311  24.741  0.00  0.00    -0.268 NA
ATOM     21  C   UNL     1      -1.029   1.776  24.249  0.00  0.00    +0.072 C 
ATOM     22  C   UNL     1      -1.106   2.584  24.394  0.00  0.00    +0.018 C 
ATOM     23  C   UNL     1      -0.710   2.928  25.031  0.00  0.00    +0.007 C 
ATOM     31  C   UNL     1      -0.238   2.463  25.523  0.00  0.00    +0.018 C 
ATOM     32  C   UNL     1      -0.162   1.655  25.378  0.00  0.00    +0.072 C 
BRANCH  23  24
ATOM     24  C   UNL     1      -0.786   3.736  25.177  0.00  0.00    +0.026 C 
BRANCH  24  25
ATOM     25  C   UNL     1      -1.519   4.052  25.384  0.00  0.00    -0.022 A 
ATOM     26  C   UNL     1      -1.840   3.898  26.127  0.00  0.00    -0.004 A 
ATOM     27  C   UNL     1      -2.574   4.214  26.335  0.00  0.00    -0.000 A 
ATOM     28  C   UNL     1      -2.986   4.685  25.797  0.00  0.00    -0.000 A 
ATOM     29  C   UNL     1      -2.665   4.840  25.053  0.00  0.00    -0.000 A 
ATOM     30  C   UNL     1      -1.931   4.524  24.847  0.00  0.00    -0.004 A 
ENDBRANCH  24  25
ENDBRANCH  23  24
ENDBRANCH  19  20
BRANCH   3   4
ATOM      4  N   UNL     1      -0.700  -0.839  24.736  0.00  0.00    -0.184 NA
ATOM      5  C   UNL     1      -1.458  -1.156  24.660  0.00  0.00    +0.339 C 
ATOM      6  O   UNL     1      -2.101  -0.657  24.518  0.00  0.00    -0.249 OA
ATOM      7  N   UNL     1      -1.574  -1.970  24.726  0.00  0.00    -0.189 NA
BRANCH   7   8
ATOM      8  C   UNL     1      -2.332  -2.286  24.650  0.00  0.00    +0.097 C 
ATOM      9  C   UNL     1      -2.838  -2.304  25.301  0.00  0.00    +0.022 C 
ATOM     10  C   UNL     1      -3.596  -2.620  25.225  0.00  0.00    +0.002 C 
ATOM     11  C   UNL     1      -3.849  -2.919  24.498  0.00  0.00    +0.000 C 
ATOM     12  C   UNL     1      -3.341  -2.900  23.847  0.00  0.00    +0.002 C 
ATOM     13  C   UNL     1      -2.584  -2.584  23.923  0.00  0.00    +0.022 C 
ENDBRANCH   7   8
ENDBRANCH   3   4
TORSDOF 5
ENDMDL
MODEL 5
REMARK VINA RESULT:     -11.2      2.618      4.438
REMARK  Name = 
REMARK  5 active torsions:
REMARK  status: ('A' for Active; 'I' for Inactive)
REMARK    1  A    between atoms: C_3  and  N_4
REMARK    2  A    between atoms: N_7  and  C_8
REMARK    3  A    between atoms: C_19  and  N_20
REMARK    4  A    between atoms: C_23  and  C_24
REMARK    5  A    between atoms: C_24  and  C_25
REMARK                            x       y       z     vdW  Elec       q    Type
REMARK                         _______ _______ _______ _____ _____    ______ ____
ROOT
ATOM      1  O   UNL     1      -2.243   2.094  25.291  0.00  0.00    -0.220 OA
ATOM      2  C   UNL     1      -1.616   2.623  25.198  0.00  0.00    +0.194 C 
ATOM      3  C   UNL     1      -0.839   2.901  25.122  0.00  0.00    +0.158 C 
ATOM     14  C   UNL     1      -1.022   3.808  25.041  0.00  0.00    +0.170 C 
ATOM     15  C   UNL     1      -1.776   3.998  25.068  0.00  0.00    +0.176 C 
ATOM     16  O   UNL     1      -2.259   4.539  25.042  0.00  0.00    -0.327 OA
ATOM     17  C   UNL     1      -1.465   4.154  25.033  0.00  0.00    +0.253 C 
ATOM     18  O   UNL     1      -0.692   4.434  24.957  0.00  0.00    -0.327 OA
ATOM     19  C   UNL     1      -1.288   3.203  25.119  0.00  0.00    +0.147 C 
ENDROOT
BRANCH  19  20
ATOM     20  N   UNL     1      -2.101   3.342  25.155  0.00  0.00    -0.268 NA
ATOM     21  C   UNL     1      -2.463   3.491  25.881  0.00  0.00    +0.072 C 
ATOM     22  C   UNL     1      -3.275   3.630  25.917  0.00  0.00    +0.018 C 
ATOM     23  C   UNL     1      -3.726   3.619  25.226  0.00  0.00    +0.007 C 
ATOM     31  C   UNL     1      -3.365   3.470  24.500  0.00  0.00    +0.018 C 
ATOM     32  C   UNL     1      -2.552   3.331  24.464  0.00  0.00    +0.072 C 
BRANCH  23  24
ATOM     24  C   UNL     1      -4.539   3.757  25.261  0.00  0.00    +0.026 C 
BRANCH  24  25
ATOM     25  C   UNL     1      -5.063   3.125  25.342  0.00  0.00    -0.022 A 
ATOM     26  C   UNL     1      -5.258   2.665  24.687  0.00  0.00    -0.004 A 
ATOM     27  C   UNL     1      -5.783   2.033  24.768  0.00  0.00    -0.000 A 
ATOM     28  C   UNL     1      -6.111   1.862  25.506  0.00  0.00    -0.000 A 
ATOM     29  C   UNL     1      -5.916   2.323  26.161  0.00  0.00    -0.000 A 
ATOM     30  C   UNL     1      -5.392   2.955  26.079  0.00  0.00    -0.004 A 
ENDBRANCH  24  25
ENDBRANCH  23  24
ENDBRANCH  19  20
BRANCH   3   4
ATOM      4  N   UNL     1      -0.120   2.495  25.120  0.00  0.00    -0.184 NA
ATOM      5  C   UNL     1       0.037   1.938  24.531  0.00  0.00    +0.339 C 
ATOM      6  O   UNL     1      -0.525   1.787  23.946  0.00  0.00    -0.249 OA
ATOM      7  N   UNL     1       0.755   1.533  24.529  0.00  0.00    -0.189 NA
BRANCH   7   8
ATOM      8  C   UNL     1       0.912   0.976  23.940  0.00  0.00    +0.097 C 
ATOM      9  C   UNL     1       1.552   1.084  23.431  0.00  0.00    +0.022 C 
ATOM     10  C   UNL     1       1.709   0.527  22.842  0.00  0.00    +0.002 C 
ATOM     11  C   UNL     1       1.226  -0.138  22.763  0.00  0.00    +0.000 C 
ATOM     12  C   UNL     1       0.586  -0.245  23.273  0.00  0.00    +0.002 C 
ATOM     13  C   UNL     1       0.429   0.311  23.861  0.00  0.00    +0.022 C 
ENDBRANCH   7   8
ENDBRANCH   3   4
TORSDOF 5
ENDMDL
