MODEL 1
REMARK VINA RESULT:     -11.8      0.000      0.000
REMARK  Name = 
REMARK  5 active torsions:
REMARK  status: ('A' for Active; 'I' for Inactive)
REMARK    1  A    between atoms: C_1  and  N_2
REMARK    2  A    between atoms: C_1  and  C_23
REMARK    3  A    between atoms: C_6  and  C_7
REMARK    4  A    between atoms: C_9  and  C_12
REMARK    5  A    between atoms: C_16  and  N_18
REMARK                            x       y       z     vdW  Elec       q    Type
REMARK                         _______ _______ _______ _____ _____    ______ ____
ROOT
ATOM      7  C   UNL     1      -0.944   0.540  25.104  0.00  0.00    +0.251 A 
ATOM      8  N   UNL     1      -1.302   1.218  24.800  0.00  0.00    -0.190 NA
ATOM      9  C   UNL     1      -1.251   1.812  25.371  0.00  0.00    +0.203 A 
ATOM     10  N   UNL     1      -0.861   1.500  26.027  0.00  0.00    -0.056 NA
ATOM     11  O   UNL     1      -0.672   0.714  25.863  0.00  0.00    -0.336 OA
ENDROOT
BRANCH   9  12
ATOM     12  C   UNL     1      -1.539   2.581  25.297  0.00  0.00    +0.043 A 
ATOM     13  C   UNL     1      -1.014   3.217  25.275  0.00  0.00    +0.024 A 
ATOM     14  C   UNL     1      -1.302   3.987  25.201  0.00  0.00    +0.100 A 
ATOM     15  N   UNL     1      -2.115   4.121  25.150  0.00  0.00    -0.229 NA
ATOM     16  C   UNL     1      -2.640   3.485  25.173  0.00  0.00    +0.132 A 
ATOM     17  C   UNL     1      -2.352   2.715  25.246  0.00  0.00    +0.037 A 
BRANCH  16  18
ATOM     18  N   UNL     1      -3.452   3.618  25.122  0.00  0.00    -0.293 N 
ATOM     19  C   UNL     1      -3.970   3.709  25.758  0.00  0.00    +0.092 C 
ATOM     20  C   UNL     1      -4.727   3.830  25.455  0.00  0.00    +0.023 C 
ATOM     21  C   UNL     1      -4.678   3.815  24.632  0.00  0.00    +0.023 C 
ATOM     22  C   UNL     1      -3.890   3.683  24.425  0.00  0.00    +0.092 C 
ENDBRANCH  16  18
ENDBRANCH   9  12
BRANCH   7   6
ATOM      2  N   UNL     1      -1.438  -0.784  24.700  0.00  0.00    -0.263 NA
ATOM      3  C   UNL     1      -1.136  -1.407  24.252  0.00  0.00    +0.073 C 
ATOM      4  C   UNL     1      -0.382  -1.194  23.993  0.00  0.00    +0.019 C 
ATOM      5  C   UNL     1      -0.218  -0.438  24.281  0.00  0.00    +0.027 C 
ATOM      6  C   UNL     1      -0.871  -0.185  24.718  0.00  0.00    +0.138 C 
BRANCH   2   1
ATOM      1  C   UNL     1      -2.177  -0.764  25.066  0.00  0.00    +0.099 C 
BRANCH   1  23
ATOM     23  C   UNL     1      -2.775  -1.273  24.817  0.00  0.00    -0.006 A 
ATOM     24  C   UNL     1      -3.332  -1.017  24.265  0.00  0.00    -0.003 A 
ATOM     25  C   UNL     1      -3.931  -1.528  24.015  0.00  0.00    -0.000 A 
ATOM     26  C   UNL     1      -3.971  -2.294  24.317  0.00  0.00    -0.000 A 
ATOM     27  C   UNL     1      -3.414  -2.550  24.869  0.00  0.00    -0.000 A 
ATOM     28  C   UNL     1      -2.816  -2.040  25.118  0.00  0.00    -0.003 A 
ENDBRANCH   1  23
ENDBRANCH   2   1
ENDBRANCH   7   6
TORSDOF 5
ENDMDL
MODEL 2
REMARK VINA RESULT:     -11.8      1.965      3.497
REMARK  Name = 
REMARK  5 active torsions:
REMARK  status: ('A' for Active; 'I' for Inactive)
REMARK    1  A    between atoms: C_1  and  N_2
REMARK    2  A    between atoms: C_1  and  C_23
REMARK    3  A    between atoms: C_6  and  C_7
REMARK    4  A    between atoms: C_9  and  C_12
REMARK    5  A    between atoms: C_16  and  N_18
REMARK                            x       y       z     vdW  Elec       q    Type
REMARK                         _______ _______ _______ _____ _____    ______ ____
ROOT
ATOM      7  C   UNL     1      -4.404   2.565  24.731  0.00  0.00    +0.251 A 
ATOM      8  N   UNL     1      -3.704   2.721  25.140  0.00  0.00    -0.190 NA
ATOM      9  C   UNL     1      -3.319   3.342  24.758  0.00  0.00    +0.203 A 
ATOM     10  N   UNL     1      -3.780   3.569  24.113  0.00  0.00    -0.056 NA
ATOM     11  O   UNL     1      -4.450   3.089  24.097  0.00  0.00    -0.336 OA
ENDROOT
BRANCH   9  12
ATOM     12  C   UNL     1      -2.598   3.677  24.982  0.00  0.00    +0.043 A 
ATOM     13  C   UNL     1      -2.520   4.497  25.022  0.00  0.00    +0.024 A 
ATOM     14  C   UNL     1      -1.799   4.832  25.245  0.00  0.00    +0.100 A 
ATOM     15  N   UNL     1      -1.158   4.346  25.429  0.00  0.00    -0.229 NA
ATOM     16  C   UNL     1      -1.237   3.526  25.389  0.00  0.00    +0.132 A 
ATOM     17  C   UNL     1      -1.957   3.191  25.165  0.00  0.00    +0.037 A 
BRANCH  16  18
ATOM     18  N   UNL     1      -0.596   3.040  25.572  0.00  0.00    -0.293 N 
ATOM     19  C   UNL     1      -0.103   2.661  25.030  0.00  0.00    +0.092 C 
ATOM     20  C   UNL     1       0.462   2.235  25.453  0.00  0.00    +0.023 C 
ATOM     21  C   UNL     1       0.320   2.351  26.257  0.00  0.00    +0.023 C 
ATOM     22  C   UNL     1      -0.334   2.849  26.332  0.00  0.00    +0.092 C 
ENDBRANCH  16  18
ENDBRANCH   9  12
BRANCH   7   6
ATOM      2  N   UNL     1      -4.868   1.173  24.816  0.00  0.00    -0.263 NA
ATOM      3  C   UNL     1      -5.555   0.802  25.083  0.00  0.00    +0.073 C 
ATOM      4  C   UNL     1      -6.071   1.387  25.356  0.00  0.00    +0.019 C 
ATOM      5  C   UNL     1      -5.702   2.118  25.257  0.00  0.00    +0.027 C 
ATOM      6  C   UNL     1      -4.959   1.986  24.923  0.00  0.00    +0.138 C 
BRANCH   2   1
ATOM      1  C   UNL     1      -4.207   0.796  24.498  0.00  0.00    +0.099 C 
BRANCH   1  23
ATOM     23  C   UNL     1      -4.110  -0.017  24.593  0.00  0.00    -0.006 A 
ATOM     24  C   UNL     1      -4.335  -0.533  23.990  0.00  0.00    -0.003 A 
ATOM     25  C   UNL     1      -4.237  -1.347  24.086  0.00  0.00    -0.000 A 
ATOM     26  C   UNL     1      -3.915  -1.644  24.785  0.00  0.00    -0.000 A 
ATOM     27  C   UNL     1      -3.690  -1.128  25.388  0.00  0.00    -0.000 A 
ATOM     28  C   UNL     1      -3.787  -0.315  25.292  0.00  0.00    -0.003 A 
ENDBRANCH   1  23
ENDBRANCH   2   1
ENDBRANCH   7   6
TORSDOF 5
ENDMDL
MODEL 3
REMARK VINA RESULT:     -11.7      1.518      5.367
REMARK  Name = 
REMARK  5 active torsions:
REMARK  status: ('A' for Active; 'I' for Inactive)
REMARK    1  A    between atoms: C_1  and  N_2
REMARK    2  A    between atoms: C_1  and  C_23
REMARK    3  A    between atoms: C_6  and  C_7
REMARK    4  A    between atoms: C_9  and  C_12
REMARK    5  A    between atoms: C_16  and  N_18
REMARK                            x       y       z     vdW  Elec       q    Type
REMARK                         _______ _______ _______ _____ _____    ______ ____
ROOT
ATOM      7  C   UNL     1      -4.134   1.762  24.605  0.00  0.00    +0.251 A 
ATOM      8  N   UNL     1      -3.814   1.094  24.240  0.00  0.00    -0.190 NA
ATOM      9  C   UNL     1      -4.012   0.436  24.697  0.00  0.00    +0.203 A 
ATOM     10  N   UNL     1      -4.452   0.697  25.343  0.00  0.00    -0.056 NA
ATOM     11  O   UNL     1      -4.528   1.517  25.286  0.00  0.00    -0.336 OA
ENDROOT
BRANCH   9  12
ATOM     12  C   UNL     1      -3.804  -0.346  24.535  0.00  0.00    +0.043 A 
ATOM     13  C   UNL     1      -4.360  -0.861  24.209  0.00  0.00    +0.024 A 
ATOM     14  C   UNL     1      -4.153  -1.643  24.047  0.00  0.00    +0.100 A 
ATOM     15  N   UNL     1      -3.389  -1.910  24.212  0.00  0.00    -0.229 NA
ATOM     16  C   UNL     1      -2.833  -1.395  24.538  0.00  0.00    +0.132 A 
ATOM     17  C   UNL     1      -3.041  -0.613  24.699  0.00  0.00    +0.037 A 
BRANCH  16  18
ATOM     18  N   UNL     1      -2.070  -1.662  24.702  0.00  0.00    -0.293 N 
ATOM     19  C   UNL     1      -1.458  -1.213  25.024  0.00  0.00    +0.092 C 
ATOM     20  C   UNL     1      -0.795  -1.698  25.094  0.00  0.00    +0.023 C 
ATOM     21  C   UNL     1      -0.997  -2.448  24.816  0.00  0.00    +0.023 C 
ATOM     22  C   UNL     1      -1.786  -2.426  24.573  0.00  0.00    +0.092 C 
ENDBRANCH  16  18
ENDBRANCH   9  12
BRANCH   7   6
ATOM      2  N   UNL     1      -3.488   3.082  24.554  0.00  0.00    -0.263 NA
ATOM      3  C   UNL     1      -3.634   3.788  24.153  0.00  0.00    +0.073 C 
ATOM      4  C   UNL     1      -4.306   3.681  23.686  0.00  0.00    +0.019 C 
ATOM      5  C   UNL     1      -4.575   2.909  23.798  0.00  0.00    +0.027 C 
ATOM      6  C   UNL     1      -4.069   2.539  24.335  0.00  0.00    +0.138 C 
BRANCH   2   1
ATOM      1  C   UNL     1      -2.869   2.943  25.081  0.00  0.00    +0.099 C 
BRANCH   1  23
ATOM     23  C   UNL     1      -2.222   3.454  25.101  0.00  0.00    -0.006 A 
ATOM     24  C   UNL     1      -1.523   3.249  24.713  0.00  0.00    -0.003 A 
ATOM     25  C   UNL     1      -0.875   3.760  24.732  0.00  0.00    -0.000 A 
ATOM     26  C   UNL     1      -0.927   4.475  25.140  0.00  0.00    -0.000 A 
ATOM     27  C   UNL     1      -1.625   4.680  25.528  0.00  0.00    -0.000 A 
ATOM     28  C   UNL     1      -2.272   4.170  25.508  0.00  0.00    -0.003 A 
ENDBRANCH   1  23
ENDBRANCH   2   1
ENDBRANCH   7   6
TORSDOF 5
ENDMDL
MODEL 4
REMARK VINA RESULT:     -11.7      1.634      4.999
REMARK  Name = 
REMARK  5 active torsions:
REMARK  status: ('A' for Active; 'I' for Inactive)
REMARK    1  A    between atoms: C_1  and  N_2
REMARK    2  A    between atoms: C_1  and  C_23
REMARK    3  A    between atoms: C_6  and  C_7
REMARK    4  A    between atoms: C_9  and  C_12
REMARK    5  A    between atoms: C_16  and  N_18
REMARK                            x       y       z     vdW  Elec       q    Type
REMARK                         _______ _______ _______ _____ _____    ______ ____
ROOT
ATOM      7  C   UNL     1      -1.242   1.417  25.019  0.00  0.00    +0.251 A 
ATOM      8  N   UNL     1      -1.997   1.156  25.226  0.00  0.00    -0.190 NA
ATOM      9  C   UNL     1      -2.263   0.649  24.631  0.00  0.00    +0.203 A 
ATOM     10  N   UNL     1      -1.673   0.598  24.058  0.00  0.00    -0.056 NA
ATOM     11  O   UNL     1      -1.042   1.072  24.297  0.00  0.00    -0.336 OA
ENDROOT
BRANCH   9  12
ATOM     12  C   UNL     1      -2.992   0.263  24.614  0.00  0.00    +0.043 A 
ATOM     13  C   UNL     1      -3.690   0.697  24.678  0.00  0.00    +0.024 A 
ATOM     14  C   UNL     1      -4.419   0.310  24.660  0.00  0.00    +0.100 A 
ATOM     15  N   UNL     1      -4.449  -0.510  24.578  0.00  0.00    -0.229 NA
ATOM     16  C   UNL     1      -3.750  -0.945  24.514  0.00  0.00    +0.132 A 
ATOM     17  C   UNL     1      -3.022  -0.558  24.532  0.00  0.00    +0.037 A 
BRANCH  16  18
ATOM     18  N   UNL     1      -3.780  -1.765  24.432  0.00  0.00    -0.293 N 
ATOM     19  C   UNL     1      -3.464  -2.317  24.957  0.00  0.00    +0.092 C 
ATOM     20  C   UNL     1      -3.620  -3.070  24.661  0.00  0.00    +0.023 C 
ATOM     21  C   UNL     1      -4.032  -2.984  23.952  0.00  0.00    +0.023 C 
ATOM     22  C   UNL     1      -4.132  -2.177  23.810  0.00  0.00    +0.092 C 
ENDBRANCH  16  18
ENDBRANCH   9  12
BRANCH   7   6
ATOM      2  N   UNL     1      -0.708   2.747  25.344  0.00  0.00    -0.263 NA
ATOM      3  C   UNL     1      -0.178   3.042  25.903  0.00  0.00    +0.073 C 
ATOM      4  C   UNL     1       0.087   2.409  26.362  0.00  0.00    +0.019 C 
ATOM      5  C   UNL     1      -0.279   1.724  26.087  0.00  0.00    +0.027 C 
ATOM      6  C   UNL     1      -0.771   1.932  25.458  0.00  0.00    +0.138 C 
BRANCH   2   1
ATOM      1  C   UNL     1      -1.105   3.189  24.772  0.00  0.00    +0.099 C 
BRANCH   1  23
ATOM     23  C   UNL     1      -1.212   4.000  24.879  0.00  0.00    -0.006 A 
ATOM     24  C   UNL     1      -1.890   4.280  25.256  0.00  0.00    -0.003 A 
ATOM     25  C   UNL     1      -1.998   5.092  25.363  0.00  0.00    -0.000 A 
ATOM     26  C   UNL     1      -1.427   5.622  25.092  0.00  0.00    -0.000 A 
ATOM     27  C   UNL     1      -0.749   5.342  24.714  0.00  0.00    -0.000 A 
ATOM     28  C   UNL     1      -0.642   4.531  24.608  0.00  0.00    -0.003 A 
ENDBRANCH   1  23
ENDBRANCH   2   1
ENDBRANCH   7   6
TORSDOF 5
ENDMDL
MODEL 5
REMARK VINA RESULT:     -11.7      0.959      4.691
REMARK  Name = 
REMARK  5 active torsions:
REMARK  status: ('A' for Active; 'I' for Inactive)
REMARK    1  A    between atoms: C_1  and  N_2
REMARK    2  A    between atoms: C_1  and  C_23
REMARK    3  A    between atoms: C_6  and  C_7
REMARK    4  A    between atoms: C_9  and  C_12
REMARK    5  A    between atoms: C_16  and  N_18
REMARK                            x       y       z     vdW  Elec       q    Type
REMARK                         _______ _______ _______ _____ _____    ______ ____
ROOT
ATOM      7  C   UNL     1      -1.788   2.156  24.744  0.00  0.00    +0.251 A 
ATOM      8  N   UNL     1      -1.727   1.410  25.092  0.00  0.00    -0.190 NA
ATOM      9  C   UNL     1      -1.472   0.880  24.514  0.00  0.00    +0.203 A 
ATOM     10  N   UNL     1      -1.375   1.297  23.810  0.00  0.00    -0.056 NA
ATOM     11  O   UNL     1      -1.571   2.086  23.952  0.00  0.00    -0.336 OA
ENDROOT
BRANCH   9  12
ATOM     12  C   UNL     1      -1.337   0.073  24.623  0.00  0.00    +0.043 A 
ATOM     13  C   UNL     1      -0.567  -0.208  24.714  0.00  0.00    +0.024 A 
ATOM     14  C   UNL     1      -0.432  -1.015  24.822  0.00  0.00    +0.100 A 
ATOM     15  N   UNL     1      -1.067  -1.541  24.839  0.00  0.00    -0.229 NA
ATOM     16  C   UNL     1      -1.837  -1.260  24.747  0.00  0.00    +0.132 A 
ATOM     17  C   UNL     1      -1.972  -0.453  24.639  0.00  0.00    +0.037 A 
BRANCH  16  18
ATOM     18  N   UNL     1      -2.473  -1.786  24.764  0.00  0.00    -0.293 N 
ATOM     19  C   UNL     1      -2.573  -2.441  24.272  0.00  0.00    +0.092 C 
ATOM     20  C   UNL     1      -3.282  -2.809  24.479  0.00  0.00    +0.023 C 
ATOM     21  C   UNL     1      -3.619  -2.381  25.099  0.00  0.00    +0.023 C 
ATOM     22  C   UNL     1      -3.120  -1.749  25.275  0.00  0.00    +0.092 C 
ENDBRANCH  16  18
ENDBRANCH   9  12
BRANCH   7   6
ATOM      2  N   UNL     1      -2.786   3.170  25.116  0.00  0.00    -0.263 NA
ATOM      3  C   UNL     1      -2.774   3.863  25.563  0.00  0.00    +0.073 C 
ATOM      4  C   UNL     1      -2.007   3.971  25.847  0.00  0.00    +0.019 C 
ATOM      5  C   UNL     1      -1.544   3.344  25.575  0.00  0.00    +0.027 C 
ATOM      6  C   UNL     1      -2.025   2.849  25.123  0.00  0.00    +0.138 C 
BRANCH   2   1
ATOM      1  C   UNL     1      -3.442   2.853  24.729  0.00  0.00    +0.099 C 
BRANCH   1  23
ATOM     23  C   UNL     1      -4.198   2.977  25.033  0.00  0.00    -0.006 A 
ATOM     24  C   UNL     1      -4.602   2.357  25.398  0.00  0.00    -0.003 A 
ATOM     25  C   UNL     1      -5.360   2.480  25.702  0.00  0.00    -0.000 A 
ATOM     26  C   UNL     1      -5.713   3.223  25.640  0.00  0.00    -0.000 A 
ATOM     27  C   UNL     1      -5.309   3.843  25.275  0.00  0.00    -0.000 A 
ATOM     28  C   UNL     1      -4.552   3.720  24.971  0.00  0.00    -0.003 A 
ENDBRANCH   1  23
ENDBRANCH   2   1
ENDBRANCH   7   6
TORSDOF 5
ENDMDL
MODEL 6
REMARK VINA RESULT:     -11.3      1.393      2.834
REMARK  Name = 
REMARK  5 active torsions:
REMARK  status: ('A' for Active; 'I' for Inactive)
REMARK    1  A    between atoms: C_1  and  N_2
REMARK    2  A    between atoms: C_1  and  C_23
REMARK    3  A    between atoms: C_6  and  C_7
REMARK    4  A    between atoms: C_9  and  C_12
REMARK    5  A    between atoms: C_16  and  N_18
REMARK                            x       y       z     vdW  Elec       q    Type
REMARK                         _______ _______ _______ _____ _____    ______ ____
ROOT
ATOM      7  C   UNL     1      -4.075   0.178  24.775  0.00  0.00    +0.251 A 
ATOM      8  N   UNL     1      -3.788   0.872  24.433  0.00  0.00    -0.190 NA
ATOM      9  C   UNL     1      -4.130   1.510  24.829  0.00  0.00    +0.203 A 
ATOM     10  N   UNL     1      -4.627   1.211  25.414  0.00  0.00    -0.056 NA
ATOM     11  O   UNL     1      -4.593   0.387  25.381  0.00  0.00    -0.336 OA
ENDROOT
BRANCH   9  12
ATOM     12  C   UNL     1      -3.997   2.309  24.667  0.00  0.00    +0.043 A 
ATOM     13  C   UNL     1      -4.588   2.761  24.311  0.00  0.00    +0.024 A 
ATOM     14  C   UNL     1      -4.455   3.559  24.149  0.00  0.00    +0.100 A 
ATOM     15  N   UNL     1      -3.731   3.905  24.344  0.00  0.00    -0.229 NA
ATOM     16  C   UNL     1      -3.140   3.452  24.700  0.00  0.00    +0.132 A 
ATOM     17  C   UNL     1      -3.273   2.654  24.862  0.00  0.00    +0.037 A 
BRANCH  16  18
ATOM     18  N   UNL     1      -2.417   3.798  24.895  0.00  0.00    -0.293 N 
ATOM     19  C   UNL     1      -1.672   3.521  24.673  0.00  0.00    +0.092 C 
ATOM     20  C   UNL     1      -1.107   4.033  24.987  0.00  0.00    +0.023 C 
ATOM     21  C   UNL     1      -1.501   4.626  25.402  0.00  0.00    +0.023 C 
ATOM     22  C   UNL     1      -2.312   4.481  25.346  0.00  0.00    +0.092 C 
ENDBRANCH  16  18
ENDBRANCH   9  12
BRANCH   7   6
ATOM      2  N   UNL     1      -3.183  -0.990  24.745  0.00  0.00    -0.263 NA
ATOM      3  C   UNL     1      -3.216  -1.741  24.405  0.00  0.00    +0.073 C 
ATOM      4  C   UNL     1      -3.931  -1.806  23.998  0.00  0.00    +0.019 C 
ATOM      5  C   UNL     1      -4.340  -1.095  24.088  0.00  0.00    +0.027 C 
ATOM      6  C   UNL     1      -3.878  -0.590  24.549  0.00  0.00    +0.138 C 
BRANCH   2   1
ATOM      1  C   UNL     1      -2.563  -0.691  25.201  0.00  0.00    +0.099 C 
BRANCH   1  23
ATOM     23  C   UNL     1      -1.795  -0.964  25.081  0.00  0.00    -0.006 A 
ATOM     24  C   UNL     1      -1.521  -1.623  25.495  0.00  0.00    -0.003 A 
ATOM     25  C   UNL     1      -0.751  -1.896  25.376  0.00  0.00    -0.000 A 
ATOM     26  C   UNL     1      -0.256  -1.509  24.842  0.00  0.00    -0.000 A 
ATOM     27  C   UNL     1      -0.529  -0.850  24.427  0.00  0.00    -0.000 A 
ATOM     28  C   UNL     1      -1.298  -0.578  24.547  0.00  0.00    -0.003 A 
ENDBRANCH   1  23
ENDBRANCH   2   1
ENDBRANCH   7   6
TORSDOF 5
ENDMDL
