MODEL 1
REMARK VINA RESULT:     -10.0      0.000      0.000
REMARK  Name = 
REMARK  5 active torsions:
REMARK  status: ('A' for Active; 'I' for Inactive)
REMARK    1  A    between atoms: C_2  and  C_4
REMARK    2  A    between atoms: C_4  and  N_5
REMARK    3  A    between atoms: C_9  and  C_10
REMARK    4  A    between atoms: C_12  and  C_15
REMARK    5  A    between atoms: C_18  and  N_21
REMARK                            x       y       z     vdW  Elec       q    Type
REMARK                         _______ _______ _______ _____ _____    ______ ____
ROOT
ATOM     10  C   UNL     1      -3.253   2.417  24.712  0.00  0.00    +0.251 A 
ATOM     11  N   UNL     1      -3.296   1.639  24.985  0.00  0.00    -0.190 NA
ATOM     12  C   UNL     1      -3.413   1.147  24.333  0.00  0.00    +0.205 A 
ATOM     13  N   UNL     1      -3.442   1.620  23.659  0.00  0.00    -0.056 NA
ATOM     14  O   UNL     1      -3.344   2.404  23.893  0.00  0.00    -0.336 OA
ENDROOT
BRANCH  12  15
ATOM     15  C   UNL     1      -3.487   0.325  24.353  0.00  0.00    +0.058 A 
ATOM     16  C   UNL     1      -4.230  -0.023  24.269  0.00  0.00    +0.008 A 
ATOM     17  C   UNL     1      -4.305  -0.845  24.289  0.00  0.00    +0.034 A 
ATOM     18  C   UNL     1      -3.637  -1.317  24.393  0.00  0.00    +0.132 A 
ATOM     19  N   UNL     1      -2.894  -0.969  24.477  0.00  0.00    -0.229 NA
ATOM     20  C   UNL     1      -2.819  -0.147  24.457  0.00  0.00    +0.103 A 
BRANCH  18  21
ATOM     21  N   UNL     1      -3.711  -2.139  24.413  0.00  0.00    -0.290 N 
ATOM     22  C   UNL     1      -3.323  -2.574  24.997  0.00  0.00    +0.114 C 
ATOM     23  C   UNL     1      -4.173  -2.525  23.850  0.00  0.00    +0.114 C 
ENDBRANCH  18  21
ENDBRANCH  12  15
BRANCH  10   9
ATOM      5  N   UNL     1      -2.425   3.481  25.295  0.00  0.00    -0.266 NA
ATOM      6  C   UNL     1      -2.564   4.120  25.798  0.00  0.00    +0.073 C 
ATOM      7  C   UNL     1      -3.366   4.122  25.991  0.00  0.00    +0.019 C 
ATOM      8  C   UNL     1      -3.722   3.484  25.608  0.00  0.00    +0.027 C 
ATOM      9  C   UNL     1      -3.140   3.088  25.178  0.00  0.00    +0.138 C 
BRANCH   5   4
ATOM      4  C   UNL     1      -1.698   3.272  24.967  0.00  0.00    +0.072 C 
BRANCH   4   2
ATOM      1  C   UNL     1      -0.816   4.398  24.932  0.00  0.00    +0.001 C 
ATOM      2  C   UNL     1      -1.007   3.649  25.220  0.00  0.00    +0.016 C 
ATOM      3  C   UNL     1      -0.509   3.275  25.762  0.00  0.00    +0.001 C 
ENDBRANCH   4   2
ENDBRANCH   5   4
ENDBRANCH  10   9
TORSDOF 5
ENDMDL
MODEL 2
REMARK VINA RESULT:      -9.3      1.074      1.836
REMARK  Name = 
REMARK  5 active torsions:
REMARK  status: ('A' for Active; 'I' for Inactive)
REMARK    1  A    between atoms: C_2  and  C_4
REMARK    2  A    between atoms: C_4  and  N_5
REMARK    3  A    between atoms: C_9  and  C_10
REMARK    4  A    between atoms: C_12  and  C_15
REMARK    5  A    between atoms: C_18  and  N_21
REMARK                            x       y       z     vdW  Elec       q    Type
REMARK                         _______ _______ _______ _____ _____    ______ ____
ROOT
ATOM     10  C   UNL     1      -1.271   1.609  24.872  0.00  0.00    +0.251 A 
ATOM     11  N   UNL     1      -1.682   0.935  25.114  0.00  0.00    -0.190 NA
ATOM     12  C   UNL     1      -1.964   0.553  24.439  0.00  0.00    +0.205 A 
ATOM     13  N   UNL     1      -1.728   0.990  23.781  0.00  0.00    -0.056 NA
ATOM     14  O   UNL     1      -1.300   1.641  24.048  0.00  0.00    -0.336 OA
ENDROOT
BRANCH  12  15
ATOM     15  C   UNL     1      -2.405  -0.145  24.426  0.00  0.00    +0.058 A 
ATOM     16  C   UNL     1      -3.220  -0.115  24.297  0.00  0.00    +0.008 A 
ATOM     17  C   UNL     1      -3.661  -0.812  24.283  0.00  0.00    +0.034 A 
ATOM     18  C   UNL     1      -3.287  -1.539  24.399  0.00  0.00    +0.132 A 
ATOM     19  N   UNL     1      -2.473  -1.569  24.528  0.00  0.00    -0.229 NA
ATOM     20  C   UNL     1      -2.032  -0.871  24.542  0.00  0.00    +0.103 A 
BRANCH  18  21
ATOM     21  N   UNL     1      -3.729  -2.236  24.386  0.00  0.00    -0.290 N 
ATOM     22  C   UNL     1      -4.348  -2.321  23.848  0.00  0.00    +0.114 C 
ATOM     23  C   UNL     1      -3.550  -2.847  24.910  0.00  0.00    +0.114 C 
ENDBRANCH  18  21
ENDBRANCH  12  15
BRANCH  10   9
ATOM      5  N   UNL     1      -1.169   2.910  25.545  0.00  0.00    -0.266 NA
ATOM      6  C   UNL     1      -0.627   3.261  26.059  0.00  0.00    +0.073 C 
ATOM      7  C   UNL     1      -0.021   2.719  26.198  0.00  0.00    +0.019 C 
ATOM      8  C   UNL     1      -0.188   2.034  25.770  0.00  0.00    +0.027 C 
ATOM      9  C   UNL     1      -0.898   2.153  25.367  0.00  0.00    +0.138 C 
BRANCH   5   4
ATOM      4  C   UNL     1      -1.861   3.258  25.260  0.00  0.00    +0.072 C 
BRANCH   4   2
ATOM      1  C   UNL     1      -2.677   4.080  26.097  0.00  0.00    +0.001 C 
ATOM      2  C   UNL     1      -2.087   4.006  25.526  0.00  0.00    +0.016 C 
ATOM      3  C   UNL     1      -1.722   4.680  25.219  0.00  0.00    +0.001 C 
ENDBRANCH   4   2
ENDBRANCH   5   4
ENDBRANCH  10   9
TORSDOF 5
ENDMDL
MODEL 3
REMARK VINA RESULT:      -8.9      1.560      5.129
REMARK  Name = 
REMARK  5 active torsions:
REMARK  status: ('A' for Active; 'I' for Inactive)
REMARK    1  A    between atoms: C_2  and  C_4
REMARK    2  A    between atoms: C_4  and  N_5
REMARK    3  A    between atoms: C_9  and  C_10
REMARK    4  A    between atoms: C_12  and  C_15
REMARK    5  A    between atoms: C_18  and  N_21
REMARK                            x       y       z     vdW  Elec       q    Type
REMARK                         _______ _______ _______ _____ _____    ______ ____
ROOT
ATOM     10  C   UNL     1      -1.279   0.074  24.476  0.00  0.00    +0.251 A 
ATOM     11  N   UNL     1      -1.411   0.739  24.946  0.00  0.00    -0.190 NA
ATOM     12  C   UNL     1      -1.429   1.400  24.452  0.00  0.00    +0.205 A 
ATOM     13  N   UNL     1      -1.307   1.144  23.678  0.00  0.00    -0.056 NA
ATOM     14  O   UNL     1      -1.214   0.325  23.693  0.00  0.00    -0.336 OA
ENDROOT
BRANCH  12  15
ATOM     15  C   UNL     1      -1.547   2.181  24.692  0.00  0.00    +0.058 A 
ATOM     16  C   UNL     1      -0.982   2.558  25.160  0.00  0.00    +0.008 A 
ATOM     17  C   UNL     1      -1.101   3.339  25.400  0.00  0.00    +0.034 A 
ATOM     18  C   UNL     1      -1.783   3.742  25.171  0.00  0.00    +0.132 A 
ATOM     19  N   UNL     1      -2.348   3.364  24.703  0.00  0.00    -0.229 NA
ATOM     20  C   UNL     1      -2.230   2.583  24.463  0.00  0.00    +0.103 A 
BRANCH  18  21
ATOM     21  N   UNL     1      -1.902   4.523  25.411  0.00  0.00    -0.290 N 
ATOM     22  C   UNL     1      -2.521   4.707  25.923  0.00  0.00    +0.114 C 
ATOM     23  C   UNL     1      -1.401   5.118  25.137  0.00  0.00    +0.114 C 
ENDBRANCH  18  21
ENDBRANCH  12  15
BRANCH  10   9
ATOM      5  N   UNL     1      -1.844  -1.238  24.818  0.00  0.00    -0.266 NA
ATOM      6  C   UNL     1      -1.539  -1.950  25.103  0.00  0.00    +0.073 C 
ATOM      7  C   UNL     1      -0.725  -1.855  25.203  0.00  0.00    +0.019 C 
ATOM      8  C   UNL     1      -0.529  -1.086  24.980  0.00  0.00    +0.027 C 
ATOM      9  C   UNL     1      -1.221  -0.704  24.742  0.00  0.00    +0.138 C 
BRANCH   5   4
ATOM      4  C   UNL     1      -2.636  -1.087  24.641  0.00  0.00    +0.072 C 
BRANCH   4   2
ATOM      1  C   UNL     1      -3.462  -2.189  24.257  0.00  0.00    +0.001 C 
ATOM      2  C   UNL     1      -3.214  -1.646  24.827  0.00  0.00    +0.016 C 
ATOM      3  C   UNL     1      -3.545  -1.661  25.583  0.00  0.00    +0.001 C 
ENDBRANCH   4   2
ENDBRANCH   5   4
ENDBRANCH  10   9
TORSDOF 5
ENDMDL
MODEL 4
REMARK VINA RESULT:      -8.9      1.666      4.660
REMARK  Name = 
REMARK  5 active torsions:
REMARK  status: ('A' for Active; 'I' for Inactive)
REMARK    1  A    between atoms: C_2  and  C_4
REMARK    2  A    between atoms: C_4  and  N_5
REMARK    3  A    between atoms: C_9  and  C_10
REMARK    4  A    between atoms: C_12  and  C_15
REMARK    5  A    between atoms: C_18  and  N_21
REMARK                            x       y       z     vdW  Elec       q    Type
REMARK                         _______ _______ _______ _____ _____    ______ ____
ROOT
ATOM     10  C   UNL     1      -3.582  -0.613  24.213  0.00  0.00    +0.251 A 
ATOM     11  N   UNL     1      -3.810  -0.030  24.752  0.00  0.00    -0.190 NA
ATOM     12  C   UNL     1      -3.901   0.677  24.338  0.00  0.00    +0.205 A 
ATOM     13  N   UNL     1      -3.730   0.533  23.545  0.00  0.00    -0.056 NA
ATOM     14  O   UNL     1      -3.533  -0.264  23.467  0.00  0.00    -0.336 OA
ENDROOT
BRANCH  12  15
ATOM     15  C   UNL     1      -4.125   1.403  24.662  0.00  0.00    +0.058 A 
ATOM     16  C   UNL     1      -4.910   1.532  24.879  0.00  0.00    +0.008 A 
ATOM     17  C   UNL     1      -5.134   2.258  25.203  0.00  0.00    +0.034 A 
ATOM     18  C   UNL     1      -4.572   2.853  25.309  0.00  0.00    +0.132 A 
ATOM     19  N   UNL     1      -3.787   2.723  25.092  0.00  0.00    -0.229 NA
ATOM     20  C   UNL     1      -3.564   1.998  24.768  0.00  0.00    +0.103 A 
BRANCH  18  21
ATOM     21  N   UNL     1      -4.796   3.578  25.633  0.00  0.00    -0.290 N 
ATOM     22  C   UNL     1      -5.579   3.832  25.573  0.00  0.00    +0.114 C 
ATOM     23  C   UNL     1      -4.237   4.049  26.016  0.00  0.00    +0.114 C 
ENDBRANCH  18  21
ENDBRANCH  12  15
BRANCH  10   9
ATOM      5  N   UNL     1      -2.695  -1.727  24.571  0.00  0.00    -0.266 NA
ATOM      6  C   UNL     1      -2.797  -2.534  24.710  0.00  0.00    +0.073 C 
ATOM      7  C   UNL     1      -3.597  -2.709  24.614  0.00  0.00    +0.019 C 
ATOM      8  C   UNL     1      -3.989  -2.011  24.416  0.00  0.00    +0.027 C 
ATOM      9  C   UNL     1      -3.431  -1.404  24.390  0.00  0.00    +0.138 C 
BRANCH   5   4
ATOM      4  C   UNL     1      -1.980  -1.316  24.607  0.00  0.00    +0.072 C 
BRANCH   4   2
ATOM      1  C   UNL     1      -0.922  -2.222  24.284  0.00  0.00    +0.001 C 
ATOM      2  C   UNL     1      -1.287  -1.711  24.819  0.00  0.00    +0.016 C 
ATOM      3  C   UNL     1      -0.959  -1.595  25.568  0.00  0.00    +0.001 C 
ENDBRANCH   4   2
ENDBRANCH   5   4
ENDBRANCH  10   9
TORSDOF 5
ENDMDL
