REMARK  Name = 
REMARK  8 active torsions:
REMARK  status: ('A' for Active; 'I' for Inactive)
REMARK    1  A    between atoms: C_2  and  C_3
REMARK    2  A    between atoms: C_3  and  N_4
REMARK    3  A    between atoms: C_8  and  C_9
REMARK    4  A    between atoms: C_11  and  C_14
REMARK    5  A    between atoms: C_18  and  O_19
REMARK    6  A    between atoms: O_19  and  C_20
REMARK    7  A    between atoms: C_20  and  C_21
REMARK    8  A    between atoms: C_21  and  O_22
REMARK                            x       y       z     vdW  Elec       q    Type
REMARK                         _______ _______ _______ _____ _____    ______ ____
ROOT
ATOM      9  C   UNL     1      -1.306   1.373   0.000  0.00  0.00    +0.251 A 
ATOM     10  N   UNL     1      -0.754   1.986   0.000  0.00  0.00    -0.190 NA
ATOM     11  C   UNL     1       0.000   1.650   0.000  0.00  0.00    +0.204 A 
ATOM     12  N   UNL     1      -0.086   0.830   0.000  0.00  0.00    -0.056 NA
ATOM     13  O   UNL     1      -0.893   0.658   0.000  0.00  0.00    -0.336 OA
ENDROOT
BRANCH  11  14
ATOM     14  C   UNL     1       0.715   2.062   0.000  0.00  0.00    +0.045 A 
ATOM     15  C   UNL     1       0.715   2.888   0.000  0.00  0.00    +0.024 A 
ATOM     16  C   UNL     1       1.429   3.300   0.000  0.00  0.00    +0.102 A 
ATOM     17  N   UNL     1       2.143   2.888   0.000  0.00  0.00    -0.210 NA
ATOM     18  C   UNL     1       2.143   2.062   0.000  0.00  0.00    +0.225 A 
ATOM     24  C   UNL     1       1.429   1.650   0.000  0.00  0.00    +0.061 A 
BRANCH  18  19
ATOM     19  O   UNL     1       2.858   1.650   0.000  0.00  0.00    -0.457 OA
BRANCH  19  20
ATOM     20  C   UNL     1       2.858   0.825   0.000  0.00  0.00    +0.239 C 
BRANCH  20  21
ATOM     21  C   UNL     1       3.572   0.412   0.000  0.00  0.00    +0.189 C 
BRANCH  21  22
ATOM     22  O   UNL     1       4.287   0.825   0.000  0.00  0.00    -0.347 OA
ATOM     23  C   UNL     1       4.287   1.650   0.000  0.00  0.00    +0.174 C 
ENDBRANCH  21  22
ENDBRANCH  20  21
ENDBRANCH  19  20
ENDBRANCH  18  19
ENDBRANCH  11  14
BRANCH   9   8
ATOM      4  N   UNL     1      -2.678   0.846   0.000  0.00  0.00    -0.266 NA
ATOM      5  C   UNL     1      -3.432   1.181   0.000  0.00  0.00    +0.073 C 
ATOM      6  C   UNL     1      -3.346   2.002   0.000  0.00  0.00    +0.019 C 
ATOM      7  C   UNL     1      -2.539   2.173   0.000  0.00  0.00    +0.027 C 
ATOM      8  C   UNL     1      -2.126   1.459   0.000  0.00  0.00    +0.138 C 
BRANCH   4   3
ATOM      3  C   UNL     1      -2.507   0.039   0.000  0.00  0.00    +0.072 C 
BRANCH   3   2
ATOM      1  C   UNL     1      -2.948  -1.320   0.000  0.00  0.00    +0.001 C 
ATOM      2  C   UNL     1      -3.120  -0.513   0.000  0.00  0.00    +0.017 C 
ENDBRANCH   3   2
ENDBRANCH   4   3
ENDBRANCH   9   8
TORSDOF 8
