REMARK  Name = 
REMARK  8 active torsions:
REMARK  status: ('A' for Active; 'I' for Inactive)
REMARK    1  A    between atoms: C_2  and  C_4
REMARK    2  A    between atoms: C_6  and  C_7
REMARK    3  A    between atoms: C_7  and  C_8
REMARK    4  A    between atoms: C_11  and  C_12
REMARK    5  A    between atoms: C_12  and  O_13
REMARK    6  A    between atoms: O_13  and  C_14
REMARK    7  A    between atoms: C_25  and  C_26
REMARK    8  A    between atoms: C_26  and  N_27
REMARK                            x       y       z     vdW  Elec       q    Type
REMARK                         _______ _______ _______ _____ _____    ______ ____
ROOT
ATOM      4  C   UNL     1       1.429  -2.475   0.000  0.00  0.00    +0.006 C 
ATOM      5  C   UNL     1       2.143  -2.888   0.000  0.00  0.00    +0.005 C 
ATOM      6  C   UNL     1       2.858  -2.475   0.000  0.00  0.00    +0.027 C 
ATOM     22  C   UNL     1       2.858  -1.650   0.000  0.00  0.00    -0.048 C 
ATOM     23  C   UNL     1       3.572  -1.238   0.000  0.00  0.00    +0.026 C 
ATOM     24  C   UNL     1       2.143  -1.238   0.000  0.00  0.00    -0.034 C 
ATOM     25  C   UNL     1       1.429  -1.650   0.000  0.00  0.00    +0.037 C 
ENDROOT
BRANCH   4   2
ATOM      1  C   UNL     1       0.000  -2.475   0.000  0.00  0.00    +0.000 C 
ATOM      2  C   UNL     1       0.715  -2.888   0.000  0.00  0.00    +0.000 C 
ATOM      3  C   UNL     1       0.715  -3.712   0.000  0.00  0.00    +0.000 C 
ENDBRANCH   4   2
BRANCH   6   7
ATOM      7  C   UNL     1       3.572  -2.888   0.000  0.00  0.00    +0.091 C 
BRANCH   7   8
ATOM      8  C   UNL     1       3.572  -3.712   0.000  0.00  0.00    +0.227 A 
ATOM      9  N   UNL     1       4.240  -4.197   0.000  0.00  0.00    -0.112 NA
ATOM     10  N   UNL     1       3.985  -4.982   0.000  0.00  0.00    -0.108 NA
ATOM     11  C   UNL     1       3.160  -4.982   0.000  0.00  0.00    +0.270 A 
ATOM     21  O   UNL     1       2.905  -4.197   0.000  0.00  0.00    -0.420 OA
BRANCH  11  12
ATOM     12  C   UNL     1       2.675  -5.649   0.000  0.00  0.00    +0.291 C 
BRANCH  12  13
ATOM     13  O   UNL     1       3.010  -6.403   0.000  0.00  0.00    -0.465 OA
BRANCH  13  14
ATOM     14  C   UNL     1       2.526  -7.071   0.000  0.00  0.00    +0.139 A 
ATOM     15  C   UNL     1       2.861  -7.824   0.000  0.00  0.00    +0.039 A 
ATOM     16  C   UNL     1       2.376  -8.492   0.000  0.00  0.00    +0.033 A 
ATOM     17  C   UNL     1       1.556  -8.405   0.000  0.00  0.00    +0.140 A 
ATOM     18  F   UNL     1       1.071  -9.073   0.000  0.00  0.00    -0.204 F 
ATOM     19  C   UNL     1       1.220  -7.652   0.000  0.00  0.00    +0.033 A 
ATOM     20  C   UNL     1       1.705  -6.984   0.000  0.00  0.00    +0.039 A 
ENDBRANCH  13  14
ENDBRANCH  12  13
ENDBRANCH  11  12
ENDBRANCH   7   8
ENDBRANCH   6   7
BRANCH  25  26
ATOM     26  C   UNL     1       0.715  -1.238   0.000  0.00  0.00    +0.076 C 
BRANCH  26  27
ATOM     27  N   UNL     1       0.715  -0.412   0.000  0.00  0.00    -0.270 NA
ATOM     28  C   UNL     1       0.000   0.000   0.000  0.00  0.00    +0.090 C 
ATOM     29  C   UNL     1       0.000   0.825   0.000  0.00  0.00    +0.090 C 
ATOM     30  N   UNL     1       0.715   1.238   0.000  0.00  0.00    -0.269 NA
ATOM     31  C   UNL     1       0.715   2.062   0.000  0.00  0.00    +0.090 C 
ATOM     32  C   UNL     1       1.429   0.825   0.000  0.00  0.00    +0.090 C 
ATOM     33  C   UNL     1       1.429   0.000   0.000  0.00  0.00    +0.090 C 
ENDBRANCH  26  27
ENDBRANCH  25  26
TORSDOF 8
