REMARK  Name = 
REMARK  10 active torsions:
REMARK  status: ('A' for Active; 'I' for Inactive)
REMARK    1  A    between atoms: C_2  and  O_3
REMARK    2  A    between atoms: O_3  and  C_4
REMARK    3  A    between atoms: C_4  and  C_6
REMARK    4  A    between atoms: C_6  and  C_7
REMARK    5  A    between atoms: C_9  and  C_10
REMARK    6  A    between atoms: C_13  and  C_14
REMARK    7  A    between atoms: C_14  and  N_15
REMARK    8  A    between atoms: N_15  and  S_16
REMARK    9  A    between atoms: S_16  and  C_19
REMARK   10  A    between atoms: C_22  and  N_23
REMARK                            x       y       z     vdW  Elec       q    Type
REMARK                         _______ _______ _______ _____ _____    ______ ____
ROOT
ATOM      7  C   UNL     1       4.287  -7.425   0.000  0.00  0.00    +0.029 C 
ATOM      8  C   UNL     1       5.001  -7.013   0.000  0.00  0.00    +0.005 C 
ATOM      9  C   UNL     1       5.716  -7.425   0.000  0.00  0.00    +0.006 C 
ATOM     13  C   UNL     1       5.716  -8.250   0.000  0.00  0.00    +0.041 C 
ATOM     29  C   UNL     1       5.001  -8.662   0.000  0.00  0.00    -0.033 C 
ATOM     30  C   UNL     1       4.287  -8.250   0.000  0.00  0.00    -0.048 C 
ATOM     31  C   UNL     1       3.572  -8.662   0.000  0.00  0.00    +0.026 C 
ENDROOT
BRANCH   9  10
ATOM     10  C   UNL     1       6.430  -7.013   0.000  0.00  0.00    +0.000 C 
ATOM     11  C   UNL     1       7.145  -7.425   0.000  0.00  0.00    +0.000 C 
ATOM     12  C   UNL     1       6.430  -6.188   0.000  0.00  0.00    +0.000 C 
ENDBRANCH   9  10
BRANCH   7   6
ATOM      6  C   UNL     1       3.572  -7.013   0.000  0.00  0.00    +0.114 C 
BRANCH   6   4
ATOM      4  C   UNL     1       2.858  -7.425   0.000  0.00  0.00    +0.317 C 
ATOM      5  O   UNL     1       2.858  -8.250   0.000  0.00  0.00    -0.250 OA
BRANCH   4   3
ATOM      3  O   UNL     1       2.143  -7.013   0.000  0.00  0.00    -0.448 OA
BRANCH   3   2
ATOM      1  C   UNL     1       0.715  -7.013   0.000  0.00  0.00    +0.051 C 
ATOM      2  C   UNL     1       1.429  -7.425   0.000  0.00  0.00    +0.209 C 
ENDBRANCH   3   2
ENDBRANCH   4   3
ENDBRANCH   6   4
ENDBRANCH   7   6
BRANCH  13  14
ATOM     14  C   UNL     1       6.430  -8.662   0.000  0.00  0.00    +0.120 C 
BRANCH  14  15
ATOM     15  N   UNL     1       7.145  -8.250   0.000  0.00  0.00    -0.077 NA
BRANCH  15  16
ATOM     16  S   UNL     1       7.859  -8.662   0.000  0.00  0.00    +0.077 S 
ATOM     17  O   UNL     1       7.447  -9.377   0.000  0.00  0.00    -0.152 OA
ATOM     18  O   UNL     1       8.272  -7.948   0.000  0.00  0.00    -0.152 OA
BRANCH  16  19
ATOM     19  C   UNL     1       8.574  -9.075   0.000  0.00  0.00    +0.124 A 
ATOM     20  C   UNL     1       9.288  -8.662   0.000  0.00  0.00    +0.021 A 
ATOM     21  C   UNL     1      10.003  -9.075   0.000  0.00  0.00    +0.018 A 
ATOM     22  C   UNL     1      10.003  -9.900   0.000  0.00  0.00    +0.073 A 
ATOM     27  C   UNL     1       9.288 -10.312   0.000  0.00  0.00    +0.018 A 
ATOM     28  C   UNL     1       8.574  -9.900   0.000  0.00  0.00    +0.021 A 
BRANCH  22  23
ATOM     23  N   UNL     1      10.717 -10.312   0.000  0.00  0.00    -0.179 NA
ATOM     24  C   UNL     1      10.717 -11.137   0.000  0.00  0.00    +0.246 C 
ATOM     25  C   UNL     1      11.431 -11.550   0.000  0.00  0.00    +0.097 C 
ATOM     26  O   UNL     1      10.003 -11.550   0.000  0.00  0.00    -0.273 OA
ENDBRANCH  22  23
ENDBRANCH  16  19
ENDBRANCH  15  16
ENDBRANCH  14  15
ENDBRANCH  13  14
TORSDOF 10
