MODEL 1
REMARK VINA RESULT:     -11.8      0.000      0.000
REMARK  Name = 
REMARK  6 active torsions:
REMARK  status: ('A' for Active; 'I' for Inactive)
REMARK    1  A    between atoms: C_2  and  C_4
REMARK    2  A    between atoms: C_6  and  C_7
REMARK    3  A    between atoms: C_7  and  C_8
REMARK    4  A    between atoms: C_19  and  C_20
REMARK    5  A    between atoms: C_20  and  N_21
REMARK    6  A    between atoms: C_22  and  C_24
REMARK                            x       y       z     vdW  Elec       q    Type
REMARK                         _______ _______ _______ _____ _____    ______ ____
ROOT
ATOM      4  C   UNL     1      -4.651   1.456  25.011  0.00  0.00    +0.006 C 
ATOM      5  C   UNL     1      -4.657   0.661  24.792  0.00  0.00    +0.005 C 
ATOM      6  C   UNL     1      -3.980   0.315  24.476  0.00  0.00    +0.027 C 
ATOM     16  C   UNL     1      -3.294   0.764  24.377  0.00  0.00    -0.048 C 
ATOM     17  C   UNL     1      -2.616   0.417  24.060  0.00  0.00    +0.026 C 
ATOM     18  C   UNL     1      -3.288   1.560  24.596  0.00  0.00    -0.033 C 
ATOM     19  C   UNL     1      -3.965   1.906  24.913  0.00  0.00    +0.043 C 
ENDROOT
BRANCH   4   2
ATOM      1  C   UNL     1      -5.879   2.164  24.830  0.00  0.00    +0.000 C 
ATOM      2  C   UNL     1      -5.329   1.803  25.328  0.00  0.00    +0.000 C 
ATOM      3  C   UNL     1      -5.457   1.788  26.143  0.00  0.00    +0.000 C 
ENDBRANCH   4   2
BRANCH   6   7
ATOM      7  C   UNL     1      -3.986  -0.481  24.257  0.00  0.00    +0.089 C 
BRANCH   7   8
ATOM      8  C   UNL     1      -3.795  -1.063  24.809  0.00  0.00    +0.226 C 
ATOM      9  O   UNL     1      -3.590  -0.848  25.579  0.00  0.00    -0.275 OA
ATOM     10  N   UNL     1      -3.809  -1.858  24.592  0.00  0.00    -0.274 N 
ATOM     11  C   UNL     1      -4.014  -2.072  23.822  0.00  0.00    +0.125 C 
ATOM     12  C   UNL     1      -4.027  -2.868  23.605  0.00  0.00    +0.164 C 
ATOM     13  O   UNL     1      -3.836  -3.450  24.159  0.00  0.00    -0.350 OA
ATOM     14  C   UNL     1      -3.631  -3.236  24.928  0.00  0.00    +0.164 C 
ATOM     15  C   UNL     1      -3.617  -2.440  25.146  0.00  0.00    +0.125 C 
ENDBRANCH   7   8
ENDBRANCH   6   7
BRANCH  19  20
ATOM     20  C   UNL     1      -3.959   2.701  25.132  0.00  0.00    +0.120 C 
BRANCH  20  21
ATOM     21  N   UNL     1      -3.299   3.169  24.971  0.00  0.00    -0.201 NA
ATOM     22  C   UNL     1      -3.105   3.795  25.471  0.00  0.00    +0.265 C 
ATOM     23  O   UNL     1      -3.571   3.954  26.133  0.00  0.00    -0.268 OA
BRANCH  22  24
ATOM     24  C   UNL     1      -2.444   4.263  25.310  0.00  0.00    +0.055 A 
ATOM     25  C   UNL     1      -2.542   5.053  25.092  0.00  0.00    +0.004 A 
ATOM     26  C   UNL     1      -1.882   5.521  24.931  0.00  0.00    -0.004 A 
ATOM     27  C   UNL     1      -1.124   5.198  24.987  0.00  0.00    -0.022 A 
ATOM     28  C   UNL     1      -0.465   5.666  24.826  0.00  0.00    +0.031 C 
ATOM     29  C   UNL     1      -1.027   4.409  25.204  0.00  0.00    -0.004 A 
ATOM     30  C   UNL     1      -1.688   3.941  25.365  0.00  0.00    +0.004 A 
ENDBRANCH  22  24
ENDBRANCH  20  21
ENDBRANCH  19  20
TORSDOF 6
ENDMDL
MODEL 2
REMARK VINA RESULT:     -11.7      1.304      5.815
REMARK  Name = 
REMARK  6 active torsions:
REMARK  status: ('A' for Active; 'I' for Inactive)
REMARK    1  A    between atoms: C_2  and  C_4
REMARK    2  A    between atoms: C_6  and  C_7
REMARK    3  A    between atoms: C_7  and  C_8
REMARK    4  A    between atoms: C_19  and  C_20
REMARK    5  A    between atoms: C_20  and  N_21
REMARK    6  A    between atoms: C_22  and  C_24
REMARK                            x       y       z     vdW  Elec       q    Type
REMARK                         _______ _______ _______ _____ _____    ______ ____
ROOT
ATOM      4  C   UNL     1      -3.427   2.225  24.613  0.00  0.00    +0.006 C 
ATOM      5  C   UNL     1      -2.855   2.787  24.808  0.00  0.00    +0.005 C 
ATOM      6  C   UNL     1      -2.139   2.549  25.139  0.00  0.00    +0.027 C 
ATOM     16  C   UNL     1      -1.993   1.749  25.278  0.00  0.00    -0.048 C 
ATOM     17  C   UNL     1      -1.276   1.511  25.610  0.00  0.00    +0.026 C 
ATOM     18  C   UNL     1      -2.565   1.187  25.083  0.00  0.00    -0.033 C 
ATOM     19  C   UNL     1      -3.281   1.424  24.752  0.00  0.00    +0.043 C 
ENDROOT
BRANCH   4   2
ATOM      1  C   UNL     1      -4.808   2.561  24.761  0.00  0.00    +0.000 C 
ATOM      2  C   UNL     1      -4.143   2.463  24.281  0.00  0.00    +0.000 C 
ATOM      3  C   UNL     1      -4.195   2.604  23.471  0.00  0.00    +0.000 C 
ENDBRANCH   4   2
BRANCH   6   7
ATOM      7  C   UNL     1      -1.567   3.112  25.334  0.00  0.00    +0.089 C 
BRANCH   7   8
ATOM      8  C   UNL     1      -1.789   3.892  25.483  0.00  0.00    +0.226 C 
ATOM      9  O   UNL     1      -2.443   4.050  25.961  0.00  0.00    -0.275 OA
ATOM     10  N   UNL     1      -1.359   4.514  25.154  0.00  0.00    -0.274 N 
ATOM     11  C   UNL     1      -0.705   4.356  24.676  0.00  0.00    +0.125 C 
ATOM     12  C   UNL     1      -0.274   4.977  24.347  0.00  0.00    +0.164 C 
ATOM     13  O   UNL     1      -0.497   5.759  24.497  0.00  0.00    -0.350 OA
ATOM     14  C   UNL     1      -1.150   5.917  24.975  0.00  0.00    +0.164 C 
ATOM     15  C   UNL     1      -1.581   5.295  25.304  0.00  0.00    +0.125 C 
ENDBRANCH   7   8
ENDBRANCH   6   7
BRANCH  19  20
ATOM     20  C   UNL     1      -3.853   0.863  24.557  0.00  0.00    +0.120 C 
BRANCH  20  21
ATOM     21  N   UNL     1      -3.651   0.064  24.517  0.00  0.00    -0.201 NA
ATOM     22  C   UNL     1      -4.241  -0.511  24.518  0.00  0.00    +0.265 C 
ATOM     23  O   UNL     1      -5.035  -0.289  24.559  0.00  0.00    -0.268 OA
BRANCH  22  24
ATOM     24  C   UNL     1      -4.038  -1.311  24.478  0.00  0.00    +0.055 A 
ATOM     25  C   UNL     1      -4.232  -1.752  23.808  0.00  0.00    +0.004 A 
ATOM     26  C   UNL     1      -4.030  -2.551  23.767  0.00  0.00    -0.004 A 
ATOM     27  C   UNL     1      -3.633  -2.909  24.397  0.00  0.00    -0.022 A 
ATOM     28  C   UNL     1      -3.431  -3.706  24.357  0.00  0.00    +0.031 C 
ATOM     29  C   UNL     1      -3.440  -2.467  25.066  0.00  0.00    -0.004 A 
ATOM     30  C   UNL     1      -3.643  -1.668  25.106  0.00  0.00    +0.004 A 
ENDBRANCH  22  24
ENDBRANCH  20  21
ENDBRANCH  19  20
TORSDOF 6
ENDMDL
MODEL 3
REMARK VINA RESULT:     -11.2      1.252      2.296
REMARK  Name = 
REMARK  6 active torsions:
REMARK  status: ('A' for Active; 'I' for Inactive)
REMARK    1  A    between atoms: C_2  and  C_4
REMARK    2  A    between atoms: C_6  and  C_7
REMARK    3  A    between atoms: C_7  and  C_8
REMARK    4  A    between atoms: C_19  and  C_20
REMARK    5  A    between atoms: C_20  and  N_21
REMARK    6  A    between atoms: C_22  and  C_24
REMARK                            x       y       z     vdW  Elec       q    Type
REMARK                         _______ _______ _______ _____ _____    ______ ____
ROOT
ATOM      4  C   UNL     1      -1.689   0.318  24.861  0.00  0.00    +0.006 C 
ATOM      5  C   UNL     1      -2.278  -0.250  24.756  0.00  0.00    +0.005 C 
ATOM      6  C   UNL     1      -3.072  -0.041  24.834  0.00  0.00    +0.027 C 
ATOM     16  C   UNL     1      -3.278   0.736  25.017  0.00  0.00    -0.048 C 
ATOM     17  C   UNL     1      -4.072   0.945  25.095  0.00  0.00    +0.026 C 
ATOM     18  C   UNL     1      -2.689   1.305  25.123  0.00  0.00    -0.033 C 
ATOM     19  C   UNL     1      -1.896   1.097  25.045  0.00  0.00    +0.043 C 
ENDROOT
BRANCH   4   2
ATOM      1  C   UNL     1      -0.482  -0.188  25.433  0.00  0.00    +0.000 C 
ATOM      2  C   UNL     1      -0.895   0.109  24.783  0.00  0.00    +0.000 C 
ATOM      3  C   UNL     1      -0.515   0.198  24.057  0.00  0.00    +0.000 C 
ENDBRANCH   4   2
BRANCH   6   7
ATOM      7  C   UNL     1      -3.661  -0.610  24.728  0.00  0.00    +0.089 C 
BRANCH   7   8
ATOM      8  C   UNL     1      -3.583  -1.354  25.076  0.00  0.00    +0.226 C 
ATOM      9  O   UNL     1      -3.323  -1.418  25.857  0.00  0.00    -0.275 OA
ATOM     10  N   UNL     1      -3.765  -2.032  24.644  0.00  0.00    -0.274 N 
ATOM     11  C   UNL     1      -4.025  -1.967  23.864  0.00  0.00    +0.125 C 
ATOM     12  C   UNL     1      -4.208  -2.645  23.432  0.00  0.00    +0.164 C 
ATOM     13  O   UNL     1      -4.130  -3.390  23.781  0.00  0.00    -0.350 OA
ATOM     14  C   UNL     1      -3.871  -3.455  24.560  0.00  0.00    +0.164 C 
ATOM     15  C   UNL     1      -3.688  -2.776  24.993  0.00  0.00    +0.125 C 
ENDBRANCH   7   8
ENDBRANCH   6   7
BRANCH  19  20
ATOM     20  C   UNL     1      -1.307   1.665  25.151  0.00  0.00    +0.120 C 
BRANCH  20  21
ATOM     21  N   UNL     1      -1.481   2.464  25.048  0.00  0.00    -0.201 NA
ATOM     22  C   UNL     1      -0.981   3.039  25.363  0.00  0.00    +0.265 C 
ATOM     23  O   UNL     1      -0.307   2.815  25.782  0.00  0.00    -0.268 OA
BRANCH  22  24
ATOM     24  C   UNL     1      -1.156   3.840  25.260  0.00  0.00    +0.055 A 
ATOM     25  C   UNL     1      -0.642   4.321  24.829  0.00  0.00    +0.004 A 
ATOM     26  C   UNL     1      -0.817   5.121  24.726  0.00  0.00    -0.004 A 
ATOM     27  C   UNL     1      -1.504   5.439  25.054  0.00  0.00    -0.022 A 
ATOM     28  C   UNL     1      -1.679   6.238  24.951  0.00  0.00    +0.031 C 
ATOM     29  C   UNL     1      -2.017   4.957  25.484  0.00  0.00    -0.004 A 
ATOM     30  C   UNL     1      -1.843   4.157  25.587  0.00  0.00    +0.004 A 
ENDBRANCH  22  24
ENDBRANCH  20  21
ENDBRANCH  19  20
TORSDOF 6
ENDMDL
MODEL 4
REMARK VINA RESULT:     -10.4      3.141      4.905
REMARK  Name = 
REMARK  6 active torsions:
REMARK  status: ('A' for Active; 'I' for Inactive)
REMARK    1  A    between atoms: C_2  and  C_4
REMARK    2  A    between atoms: C_6  and  C_7
REMARK    3  A    between atoms: C_7  and  C_8
REMARK    4  A    between atoms: C_19  and  C_20
REMARK    5  A    between atoms: C_20  and  N_21
REMARK    6  A    between atoms: C_22  and  C_24
REMARK                            x       y       z     vdW  Elec       q    Type
REMARK                         _______ _______ _______ _____ _____    ______ ____
ROOT
ATOM      4  C   UNL     1      -1.344  -0.286  24.583  0.00  0.00    +0.006 C 
ATOM      5  C   UNL     1      -0.565  -0.150  24.347  0.00  0.00    +0.005 C 
ATOM      6  C   UNL     1      -0.369   0.545  23.951  0.00  0.00    +0.027 C 
ATOM     16  C   UNL     1      -0.951   1.106  23.789  0.00  0.00    -0.048 C 
ATOM     17  C   UNL     1      -0.755   1.802  23.392  0.00  0.00    +0.026 C 
ATOM     18  C   UNL     1      -1.731   0.971  24.024  0.00  0.00    -0.033 C 
ATOM     19  C   UNL     1      -1.927   0.276  24.421  0.00  0.00    +0.043 C 
ENDROOT
BRANCH   4   2
ATOM      1  C   UNL     1      -1.807  -1.637  24.555  0.00  0.00    +0.000 C 
ATOM      2  C   UNL     1      -1.540  -0.981  24.980  0.00  0.00    +0.000 C 
ATOM      3  C   UNL     1      -1.469  -1.022  25.800  0.00  0.00    +0.000 C 
ENDBRANCH   4   2
BRANCH   6   7
ATOM      7  C   UNL     1       0.411   0.680  23.715  0.00  0.00    +0.089 C 
BRANCH   7   8
ATOM      8  C   UNL     1       0.760   0.195  23.147  0.00  0.00    +0.226 C 
ATOM      9  O   UNL     1       0.312  -0.386  22.769  0.00  0.00    -0.275 OA
ATOM     10  N   UNL     1       1.557   0.289  22.958  0.00  0.00    -0.274 N 
ATOM     11  C   UNL     1       2.006   0.870  23.337  0.00  0.00    +0.125 C 
ATOM     12  C   UNL     1       2.802   0.965  23.148  0.00  0.00    +0.164 C 
ATOM     13  O   UNL     1       3.152   0.478  22.579  0.00  0.00    -0.350 OA
ATOM     14  C   UNL     1       2.705  -0.102  22.201  0.00  0.00    +0.164 C 
ATOM     15  C   UNL     1       1.907  -0.197  22.390  0.00  0.00    +0.125 C 
ENDBRANCH   7   8
ENDBRANCH   6   7
BRANCH  19  20
ATOM     20  C   UNL     1      -2.706   0.141  24.656  0.00  0.00    +0.120 C 
BRANCH  20  21
ATOM     21  N   UNL     1      -3.198   0.776  24.843  0.00  0.00    -0.201 NA
ATOM     22  C   UNL     1      -4.015   0.700  24.771  0.00  0.00    +0.265 C 
ATOM     23  O   UNL     1      -4.343  -0.013  24.513  0.00  0.00    -0.268 OA
BRANCH  22  24
ATOM     24  C   UNL     1      -4.507   1.336  24.958  0.00  0.00    +0.055 A 
ATOM     25  C   UNL     1      -5.116   1.239  25.507  0.00  0.00    +0.004 A 
ATOM     26  C   UNL     1      -5.608   1.874  25.693  0.00  0.00    -0.004 A 
ATOM     27  C   UNL     1      -5.491   2.607  25.331  0.00  0.00    -0.022 A 
ATOM     28  C   UNL     1      -5.982   3.242  25.518  0.00  0.00    +0.031 C 
ATOM     29  C   UNL     1      -4.882   2.703  24.783  0.00  0.00    -0.004 A 
ATOM     30  C   UNL     1      -4.390   2.067  24.596  0.00  0.00    +0.004 A 
ENDBRANCH  22  24
ENDBRANCH  20  21
ENDBRANCH  19  20
TORSDOF 6
ENDMDL
MODEL 5
REMARK VINA RESULT:     -10.2      3.043      4.930
REMARK  Name = 
REMARK  6 active torsions:
REMARK  status: ('A' for Active; 'I' for Inactive)
REMARK    1  A    between atoms: C_2  and  C_4
REMARK    2  A    between atoms: C_6  and  C_7
REMARK    3  A    between atoms: C_7  and  C_8
REMARK    4  A    between atoms: C_19  and  C_20
REMARK    5  A    between atoms: C_20  and  N_21
REMARK    6  A    between atoms: C_22  and  C_24
REMARK                            x       y       z     vdW  Elec       q    Type
REMARK                         _______ _______ _______ _____ _____    ______ ____
ROOT
ATOM      4  C   UNL     1      -1.881   0.466  24.711  0.00  0.00    +0.006 C 
ATOM      5  C   UNL     1      -2.507   0.995  24.809  0.00  0.00    +0.005 C 
ATOM      6  C   UNL     1      -2.598   1.626  24.288  0.00  0.00    +0.027 C 
ATOM     16  C   UNL     1      -2.065   1.731  23.668  0.00  0.00    -0.048 C 
ATOM     17  C   UNL     1      -2.156   2.364  23.146  0.00  0.00    +0.026 C 
ATOM     18  C   UNL     1      -1.438   1.202  23.569  0.00  0.00    -0.033 C 
ATOM     19  C   UNL     1      -1.346   0.571  24.090  0.00  0.00    +0.043 C 
ENDROOT
BRANCH   4   2
ATOM      1  C   UNL     1      -2.138  -0.895  25.063  0.00  0.00    +0.000 C 
ATOM      2  C   UNL     1      -1.789  -0.166  25.233  0.00  0.00    +0.000 C 
ATOM      3  C   UNL     1      -1.349  -0.070  25.923  0.00  0.00    +0.000 C 
ENDBRANCH   4   2
BRANCH   6   7
ATOM      7  C   UNL     1      -3.225   2.155  24.386  0.00  0.00    +0.089 C 
BRANCH   7   8
ATOM      8  C   UNL     1      -3.995   1.871  24.469  0.00  0.00    +0.226 C 
ATOM      9  O   UNL     1      -4.212   1.158  24.114  0.00  0.00    -0.275 OA
ATOM     10  N   UNL     1      -4.548   2.300  24.905  0.00  0.00    -0.274 N 
ATOM     11  C   UNL     1      -4.331   3.013  25.260  0.00  0.00    +0.125 C 
ATOM     12  C   UNL     1      -4.884   3.441  25.696  0.00  0.00    +0.164 C 
ATOM     13  O   UNL     1      -5.655   3.157  25.779  0.00  0.00    -0.350 OA
ATOM     14  C   UNL     1      -5.872   2.445  25.425  0.00  0.00    +0.164 C 
ATOM     15  C   UNL     1      -5.319   2.016  24.987  0.00  0.00    +0.125 C 
ENDBRANCH   7   8
ENDBRANCH   6   7
BRANCH  19  20
ATOM     20  C   UNL     1      -0.720   0.042  23.993  0.00  0.00    +0.120 C 
BRANCH  20  21
ATOM     21  N   UNL     1       0.011   0.313  23.723  0.00  0.00    -0.201 NA
ATOM     22  C   UNL     1       0.570  -0.223  23.441  0.00  0.00    +0.265 C 
ATOM     23  O   UNL     1       0.400  -1.030  23.430  0.00  0.00    -0.268 OA
BRANCH  22  24
ATOM     24  C   UNL     1       1.302   0.048  23.171  0.00  0.00    +0.055 A 
ATOM     25  C   UNL     1       1.654  -0.303  22.512  0.00  0.00    +0.004 A 
ATOM     26  C   UNL     1       2.385  -0.032  22.242  0.00  0.00    -0.004 A 
ATOM     27  C   UNL     1       2.764   0.590  22.631  0.00  0.00    -0.022 A 
ATOM     28  C   UNL     1       3.494   0.861  22.361  0.00  0.00    +0.031 C 
ATOM     29  C   UNL     1       2.411   0.940  23.289  0.00  0.00    -0.004 A 
ATOM     30  C   UNL     1       1.681   0.669  23.559  0.00  0.00    +0.004 A 
ENDBRANCH  22  24
ENDBRANCH  20  21
ENDBRANCH  19  20
TORSDOF 6
ENDMDL
MODEL 6
REMARK VINA RESULT:      -9.5      2.967      4.733
REMARK  Name = 
REMARK  6 active torsions:
REMARK  status: ('A' for Active; 'I' for Inactive)
REMARK    1  A    between atoms: C_2  and  C_4
REMARK    2  A    between atoms: C_6  and  C_7
REMARK    3  A    between atoms: C_7  and  C_8
REMARK    4  A    between atoms: C_19  and  C_20
REMARK    5  A    between atoms: C_20  and  N_21
REMARK    6  A    between atoms: C_22  and  C_24
REMARK                            x       y       z     vdW  Elec       q    Type
REMARK                         _______ _______ _______ _____ _____    ______ ____
ROOT
ATOM      4  C   UNL     1      -0.897   2.598  24.410  0.00  0.00    +0.006 C 
ATOM      5  C   UNL     1      -0.295   2.067  24.221  0.00  0.00    +0.005 C 
ATOM      6  C   UNL     1      -0.474   1.280  24.055  0.00  0.00    +0.027 C 
ATOM     16  C   UNL     1      -1.257   1.022  24.077  0.00  0.00    -0.048 C 
ATOM     17  C   UNL     1      -1.438   0.234  23.911  0.00  0.00    +0.026 C 
ATOM     18  C   UNL     1      -1.861   1.553  24.266  0.00  0.00    -0.033 C 
ATOM     19  C   UNL     1      -1.681   2.340  24.432  0.00  0.00    +0.043 C 
ENDROOT
BRANCH   4   2
ATOM      1  C   UNL     1      -0.620   3.630  25.358  0.00  0.00    +0.000 C 
ATOM      2  C   UNL     1      -0.717   3.385  24.576  0.00  0.00    +0.000 C 
ATOM      3  C   UNL     1      -0.635   3.928  23.961  0.00  0.00    +0.000 C 
ENDBRANCH   4   2
BRANCH   6   7
ATOM      7  C   UNL     1       0.129   0.750  23.866  0.00  0.00    +0.089 C 
BRANCH   7   8
ATOM      8  C   UNL     1       0.914   1.005  23.852  0.00  0.00    +0.226 C 
ATOM      9  O   UNL     1       1.166   1.591  24.375  0.00  0.00    -0.275 OA
ATOM     10  N   UNL     1       1.445   0.675  23.315  0.00  0.00    -0.274 N 
ATOM     11  C   UNL     1       1.193   0.088  22.792  0.00  0.00    +0.125 C 
ATOM     12  C   UNL     1       1.724  -0.242  22.255  0.00  0.00    +0.164 C 
ATOM     13  O   UNL     1       2.509   0.014  22.240  0.00  0.00    -0.350 OA
ATOM     14  C   UNL     1       2.761   0.599  22.763  0.00  0.00    +0.164 C 
ATOM     15  C   UNL     1       2.230   0.930  23.300  0.00  0.00    +0.125 C 
ENDBRANCH   7   8
ENDBRANCH   6   7
BRANCH  19  20
ATOM     20  C   UNL     1      -2.284   2.870  24.621  0.00  0.00    +0.120 C 
BRANCH  20  21
ATOM     21  N   UNL     1      -3.022   2.589  24.860  0.00  0.00    -0.201 NA
ATOM     22  C   UNL     1      -3.687   3.072  24.797  0.00  0.00    +0.265 C 
ATOM     23  O   UNL     1      -3.616   3.836  24.494  0.00  0.00    -0.268 OA
BRANCH  22  24
ATOM     24  C   UNL     1      -4.426   2.790  25.037  0.00  0.00    +0.055 A 
ATOM     25  C   UNL     1      -4.766   3.069  25.735  0.00  0.00    +0.004 A 
ATOM     26  C   UNL     1      -5.504   2.788  25.974  0.00  0.00    -0.004 A 
ATOM     27  C   UNL     1      -5.901   2.228  25.516  0.00  0.00    -0.022 A 
ATOM     28  C   UNL     1      -6.638   1.947  25.755  0.00  0.00    +0.031 C 
ATOM     29  C   UNL     1      -5.560   1.950  24.818  0.00  0.00    -0.004 A 
ATOM     30  C   UNL     1      -4.822   2.231  24.579  0.00  0.00    +0.004 A 
ENDBRANCH  22  24
ENDBRANCH  20  21
ENDBRANCH  19  20
TORSDOF 6
ENDMDL
