MODEL 1
REMARK VINA RESULT:     -10.8      0.000      0.000
REMARK  Name = 
REMARK  6 active torsions:
REMARK  status: ('A' for Active; 'I' for Inactive)
REMARK    1  A    between atoms: C_2  and  C_4
REMARK    2  A    between atoms: C_4  and  C_5
REMARK    3  A    between atoms: C_7  and  C_8
REMARK    4  A    between atoms: C_8  and  C_9
REMARK    5  A    between atoms: C_9  and  N_13
REMARK    6  A    between atoms: N_13  and  C_14
REMARK                            x       y       z     vdW  Elec       q    Type
REMARK                         _______ _______ _______ _____ _____    ______ ____
ROOT
ATOM      9  C   UNL     1      -4.331   1.620  24.802  0.00  0.00    +0.119 C 
ATOM     10  C   UNL     1      -4.872   1.226  25.285  0.00  0.00    +0.161 C 
ATOM     11  O   UNL     1      -5.467   1.740  25.035  0.00  0.00    -0.351 OA
ATOM     12  C   UNL     1      -4.926   2.134  24.553  0.00  0.00    +0.161 C 
ENDROOT
BRANCH   9   8
ATOM      8  C   UNL     1      -3.789   2.014  24.320  0.00  0.00    +0.070 C 
BRANCH   8   7
ATOM      5  C   UNL     1      -2.810   3.730  25.128  0.00  0.00    +0.154 A 
ATOM      6  C   UNL     1      -2.909   2.912  25.082  0.00  0.00    +0.054 A 
ATOM      7  C   UNL     1      -3.509   2.759  24.537  0.00  0.00    +0.102 A 
ATOM     23  N   UNL     1      -3.781   3.482  24.245  0.00  0.00    -0.082 NA
ATOM     24  O   UNL     1      -3.348   4.082  24.611  0.00  0.00    -0.358 OA
BRANCH   5   4
ATOM      4  C   UNL     1      -2.267   4.126  25.606  0.00  0.00    +0.067 C 
BRANCH   4   2
ATOM      1  C   UNL     1      -1.512   5.218  25.076  0.00  0.00    +0.000 C 
ATOM      2  C   UNL     1      -1.568   4.421  25.281  0.00  0.00    +0.008 C 
ATOM      3  C   UNL     1      -0.925   3.917  25.161  0.00  0.00    +0.000 C 
ENDBRANCH   4   2
ENDBRANCH   5   4
ENDBRANCH   8   7
ENDBRANCH   9   8
BRANCH   9  13
ATOM     13  N   UNL     1      -3.735   1.106  25.052  0.00  0.00    -0.217 NA
BRANCH  13  14
ATOM     14  C   UNL     1      -3.769   0.307  24.850  0.00  0.00    +0.076 C 
ATOM     15  C   UNL     1      -3.995   0.083  24.089  0.00  0.00    +0.039 C 
ATOM     16  C   UNL     1      -4.029  -0.716  23.886  0.00  0.00    +0.095 C 
ATOM     17  N   UNL     1      -3.836  -1.291  24.446  0.00  0.00    -0.279 N 
ATOM     18  C   UNL     1      -3.610  -1.067  25.206  0.00  0.00    +0.095 C 
ATOM     19  C   UNL     1      -3.576  -0.268  25.409  0.00  0.00    +0.039 C 
ATOM     20  C   UNL     1      -3.870  -2.090  24.243  0.00  0.00    +0.226 C 
ATOM     21  C   UNL     1      -3.678  -2.666  24.802  0.00  0.00    +0.095 C 
ATOM     22  O   UNL     1      -4.096  -2.314  23.481  0.00  0.00    -0.275 OA
ENDBRANCH  13  14
ENDBRANCH   9  13
TORSDOF 6
ENDMDL
MODEL 2
REMARK VINA RESULT:     -10.4      1.288      5.008
REMARK  Name = 
REMARK  6 active torsions:
REMARK  status: ('A' for Active; 'I' for Inactive)
REMARK    1  A    between atoms: C_2  and  C_4
REMARK    2  A    between atoms: C_4  and  C_5
REMARK    3  A    between atoms: C_7  and  C_8
REMARK    4  A    between atoms: C_8  and  C_9
REMARK    5  A    between atoms: C_9  and  N_13
REMARK    6  A    between atoms: N_13  and  C_14
REMARK                            x       y       z     vdW  Elec       q    Type
REMARK                         _______ _______ _______ _____ _____    ______ ____
ROOT
ATOM      9  C   UNL     1      -3.180   1.632  24.270  0.00  0.00    +0.119 C 
ATOM     10  C   UNL     1      -3.575   2.244  23.882  0.00  0.00    +0.161 C 
ATOM     11  O   UNL     1      -3.590   1.794  23.191  0.00  0.00    -0.351 OA
ATOM     12  C   UNL     1      -3.196   1.183  23.579  0.00  0.00    +0.161 C 
ENDROOT
BRANCH   9   8
ATOM      8  C   UNL     1      -2.785   1.021  24.659  0.00  0.00    +0.070 C 
BRANCH   8   7
ATOM      5  C   UNL     1      -3.471  -0.927  25.198  0.00  0.00    +0.154 A 
ATOM      6  C   UNL     1      -2.865  -0.411  24.982  0.00  0.00    +0.054 A 
ATOM      7  C   UNL     1      -3.194   0.338  24.877  0.00  0.00    +0.102 A 
ATOM     23  N   UNL     1      -4.004   0.286  25.027  0.00  0.00    -0.082 NA
ATOM     24  O   UNL     1      -4.175  -0.497  25.226  0.00  0.00    -0.358 OA
BRANCH   5   4
ATOM      4  C   UNL     1      -3.389  -1.732  25.358  0.00  0.00    +0.067 C 
BRANCH   4   2
ATOM      1  C   UNL     1      -2.543  -2.554  24.551  0.00  0.00    +0.000 C 
ATOM      2  C   UNL     1      -3.294  -2.268  24.737  0.00  0.00    +0.008 C 
ATOM      3  C   UNL     1      -3.951  -2.519  24.304  0.00  0.00    +0.000 C 
ENDBRANCH   4   2
ENDBRANCH   5   4
ENDBRANCH   8   7
ENDBRANCH   9   8
BRANCH   9  13
ATOM     13  N   UNL     1      -3.164   2.082  24.963  0.00  0.00    -0.217 NA
BRANCH  13  14
ATOM     14  C   UNL     1      -2.707   2.768  24.998  0.00  0.00    +0.076 C 
ATOM     15  C   UNL     1      -3.054   3.483  25.217  0.00  0.00    +0.039 C 
ATOM     16  C   UNL     1      -2.598   4.170  25.253  0.00  0.00    +0.095 C 
ATOM     17  N   UNL     1      -1.795   4.140  25.070  0.00  0.00    -0.279 N 
ATOM     18  C   UNL     1      -1.447   3.425  24.851  0.00  0.00    +0.095 C 
ATOM     19  C   UNL     1      -1.903   2.738  24.815  0.00  0.00    +0.039 C 
ATOM     20  C   UNL     1      -1.339   4.827  25.105  0.00  0.00    +0.226 C 
ATOM     21  C   UNL     1      -0.534   4.798  24.922  0.00  0.00    +0.095 C 
ATOM     22  O   UNL     1      -1.686   5.543  25.324  0.00  0.00    -0.275 OA
ENDBRANCH  13  14
ENDBRANCH   9  13
TORSDOF 6
ENDMDL
MODEL 3
REMARK VINA RESULT:     -10.3      0.978      1.226
REMARK  Name = 
REMARK  6 active torsions:
REMARK  status: ('A' for Active; 'I' for Inactive)
REMARK    1  A    between atoms: C_2  and  C_4
REMARK    2  A    between atoms: C_4  and  C_5
REMARK    3  A    between atoms: C_7  and  C_8
REMARK    4  A    between atoms: C_8  and  C_9
REMARK    5  A    between atoms: C_9  and  N_13
REMARK    6  A    between atoms: N_13  and  C_14
REMARK                            x       y       z     vdW  Elec       q    Type
REMARK                         _______ _______ _______ _____ _____    ______ ____
ROOT
ATOM      9  C   UNL     1      -3.038   1.629  23.802  0.00  0.00    +0.119 C 
ATOM     10  C   UNL     1      -2.526   1.180  23.335  0.00  0.00    +0.161 C 
ATOM     11  O   UNL     1      -2.663   1.688  22.699  0.00  0.00    -0.351 OA
ATOM     12  C   UNL     1      -3.173   2.136  23.166  0.00  0.00    +0.161 C 
ENDROOT
BRANCH   9   8
ATOM      8  C   UNL     1      -3.549   2.077  24.270  0.00  0.00    +0.070 C 
BRANCH   8   7
ATOM      5  C   UNL     1      -2.714   3.844  25.128  0.00  0.00    +0.154 A 
ATOM      6  C   UNL     1      -2.746   3.022  25.058  0.00  0.00    +0.054 A 
ATOM      7  C   UNL     1      -3.331   2.836  24.508  0.00  0.00    +0.102 A 
ATOM     23  N   UNL     1      -3.662   3.543  24.237  0.00  0.00    -0.082 NA
ATOM     24  O   UNL     1      -3.280   4.166  24.621  0.00  0.00    -0.358 OA
BRANCH   5   4
ATOM      4  C   UNL     1      -2.205   4.269  25.619  0.00  0.00    +0.067 C 
BRANCH   4   2
ATOM      1  C   UNL     1      -1.528   5.403  25.073  0.00  0.00    +0.000 C 
ATOM      2  C   UNL     1      -1.522   4.612  25.307  0.00  0.00    +0.008 C 
ATOM      3  C   UNL     1      -0.833   4.164  25.230  0.00  0.00    +0.000 C 
ENDBRANCH   4   2
ENDBRANCH   5   4
ENDBRANCH   8   7
ENDBRANCH   9   8
BRANCH   9  13
ATOM     13  N   UNL     1      -2.902   1.121  24.438  0.00  0.00    -0.217 NA
BRANCH  13  14
ATOM     14  C   UNL     1      -3.130   0.329  24.390  0.00  0.00    +0.076 C 
ATOM     15  C   UNL     1      -3.896   0.135  24.153  0.00  0.00    +0.039 C 
ATOM     16  C   UNL     1      -4.125  -0.656  24.104  0.00  0.00    +0.095 C 
ATOM     17  N   UNL     1      -3.587  -1.253  24.293  0.00  0.00    -0.279 N 
ATOM     18  C   UNL     1      -2.822  -1.059  24.531  0.00  0.00    +0.095 C 
ATOM     19  C   UNL     1      -2.593  -0.268  24.579  0.00  0.00    +0.039 C 
ATOM     20  C   UNL     1      -3.816  -2.044  24.245  0.00  0.00    +0.226 C 
ATOM     21  C   UNL     1      -3.280  -2.641  24.434  0.00  0.00    +0.095 C 
ATOM     22  O   UNL     1      -4.582  -2.239  24.007  0.00  0.00    -0.275 OA
ENDBRANCH  13  14
ENDBRANCH   9  13
TORSDOF 6
ENDMDL
