MODEL 1
REMARK VINA RESULT:     -10.6      0.000      0.000
REMARK  Name = 
REMARK  2 active torsions:
REMARK  status: ('A' for Active; 'I' for Inactive)
REMARK    1  A    between atoms: C_2  and  N_4
REMARK    2  A    between atoms: C_7  and  C_9
REMARK                            x       y       z     vdW  Elec       q    Type
REMARK                         _______ _______ _______ _____ _____    ______ ____
ROOT
ATOM      9  C   UNL     1      -4.253   0.141  24.797  0.00  0.00    +0.207 A 
ATOM     10  N   UNL     1      -3.857  -0.299  25.372  0.00  0.00    -0.212 NA
ATOM     11  C   UNL     1      -3.774  -1.069  25.089  0.00  0.00    +0.119 A 
ATOM     12  C   UNL     1      -4.119  -1.105  24.341  0.00  0.00    +0.164 A 
ATOM     13  O   UNL     1      -4.415  -0.357  24.160  0.00  0.00    -0.438 OA
ATOM     14  C   UNL     1      -4.118  -1.815  23.920  0.00  0.00    +0.039 A 
ATOM     15  C   UNL     1      -3.773  -2.489  24.248  0.00  0.00    +0.003 A 
ATOM     16  C   UNL     1      -3.429  -2.453  24.997  0.00  0.00    +0.002 A 
ATOM     17  C   UNL     1      -3.429  -1.743  25.418  0.00  0.00    +0.022 A 
ENDROOT
BRANCH   9   7
ATOM      4  N   UNL     1      -4.373   2.273  24.834  0.00  0.00    -0.274 NA
ATOM      5  C   UNL     1      -5.147   2.066  25.032  0.00  0.00    +0.073 C 
ATOM      6  C   UNL     1      -5.196   1.243  25.043  0.00  0.00    +0.028 C 
ATOM      7  C   UNL     1      -4.453   0.940  24.851  0.00  0.00    +0.094 C 
ATOM      8  C   UNL     1      -3.944   1.577  24.721  0.00  0.00    +0.081 C 
BRANCH   4   2
ATOM      1  C   UNL     1      -3.966   3.505  25.432  0.00  0.00    +0.017 C 
ATOM      2  C   UNL     1      -4.080   3.040  24.760  0.00  0.00    +0.058 C 
ATOM      3  C   UNL     1      -3.900   3.344  24.013  0.00  0.00    +0.017 C 
ENDBRANCH   4   2
ENDBRANCH   9   7
TORSDOF 2
ENDMDL
MODEL 2
REMARK VINA RESULT:      -9.8      0.822      4.056
REMARK  Name = 
REMARK  2 active torsions:
REMARK  status: ('A' for Active; 'I' for Inactive)
REMARK    1  A    between atoms: C_2  and  N_4
REMARK    2  A    between atoms: C_7  and  C_9
REMARK                            x       y       z     vdW  Elec       q    Type
REMARK                         _______ _______ _______ _____ _____    ______ ____
ROOT
ATOM      9  C   UNL     1      -4.253   0.537  25.080  0.00  0.00    +0.207 A 
ATOM     10  N   UNL     1      -3.828   1.163  24.750  0.00  0.00    -0.212 NA
ATOM     11  C   UNL     1      -4.265   1.854  24.862  0.00  0.00    +0.119 A 
ATOM     12  C   UNL     1      -4.959   1.655  25.261  0.00  0.00    +0.164 A 
ATOM     13  O   UNL     1      -4.952   0.841  25.396  0.00  0.00    -0.438 OA
ATOM     14  C   UNL     1      -5.508   2.241  25.450  0.00  0.00    +0.039 A 
ATOM     15  C   UNL     1      -5.364   3.025  25.240  0.00  0.00    +0.003 A 
ATOM     16  C   UNL     1      -4.669   3.224  24.842  0.00  0.00    +0.002 A 
ATOM     17  C   UNL     1      -4.120   2.639  24.652  0.00  0.00    +0.022 A 
ENDROOT
BRANCH   9   7
ATOM      4  N   UNL     1      -3.796  -1.518  24.724  0.00  0.00    -0.274 NA
ATOM      5  C   UNL     1      -3.523  -1.426  25.497  0.00  0.00    +0.073 C 
ATOM      6  C   UNL     1      -3.661  -0.644  25.724  0.00  0.00    +0.028 C 
ATOM      7  C   UNL     1      -4.019  -0.254  25.092  0.00  0.00    +0.094 C 
ATOM      8  C   UNL     1      -4.103  -0.793  24.473  0.00  0.00    +0.081 C 
BRANCH   4   2
ATOM      1  C   UNL     1      -4.326  -2.345  23.686  0.00  0.00    +0.017 C 
ATOM      2  C   UNL     1      -3.768  -2.212  24.279  0.00  0.00    +0.058 C 
ATOM      3  C   UNL     1      -3.181  -2.774  24.427  0.00  0.00    +0.017 C 
ENDBRANCH   4   2
ENDBRANCH   9   7
TORSDOF 2
ENDMDL
MODEL 3
REMARK VINA RESULT:      -9.2      1.821      4.369
REMARK  Name = 
REMARK  2 active torsions:
REMARK  status: ('A' for Active; 'I' for Inactive)
REMARK    1  A    between atoms: C_2  and  N_4
REMARK    2  A    between atoms: C_7  and  C_9
REMARK                            x       y       z     vdW  Elec       q    Type
REMARK                         _______ _______ _______ _____ _____    ______ ____
ROOT
ATOM      9  C   UNL     1      -2.898   2.329  24.908  0.00  0.00    +0.207 A 
ATOM     10  N   UNL     1      -3.108   3.060  25.228  0.00  0.00    -0.212 NA
ATOM     11  C   UNL     1      -2.448   3.552  25.193  0.00  0.00    +0.119 A 
ATOM     12  C   UNL     1      -1.829   3.126  24.852  0.00  0.00    +0.164 A 
ATOM     13  O   UNL     1      -2.107   2.370  24.676  0.00  0.00    -0.438 OA
ATOM     14  C   UNL     1      -1.092   3.482  24.746  0.00  0.00    +0.039 A 
ATOM     15  C   UNL     1      -0.974   4.264  24.981  0.00  0.00    +0.003 A 
ATOM     16  C   UNL     1      -1.593   4.690  25.322  0.00  0.00    +0.002 A 
ATOM     17  C   UNL     1      -2.330   4.335  25.428  0.00  0.00    +0.022 A 
ENDROOT
BRANCH   9   7
ATOM      4  N   UNL     1      -3.829   0.411  24.785  0.00  0.00    -0.274 NA
ATOM      5  C   UNL     1      -4.473   0.910  24.655  0.00  0.00    +0.073 C 
ATOM      6  C   UNL     1      -4.203   1.689  24.685  0.00  0.00    +0.028 C 
ATOM      7  C   UNL     1      -3.391   1.672  24.834  0.00  0.00    +0.094 C 
ATOM      8  C   UNL     1      -3.161   0.882  24.896  0.00  0.00    +0.081 C 
BRANCH   4   2
ATOM      1  C   UNL     1      -4.024  -0.835  24.115  0.00  0.00    +0.017 C 
ATOM      2  C   UNL     1      -3.850  -0.413  24.802  0.00  0.00    +0.058 C 
ATOM      3  C   UNL     1      -3.696  -0.816  25.505  0.00  0.00    +0.017 C 
ENDBRANCH   4   2
ENDBRANCH   9   7
TORSDOF 2
ENDMDL
MODEL 4
REMARK VINA RESULT:      -8.9      2.326      4.558
REMARK  Name = 
REMARK  2 active torsions:
REMARK  status: ('A' for Active; 'I' for Inactive)
REMARK    1  A    between atoms: C_2  and  N_4
REMARK    2  A    between atoms: C_7  and  C_9
REMARK                            x       y       z     vdW  Elec       q    Type
REMARK                         _______ _______ _______ _____ _____    ______ ____
ROOT
ATOM      9  C   UNL     1      -3.172   3.515  25.296  0.00  0.00    +0.207 A 
ATOM     10  N   UNL     1      -2.982   4.298  25.123  0.00  0.00    -0.212 NA
ATOM     11  C   UNL     1      -2.161   4.368  25.123  0.00  0.00    +0.119 A 
ATOM     12  C   UNL     1      -1.842   3.627  25.295  0.00  0.00    +0.164 A 
ATOM     13  O   UNL     1      -2.466   3.099  25.402  0.00  0.00    -0.438 OA
ATOM     14  C   UNL     1      -1.023   3.529  25.332  0.00  0.00    +0.039 A 
ATOM     15  C   UNL     1      -0.524   4.171  25.198  0.00  0.00    +0.003 A 
ATOM     16  C   UNL     1      -0.843   4.912  25.026  0.00  0.00    +0.002 A 
ATOM     17  C   UNL     1      -1.661   5.011  24.988  0.00  0.00    +0.022 A 
ENDROOT
BRANCH   9   7
ATOM      4  N   UNL     1      -4.974   2.370  25.257  0.00  0.00    -0.274 NA
ATOM      5  C   UNL     1      -5.233   3.063  25.621  0.00  0.00    +0.073 C 
ATOM      6  C   UNL     1      -4.589   3.577  25.680  0.00  0.00    +0.028 C 
ATOM      7  C   UNL     1      -3.932   3.200  25.352  0.00  0.00    +0.094 C 
ATOM      8  C   UNL     1      -4.170   2.455  25.090  0.00  0.00    +0.081 C 
BRANCH   4   2
ATOM      1  C   UNL     1      -6.257   1.780  25.042  0.00  0.00    +0.017 C 
ATOM      2  C   UNL     1      -5.436   1.709  25.088  0.00  0.00    +0.058 C 
ATOM      3  C   UNL     1      -5.079   0.975  24.964  0.00  0.00    +0.017 C 
ENDBRANCH   4   2
ENDBRANCH   9   7
TORSDOF 2
ENDMDL
MODEL 5
REMARK VINA RESULT:      -8.9      2.369      2.697
REMARK  Name = 
REMARK  2 active torsions:
REMARK  status: ('A' for Active; 'I' for Inactive)
REMARK    1  A    between atoms: C_2  and  N_4
REMARK    2  A    between atoms: C_7  and  C_9
REMARK                            x       y       z     vdW  Elec       q    Type
REMARK                         _______ _______ _______ _____ _____    ______ ____
ROOT
ATOM      9  C   UNL     1      -2.141  -0.029  24.751  0.00  0.00    +0.207 A 
ATOM     10  N   UNL     1      -2.093  -0.816  24.993  0.00  0.00    -0.212 NA
ATOM     11  C   UNL     1      -2.777  -1.202  24.743  0.00  0.00    +0.119 A 
ATOM     12  C   UNL     1      -3.249  -0.654  24.346  0.00  0.00    +0.164 A 
ATOM     13  O   UNL     1      -2.856   0.071  24.350  0.00  0.00    -0.438 OA
ATOM     14  C   UNL     1      -3.975  -0.887  24.031  0.00  0.00    +0.039 A 
ATOM     15  C   UNL     1      -4.230  -1.666  24.114  0.00  0.00    +0.003 A 
ATOM     16  C   UNL     1      -3.759  -2.214  24.511  0.00  0.00    +0.002 A 
ATOM     17  C   UNL     1      -3.032  -1.983  24.826  0.00  0.00    +0.022 A 
ENDROOT
BRANCH   9   7
ATOM      4  N   UNL     1      -0.968   1.657  25.332  0.00  0.00    -0.274 NA
ATOM      5  C   UNL     1      -0.436   1.253  24.848  0.00  0.00    +0.073 C 
ATOM      6  C   UNL     1      -0.811   0.572  24.571  0.00  0.00    +0.028 C 
ATOM      7  C   UNL     1      -1.575   0.556  24.885  0.00  0.00    +0.094 C 
ATOM      8  C   UNL     1      -1.671   1.226  25.355  0.00  0.00    +0.081 C 
BRANCH   4   2
ATOM      1  C   UNL     1      -1.297   3.026  25.577  0.00  0.00    +0.017 C 
ATOM      2  C   UNL     1      -0.823   2.368  25.725  0.00  0.00    +0.058 C 
ATOM      3  C   UNL     1      -0.203   2.421  26.268  0.00  0.00    +0.017 C 
ENDBRANCH   4   2
ENDBRANCH   9   7
TORSDOF 2
ENDMDL
MODEL 6
REMARK VINA RESULT:      -8.7      2.689      4.049
REMARK  Name = 
REMARK  2 active torsions:
REMARK  status: ('A' for Active; 'I' for Inactive)
REMARK    1  A    between atoms: C_2  and  N_4
REMARK    2  A    between atoms: C_7  and  C_9
REMARK                            x       y       z     vdW  Elec       q    Type
REMARK                         _______ _______ _______ _____ _____    ______ ____
ROOT
ATOM      9  C   UNL     1      -3.118   2.903  25.240  0.00  0.00    +0.207 A 
ATOM     10  N   UNL     1      -3.715   3.352  25.590  0.00  0.00    -0.212 NA
ATOM     11  C   UNL     1      -4.436   2.987  25.429  0.00  0.00    +0.119 A 
ATOM     12  C   UNL     1      -4.285   2.312  24.978  0.00  0.00    +0.164 A 
ATOM     13  O   UNL     1      -3.471   2.260  24.861  0.00  0.00    -0.438 OA
ATOM     14  C   UNL     1      -4.910   1.832  24.733  0.00  0.00    +0.039 A 
ATOM     15  C   UNL     1      -5.685   2.027  24.938  0.00  0.00    +0.003 A 
ATOM     16  C   UNL     1      -5.836   2.701  25.388  0.00  0.00    +0.002 A 
ATOM     17  C   UNL     1      -5.212   3.182  25.634  0.00  0.00    +0.022 A 
ENDROOT
BRANCH   9   7
ATOM      4  N   UNL     1      -0.988   2.928  25.392  0.00  0.00    -0.274 NA
ATOM      5  C   UNL     1      -1.144   3.717  25.207  0.00  0.00    +0.073 C 
ATOM      6  C   UNL     1      -1.961   3.804  25.128  0.00  0.00    +0.028 C 
ATOM      7  C   UNL     1      -2.310   3.068  25.263  0.00  0.00    +0.094 C 
ATOM      8  C   UNL     1      -1.709   2.527  25.426  0.00  0.00    +0.081 C 
BRANCH   4   2
ATOM      1  C   UNL     1       0.197   2.314  24.881  0.00  0.00    +0.017 C 
ATOM      2  C   UNL     1      -0.244   2.597  25.519  0.00  0.00    +0.058 C 
ATOM      3  C   UNL     1       0.062   2.549  26.284  0.00  0.00    +0.017 C 
ENDBRANCH   4   2
ENDBRANCH   9   7
TORSDOF 2
ENDMDL
MODEL 7
REMARK VINA RESULT:      -8.6      1.521      1.977
REMARK  Name = 
REMARK  2 active torsions:
REMARK  status: ('A' for Active; 'I' for Inactive)
REMARK    1  A    between atoms: C_2  and  N_4
REMARK    2  A    between atoms: C_7  and  C_9
REMARK                            x       y       z     vdW  Elec       q    Type
REMARK                         _______ _______ _______ _____ _____    ______ ____
ROOT
ATOM      9  C   UNL     1      -2.947   0.426  24.692  0.00  0.00    +0.207 A 
ATOM     10  N   UNL     1      -3.078  -0.361  24.484  0.00  0.00    -0.212 NA
ATOM     11  C   UNL     1      -2.407  -0.794  24.690  0.00  0.00    +0.119 A 
ATOM     12  C   UNL     1      -1.861  -0.274  25.025  0.00  0.00    +0.164 A 
ATOM     13  O   UNL     1      -2.195   0.480  25.027  0.00  0.00    -0.438 OA
ATOM     14  C   UNL     1      -1.131  -0.556  25.286  0.00  0.00    +0.039 A 
ATOM     15  C   UNL     1      -0.946  -1.356  25.212  0.00  0.00    +0.003 A 
ATOM     16  C   UNL     1      -1.492  -1.875  24.877  0.00  0.00    +0.002 A 
ATOM     17  C   UNL     1      -2.223  -1.595  24.616  0.00  0.00    +0.022 A 
ENDROOT
BRANCH   9   7
ATOM      4  N   UNL     1      -4.495   1.896  24.756  0.00  0.00    -0.274 NA
ATOM      5  C   UNL     1      -4.082   2.129  24.081  0.00  0.00    +0.073 C 
ATOM      6  C   UNL     1      -3.452   1.606  23.974  0.00  0.00    +0.028 C 
ATOM      7  C   UNL     1      -3.476   1.051  24.584  0.00  0.00    +0.094 C 
ATOM      8  C   UNL     1      -4.120   1.230  25.067  0.00  0.00    +0.081 C 
BRANCH   4   2
ATOM      1  C   UNL     1      -5.898   1.887  25.028  0.00  0.00    +0.017 C 
ATOM      2  C   UNL     1      -5.165   2.264  25.066  0.00  0.00    +0.058 C 
ATOM      3  C   UNL     1      -5.102   3.010  25.415  0.00  0.00    +0.017 C 
ENDBRANCH   4   2
ENDBRANCH   9   7
TORSDOF 2
ENDMDL
MODEL 8
REMARK VINA RESULT:      -8.5      1.573      3.837
REMARK  Name = 
REMARK  2 active torsions:
REMARK  status: ('A' for Active; 'I' for Inactive)
REMARK    1  A    between atoms: C_2  and  N_4
REMARK    2  A    between atoms: C_7  and  C_9
REMARK                            x       y       z     vdW  Elec       q    Type
REMARK                         _______ _______ _______ _____ _____    ______ ____
ROOT
ATOM      9  C   UNL     1      -3.602   0.422  24.856  0.00  0.00    +0.207 A 
ATOM     10  N   UNL     1      -4.399   0.332  25.049  0.00  0.00    -0.212 NA
ATOM     11  C   UNL     1      -4.751   1.077  25.033  0.00  0.00    +0.119 A 
ATOM     12  C   UNL     1      -4.172   1.629  24.829  0.00  0.00    +0.164 A 
ATOM     13  O   UNL     1      -3.462   1.224  24.720  0.00  0.00    -0.438 OA
ATOM     14  C   UNL     1      -4.367   2.428  24.769  0.00  0.00    +0.039 A 
ATOM     15  C   UNL     1      -5.140   2.676  24.913  0.00  0.00    +0.003 A 
ATOM     16  C   UNL     1      -5.719   2.125  25.116  0.00  0.00    +0.002 A 
ATOM     17  C   UNL     1      -5.525   1.326  25.176  0.00  0.00    +0.022 A 
ENDROOT
BRANCH   9   7
ATOM      4  N   UNL     1      -1.882  -0.841  24.800  0.00  0.00    -0.274 NA
ATOM      5  C   UNL     1      -2.485  -1.388  24.668  0.00  0.00    +0.073 C 
ATOM      6  C   UNL     1      -3.203  -0.981  24.673  0.00  0.00    +0.028 C 
ATOM      7  C   UNL     1      -3.043  -0.183  24.808  0.00  0.00    +0.094 C 
ATOM      8  C   UNL     1      -2.227  -0.096  24.887  0.00  0.00    +0.081 C 
BRANCH   4   2
ATOM      1  C   UNL     1      -0.554  -0.655  24.305  0.00  0.00    +0.017 C 
ATOM      2  C   UNL     1      -1.075  -1.008  24.838  0.00  0.00    +0.058 C 
ATOM      3  C   UNL     1      -0.788  -1.530  25.410  0.00  0.00    +0.017 C 
ENDBRANCH   4   2
ENDBRANCH   9   7
TORSDOF 2
ENDMDL
MODEL 9
REMARK VINA RESULT:      -8.5      2.690      4.591
REMARK  Name = 
REMARK  2 active torsions:
REMARK  status: ('A' for Active; 'I' for Inactive)
REMARK    1  A    between atoms: C_2  and  N_4
REMARK    2  A    between atoms: C_7  and  C_9
REMARK                            x       y       z     vdW  Elec       q    Type
REMARK                         _______ _______ _______ _____ _____    ______ ____
ROOT
ATOM      9  C   UNL     1      -1.340   0.125  24.883  0.00  0.00    +0.207 A 
ATOM     10  N   UNL     1      -1.142   0.477  25.602  0.00  0.00    -0.212 NA
ATOM     11  C   UNL     1      -0.799   1.210  25.442  0.00  0.00    +0.119 A 
ATOM     12  C   UNL     1      -0.785   1.311  24.623  0.00  0.00    +0.164 A 
ATOM     13  O   UNL     1      -1.120   0.641  24.278  0.00  0.00    -0.438 OA
ATOM     14  C   UNL     1      -0.470   2.001  24.299  0.00  0.00    +0.039 A 
ATOM     15  C   UNL     1      -0.169   2.589  24.792  0.00  0.00    +0.003 A 
ATOM     16  C   UNL     1      -0.183   2.487  25.611  0.00  0.00    +0.002 A 
ATOM     17  C   UNL     1      -0.498   1.798  25.936  0.00  0.00    +0.022 A 
ENDROOT
BRANCH   9   7
ATOM      4  N   UNL     1      -2.615  -1.567  24.620  0.00  0.00    -0.274 NA
ATOM      5  C   UNL     1      -1.874  -1.929  24.651  0.00  0.00    +0.073 C 
ATOM      6  C   UNL     1      -1.306  -1.339  24.753  0.00  0.00    +0.028 C 
ATOM      7  C   UNL     1      -1.696  -0.612  24.785  0.00  0.00    +0.094 C 
ATOM      8  C   UNL     1      -2.505  -0.754  24.703  0.00  0.00    +0.081 C 
BRANCH   4   2
ATOM      1  C   UNL     1      -3.924  -1.614  24.049  0.00  0.00    +0.017 C 
ATOM      2  C   UNL     1      -3.338  -1.951  24.522  0.00  0.00    +0.058 C 
ATOM      3  C   UNL     1      -3.477  -2.673  24.899  0.00  0.00    +0.017 C 
ENDBRANCH   4   2
ENDBRANCH   9   7
TORSDOF 2
ENDMDL
MODEL 10
REMARK VINA RESULT:      -8.3      2.690      5.021
REMARK  Name = 
REMARK  2 active torsions:
REMARK  status: ('A' for Active; 'I' for Inactive)
REMARK    1  A    between atoms: C_2  and  N_4
REMARK    2  A    between atoms: C_7  and  C_9
REMARK                            x       y       z     vdW  Elec       q    Type
REMARK                         _______ _______ _______ _____ _____    ______ ____
ROOT
ATOM      9  C   UNL     1      -1.706   2.185  24.989  0.00  0.00    +0.207 A 
ATOM     10  N   UNL     1      -1.075   2.679  24.794  0.00  0.00    -0.212 NA
ATOM     11  C   UNL     1      -1.290   3.453  24.978  0.00  0.00    +0.119 A 
ATOM     12  C   UNL     1      -2.055   3.438  25.287  0.00  0.00    +0.164 A 
ATOM     13  O   UNL     1      -2.312   2.655  25.294  0.00  0.00    -0.438 OA
ATOM     14  C   UNL     1      -2.418   4.141  25.523  0.00  0.00    +0.039 A 
ATOM     15  C   UNL     1      -2.017   4.858  25.449  0.00  0.00    +0.003 A 
ATOM     16  C   UNL     1      -1.252   4.872  25.139  0.00  0.00    +0.002 A 
ATOM     17  C   UNL     1      -0.888   4.171  24.904  0.00  0.00    +0.022 A 
ENDROOT
BRANCH   9   7
ATOM      4  N   UNL     1      -1.369   0.080  24.874  0.00  0.00    -0.274 NA
ATOM      5  C   UNL     1      -2.155   0.129  24.630  0.00  0.00    +0.073 C 
ATOM      6  C   UNL     1      -2.378   0.924  24.644  0.00  0.00    +0.028 C 
ATOM      7  C   UNL     1      -1.728   1.366  24.896  0.00  0.00    +0.094 C 
ATOM      8  C   UNL     1      -1.105   0.845  25.038  0.00  0.00    +0.081 C 
BRANCH   4   2
ATOM      1  C   UNL     1      -0.997  -1.085  25.613  0.00  0.00    +0.017 C 
ATOM      2  C   UNL     1      -0.924  -0.611  24.942  0.00  0.00    +0.058 C 
ATOM      3  C   UNL     1      -0.406  -0.830  24.338  0.00  0.00    +0.017 C 
ENDBRANCH   4   2
ENDBRANCH   9   7
TORSDOF 2
ENDMDL
