MODEL 1
REMARK VINA RESULT:     -16.5      0.000      0.000
REMARK  Name = 
REMARK  4 active torsions:
REMARK  status: ('A' for Active; 'I' for Inactive)
REMARK    1  A    between atoms: C_2  and  C_30
REMARK    2  A    between atoms: N_3  and  C_4
REMARK    3  A    between atoms: C_14  and  C_16
REMARK    4  A    between atoms: C_33  and  C_36
REMARK                            x       y       z     vdW  Elec       q    Type
REMARK                         _______ _______ _______ _____ _____    ______ ____
ROOT
ATOM      4  C   UNL     1      -3.522   0.263  24.369  0.00  0.00    +0.130 A 
ATOM      5  C   UNL     1      -2.995   0.395  23.654  0.00  0.00    +0.023 A 
ATOM      6  C   UNL     1      -3.050   1.152  23.332  0.00  0.00    +0.014 A 
ATOM      7  C   UNL     1      -3.558   1.707  23.669  0.00  0.00    +0.041 A 
ATOM      8  C   UNL     1      -3.836   2.577  23.563  0.00  0.00    +0.058 C 
ATOM      9  C   UNL     1      -3.740   3.140  23.155  0.00  0.00    +0.011 C 
ATOM     10  C   UNL     1      -4.186   2.937  23.806  0.00  0.00    +0.043 C 
ATOM     11  C   UNL     1      -4.796   2.884  24.582  0.00  0.00    +0.096 C 
ATOM     12  N   UNL     1      -4.656   2.095  24.817  0.00  0.00    -0.276 N 
ATOM     13  C   UNL     1      -4.431   2.542  24.310  0.00  0.00    +0.099 C 
ATOM     14  C   UNL     1      -4.723   1.399  25.256  0.00  0.00    +0.249 C 
ATOM     15  O   UNL     1      -5.235   1.367  25.901  0.00  0.00    -0.270 OA
ATOM     26  C   UNL     1      -3.901   2.028  23.925  0.00  0.00    +0.110 C 
ATOM     27  N   UNL     1      -4.011   1.505  24.329  0.00  0.00    -0.298 N 
ATOM     28  C   UNL     1      -3.956   0.748  24.651  0.00  0.00    +0.276 A 
ATOM     29  O   UNL     1      -4.286   0.322  25.275  0.00  0.00    -0.266 OA
ENDROOT
BRANCH  14  16
ATOM     16  C   UNL     1      -4.276   0.737  25.050  0.00  0.00    +0.054 A 
ATOM     17  C   UNL     1      -4.640   0.091  24.689  0.00  0.00    +0.005 A 
ATOM     18  C   UNL     1      -4.194  -0.572  24.482  0.00  0.00    +0.000 A 
ATOM     19  C   UNL     1      -3.384  -0.588  24.637  0.00  0.00    +0.000 A 
ATOM     20  C   UNL     1      -2.937  -1.250  24.431  0.00  0.00    +0.000 A 
ATOM     21  C   UNL     1      -3.301  -1.897  24.069  0.00  0.00    +0.000 A 
ATOM     22  C   UNL     1      -4.111  -1.881  23.915  0.00  0.00    +0.000 A 
ATOM     23  C   UNL     1      -4.558  -1.219  24.121  0.00  0.00    +0.000 A 
ATOM     24  C   UNL     1      -3.020   0.058  24.998  0.00  0.00    +0.000 A 
ATOM     25  C   UNL     1      -3.466   0.721  25.205  0.00  0.00    +0.005 A 
ENDBRANCH  14  16
BRANCH   4   3
ATOM      1  O   UNL     1      -2.421  -1.131  25.775  0.00  0.00    -0.268 OA
ATOM      2  C   UNL     1      -2.515  -0.404  25.198  0.00  0.00    +0.269 C 
ATOM      3  N   UNL     1      -3.617  -0.355  24.803  0.00  0.00    -0.171 NA
BRANCH   2  30
ATOM     30  C   UNL     1      -1.923   0.014  25.077  0.00  0.00    +0.055 A 
ATOM     31  C   UNL     1      -1.515   0.067  24.361  0.00  0.00    +0.005 A 
ATOM     32  C   UNL     1      -0.856   0.558  24.298  0.00  0.00    +0.010 A 
ATOM     33  C   UNL     1      -0.604   0.996  24.950  0.00  0.00    +0.068 A 
ATOM     34  C   UNL     1      -1.012   0.943  25.666  0.00  0.00    +0.010 A 
ATOM     35  C   UNL     1      -1.672   0.451  25.729  0.00  0.00    +0.005 A 
BRANCH  33  36
ATOM     36  C   UNL     1       0.055   1.487  24.887  0.00  0.00    +0.100 C 
ATOM     37  N   UNL     1       0.715   1.979  24.825  0.00  0.00    -0.191 NA
ENDBRANCH  33  36
ENDBRANCH   2  30
ENDBRANCH   4   3
TORSDOF 4
ENDMDL
MODEL 2
REMARK VINA RESULT:     -16.0      1.286      3.374
REMARK  Name = 
REMARK  4 active torsions:
REMARK  status: ('A' for Active; 'I' for Inactive)
REMARK    1  A    between atoms: C_2  and  C_30
REMARK    2  A    between atoms: N_3  and  C_4
REMARK    3  A    between atoms: C_14  and  C_16
REMARK    4  A    between atoms: C_33  and  C_36
REMARK                            x       y       z     vdW  Elec       q    Type
REMARK                         _______ _______ _______ _____ _____    ______ ____
ROOT
ATOM      4  C   UNL     1      -3.444   1.487  24.610  0.00  0.00    +0.130 A 
ATOM      5  C   UNL     1      -3.146   1.145  25.385  0.00  0.00    +0.023 A 
ATOM      6  C   UNL     1      -2.334   0.995  25.395  0.00  0.00    +0.014 A 
ATOM      7  C   UNL     1      -1.877   1.160  24.728  0.00  0.00    +0.041 A 
ATOM      8  C   UNL     1      -1.009   1.114  24.430  0.00  0.00    +0.058 C 
ATOM      9  C   UNL     1      -0.366   0.922  24.634  0.00  0.00    +0.011 C 
ATOM     10  C   UNL     1      -0.718   1.233  23.969  0.00  0.00    +0.043 C 
ATOM     11  C   UNL     1      -0.955   1.604  23.084  0.00  0.00    +0.096 C 
ATOM     12  N   UNL     1      -1.776   1.712  23.193  0.00  0.00    -0.276 N 
ATOM     13  C   UNL     1      -1.222   1.472  23.570  0.00  0.00    +0.099 C 
ATOM     14  C   UNL     1      -2.555   1.919  23.015  0.00  0.00    +0.249 C 
ATOM     15  O   UNL     1      -2.741   2.228  22.274  0.00  0.00    -0.270 OA
ATOM     26  C   UNL     1      -1.628   1.284  24.272  0.00  0.00    +0.110 C 
ATOM     27  N   UNL     1      -2.231   1.475  24.053  0.00  0.00    -0.298 N 
ATOM     28  C   UNL     1      -3.042   1.625  24.043  0.00  0.00    +0.276 A 
ATOM     29  O   UNL     1      -3.604   1.921  23.518  0.00  0.00    -0.266 OA
ENDROOT
BRANCH  14  16
ATOM     16  C   UNL     1      -3.148   1.816  23.581  0.00  0.00    +0.054 A 
ATOM     17  C   UNL     1      -3.475   2.472  23.958  0.00  0.00    +0.005 A 
ATOM     18  C   UNL     1      -4.068   2.369  24.523  0.00  0.00    +0.000 A 
ATOM     19  C   UNL     1      -4.333   1.611  24.710  0.00  0.00    +0.000 A 
ATOM     20  C   UNL     1      -4.925   1.507  25.274  0.00  0.00    +0.000 A 
ATOM     21  C   UNL     1      -5.253   2.164  25.652  0.00  0.00    +0.000 A 
ATOM     22  C   UNL     1      -4.989   2.922  25.465  0.00  0.00    +0.000 A 
ATOM     23  C   UNL     1      -4.397   3.025  24.901  0.00  0.00    +0.000 A 
ATOM     24  C   UNL     1      -4.005   0.954  24.332  0.00  0.00    +0.000 A 
ATOM     25  C   UNL     1      -3.412   1.057  23.767  0.00  0.00    +0.005 A 
ENDBRANCH  14  16
BRANCH   4   3
ATOM      1  O   UNL     1      -5.519   0.659  24.235  0.00  0.00    -0.268 OA
ATOM      2  C   UNL     1      -4.616   0.620  24.465  0.00  0.00    +0.269 C 
ATOM      3  N   UNL     1      -4.147   1.691  24.401  0.00  0.00    -0.171 NA
BRANCH   2  30
ATOM     30  C   UNL     1      -4.338  -0.036  24.644  0.00  0.00    +0.055 A 
ATOM     31  C   UNL     1      -4.063  -0.249  25.393  0.00  0.00    +0.005 A 
ATOM     32  C   UNL     1      -3.764  -1.008  25.521  0.00  0.00    +0.010 A 
ATOM     33  C   UNL     1      -3.740  -1.551  24.901  0.00  0.00    +0.068 A 
ATOM     34  C   UNL     1      -4.016  -1.338  24.153  0.00  0.00    +0.010 A 
ATOM     35  C   UNL     1      -4.315  -0.580  24.025  0.00  0.00    +0.005 A 
BRANCH  33  36
ATOM     36  C   UNL     1      -3.441  -2.309  25.030  0.00  0.00    +0.100 C 
ATOM     37  N   UNL     1      -3.142  -3.068  25.158  0.00  0.00    -0.191 NA
ENDBRANCH  33  36
ENDBRANCH   2  30
ENDBRANCH   4   3
TORSDOF 4
ENDMDL
MODEL 3
REMARK VINA RESULT:     -15.6      2.312      3.678
REMARK  Name = 
REMARK  4 active torsions:
REMARK  status: ('A' for Active; 'I' for Inactive)
REMARK    1  A    between atoms: C_2  and  C_30
REMARK    2  A    between atoms: N_3  and  C_4
REMARK    3  A    between atoms: C_14  and  C_16
REMARK    4  A    between atoms: C_33  and  C_36
REMARK                            x       y       z     vdW  Elec       q    Type
REMARK                         _______ _______ _______ _____ _____    ______ ____
ROOT
ATOM      4  C   UNL     1      -2.090   3.573  25.030  0.00  0.00    +0.130 A 
ATOM      5  C   UNL     1      -2.054   3.207  24.211  0.00  0.00    +0.023 A 
ATOM      6  C   UNL     1      -2.769   2.884  23.956  0.00  0.00    +0.014 A 
ATOM      7  C   UNL     1      -3.433   2.916  24.445  0.00  0.00    +0.041 A 
ATOM      8  C   UNL     1      -4.318   2.669  24.463  0.00  0.00    +0.058 C 
ATOM      9  C   UNL     1      -4.808   2.350  24.076  0.00  0.00    +0.011 C 
ATOM     10  C   UNL     1      -4.754   2.702  24.809  0.00  0.00    +0.043 C 
ATOM     11  C   UNL     1      -4.888   3.079  25.712  0.00  0.00    +0.096 C 
ATOM     12  N   UNL     1      -4.118   3.369  25.859  0.00  0.00    -0.276 N 
ATOM     13  C   UNL     1      -4.463   3.029  25.336  0.00  0.00    +0.099 C 
ATOM     14  C   UNL     1      -3.497   3.733  26.261  0.00  0.00    +0.249 C 
ATOM     15  O   UNL     1      -3.620   4.044  27.015  0.00  0.00    -0.270 OA
ATOM     26  C   UNL     1      -3.831   2.964  24.798  0.00  0.00    +0.110 C 
ATOM     27  N   UNL     1      -3.382   3.273  25.187  0.00  0.00    -0.298 N 
ATOM     28  C   UNL     1      -2.667   3.596  25.441  0.00  0.00    +0.276 A 
ATOM     29  O   UNL     1      -2.372   3.987  26.105  0.00  0.00    -0.266 OA
ENDROOT
BRANCH  14  16
ATOM     16  C   UNL     1      -2.752   3.786  25.909  0.00  0.00    +0.054 A 
ATOM     17  C   UNL     1      -2.480   4.512  25.627  0.00  0.00    +0.005 A 
ATOM     18  C   UNL     1      -1.736   4.565  25.275  0.00  0.00    +0.000 A 
ATOM     19  C   UNL     1      -1.264   3.893  25.205  0.00  0.00    +0.000 A 
ATOM     20  C   UNL     1      -0.520   3.946  24.853  0.00  0.00    +0.000 A 
ATOM     21  C   UNL     1      -0.248   4.672  24.571  0.00  0.00    +0.000 A 
ATOM     22  C   UNL     1      -0.719   5.344  24.641  0.00  0.00    +0.000 A 
ATOM     23  C   UNL     1      -1.463   5.292  24.993  0.00  0.00    +0.000 A 
ATOM     24  C   UNL     1      -1.536   3.166  25.486  0.00  0.00    +0.000 A 
ATOM     25  C   UNL     1      -2.281   3.113  25.839  0.00  0.00    +0.005 A 
ENDBRANCH  14  16
BRANCH   4   3
ATOM      1  O   UNL     1      -0.081   3.216  26.012  0.00  0.00    -0.268 OA
ATOM      2  C   UNL     1      -0.841   2.988  25.522  0.00  0.00    +0.269 C 
ATOM      3  N   UNL     1      -1.548   3.918  25.438  0.00  0.00    -0.171 NA
BRANCH   2  30
ATOM     30  C   UNL     1      -0.890   2.300  25.271  0.00  0.00    +0.055 A 
ATOM     31  C   UNL     1      -0.872   2.080  24.476  0.00  0.00    +0.005 A 
ATOM     32  C   UNL     1      -0.933   1.284  24.267  0.00  0.00    +0.010 A 
ATOM     33  C   UNL     1      -1.011   0.709  24.853  0.00  0.00    +0.068 A 
ATOM     34  C   UNL     1      -1.029   0.929  25.648  0.00  0.00    +0.010 A 
ATOM     35  C   UNL     1      -0.969   1.725  25.857  0.00  0.00    +0.005 A 
BRANCH  33  36
ATOM     36  C   UNL     1      -1.072  -0.087  24.644  0.00  0.00    +0.100 C 
ATOM     37  N   UNL     1      -1.132  -0.883  24.435  0.00  0.00    -0.191 NA
ENDBRANCH  33  36
ENDBRANCH   2  30
ENDBRANCH   4   3
TORSDOF 4
ENDMDL
MODEL 4
REMARK VINA RESULT:     -15.4      1.428      3.802
REMARK  Name = 
REMARK  4 active torsions:
REMARK  status: ('A' for Active; 'I' for Inactive)
REMARK    1  A    between atoms: C_2  and  C_30
REMARK    2  A    between atoms: N_3  and  C_4
REMARK    3  A    between atoms: C_14  and  C_16
REMARK    4  A    between atoms: C_33  and  C_36
REMARK                            x       y       z     vdW  Elec       q    Type
REMARK                         _______ _______ _______ _____ _____    ______ ____
ROOT
ATOM      4  C   UNL     1      -2.952   1.282  24.064  0.00  0.00    +0.130 A 
ATOM      5  C   UNL     1      -3.748   0.920  23.858  0.00  0.00    +0.023 A 
ATOM      6  C   UNL     1      -3.896   0.201  24.235  0.00  0.00    +0.014 A 
ATOM      7  C   UNL     1      -3.334  -0.120  24.747  0.00  0.00    +0.041 A 
ATOM      8  C   UNL     1      -3.195  -0.850  25.287  0.00  0.00    +0.058 C 
ATOM      9  C   UNL     1      -3.502  -1.445  25.498  0.00  0.00    +0.011 C 
ATOM     10  C   UNL     1      -2.802  -1.048  25.630  0.00  0.00    +0.043 C 
ATOM     11  C   UNL     1      -1.912  -0.727  25.913  0.00  0.00    +0.096 C 
ATOM     12  N   UNL     1      -1.876  -0.014  25.479  0.00  0.00    -0.276 N 
ATOM     13  C   UNL     1      -2.333  -0.552  25.571  0.00  0.00    +0.099 C 
ATOM     14  C   UNL     1      -1.572   0.698  25.193  0.00  0.00    +0.249 C 
ATOM     15  O   UNL     1      -0.828   0.957  25.436  0.00  0.00    -0.270 OA
ATOM     26  C   UNL     1      -2.938  -0.282  25.067  0.00  0.00    +0.110 C 
ATOM     27  N   UNL     1      -2.624   0.279  24.882  0.00  0.00    -0.298 N 
ATOM     28  C   UNL     1      -2.477   0.998  24.506  0.00  0.00    +0.276 A 
ATOM     29  O   UNL     1      -1.876   1.562  24.476  0.00  0.00    -0.266 OA
ENDROOT
BRANCH  14  16
ATOM     16  C   UNL     1      -2.014   1.151  24.662  0.00  0.00    +0.054 A 
ATOM     17  C   UNL     1      -1.805   1.171  23.865  0.00  0.00    +0.005 A 
ATOM     18  C   UNL     1      -2.247   1.624  23.334  0.00  0.00    +0.000 A 
ATOM     19  C   UNL     1      -2.896   2.056  23.602  0.00  0.00    +0.000 A 
ATOM     20  C   UNL     1      -3.338   2.509  23.072  0.00  0.00    +0.000 A 
ATOM     21  C   UNL     1      -3.129   2.529  22.274  0.00  0.00    +0.000 A 
ATOM     22  C   UNL     1      -2.480   2.097  22.006  0.00  0.00    +0.000 A 
ATOM     23  C   UNL     1      -2.038   1.644  22.536  0.00  0.00    +0.000 A 
ATOM     24  C   UNL     1      -3.105   2.036  24.400  0.00  0.00    +0.000 A 
ATOM     25  C   UNL     1      -2.663   1.583  24.931  0.00  0.00    +0.005 A 
ENDBRANCH  14  16
BRANCH   4   3
ATOM      1  O   UNL     1      -3.222   3.531  24.084  0.00  0.00    -0.268 OA
ATOM      2  C   UNL     1      -3.443   2.645  24.276  0.00  0.00    +0.269 C 
ATOM      3  N   UNL     1      -2.632   1.931  23.827  0.00  0.00    -0.171 NA
BRANCH   2  30
ATOM     30  C   UNL     1      -4.058   2.524  24.659  0.00  0.00    +0.055 A 
ATOM     31  C   UNL     1      -4.728   2.135  24.374  0.00  0.00    +0.005 A 
ATOM     32  C   UNL     1      -5.385   2.035  24.863  0.00  0.00    +0.010 A 
ATOM     33  C   UNL     1      -5.372   2.324  25.636  0.00  0.00    +0.068 A 
ATOM     34  C   UNL     1      -4.702   2.713  25.920  0.00  0.00    +0.010 A 
ATOM     35  C   UNL     1      -4.045   2.813  25.431  0.00  0.00    +0.005 A 
BRANCH  33  36
ATOM     36  C   UNL     1      -6.029   2.223  26.125  0.00  0.00    +0.100 C 
ATOM     37  N   UNL     1      -6.686   2.123  26.613  0.00  0.00    -0.191 NA
ENDBRANCH  33  36
ENDBRANCH   2  30
ENDBRANCH   4   3
TORSDOF 4
ENDMDL
MODEL 5
REMARK VINA RESULT:     -14.9      1.725      3.252
REMARK  Name = 
REMARK  4 active torsions:
REMARK  status: ('A' for Active; 'I' for Inactive)
REMARK    1  A    between atoms: C_2  and  C_30
REMARK    2  A    between atoms: N_3  and  C_4
REMARK    3  A    between atoms: C_14  and  C_16
REMARK    4  A    between atoms: C_33  and  C_36
REMARK                            x       y       z     vdW  Elec       q    Type
REMARK                         _______ _______ _______ _____ _____    ______ ____
ROOT
ATOM      4  C   UNL     1      -4.018   2.629  24.644  0.00  0.00    +0.130 A 
ATOM      5  C   UNL     1      -3.983   3.314  24.064  0.00  0.00    +0.023 A 
ATOM      6  C   UNL     1      -3.571   3.145  23.370  0.00  0.00    +0.014 A 
ATOM      7  C   UNL     1      -3.237   2.399  23.260  0.00  0.00    +0.041 A 
ATOM      8  C   UNL     1      -2.750   1.918  22.647  0.00  0.00    +0.058 C 
ATOM      9  C   UNL     1      -2.453   1.974  22.013  0.00  0.00    +0.011 C 
ATOM     10  C   UNL     1      -2.532   1.407  22.593  0.00  0.00    +0.043 C 
ATOM     11  C   UNL     1      -2.519   0.602  23.166  0.00  0.00    +0.096 C 
ATOM     12  N   UNL     1      -2.953   0.888  23.819  0.00  0.00    -0.276 N 
ATOM     13  C   UNL     1      -2.728   1.132  23.189  0.00  0.00    +0.099 C 
ATOM     14  C   UNL     1      -3.323   0.888  24.557  0.00  0.00    +0.249 C 
ATOM     15  O   UNL     1      -3.306   0.211  25.027  0.00  0.00    -0.270 OA
ATOM     26  C   UNL     1      -3.041   1.902  23.240  0.00  0.00    +0.110 C 
ATOM     27  N   UNL     1      -3.315   1.822  23.845  0.00  0.00    -0.298 N 
ATOM     28  C   UNL     1      -3.727   1.991  24.540  0.00  0.00    +0.276 A 
ATOM     29  O   UNL     1      -3.934   1.606  25.239  0.00  0.00    -0.266 OA
ENDROOT
BRANCH  14  16
ATOM     16  C   UNL     1      -3.711   1.567  24.824  0.00  0.00    +0.054 A 
ATOM     17  C   UNL     1      -4.534   1.581  24.867  0.00  0.00    +0.005 A 
ATOM     18  C   UNL     1      -4.922   2.259  25.134  0.00  0.00    +0.000 A 
ATOM     19  C   UNL     1      -4.486   2.922  25.359  0.00  0.00    +0.000 A 
ATOM     20  C   UNL     1      -4.872   3.599  25.626  0.00  0.00    +0.000 A 
ATOM     21  C   UNL     1      -5.697   3.614  25.668  0.00  0.00    +0.000 A 
ATOM     22  C   UNL     1      -6.133   2.951  25.444  0.00  0.00    +0.000 A 
ATOM     23  C   UNL     1      -5.746   2.273  25.176  0.00  0.00    +0.000 A 
ATOM     24  C   UNL     1      -3.662   2.907  25.316  0.00  0.00    +0.000 A 
ATOM     25  C   UNL     1      -3.274   2.229  25.049  0.00  0.00    +0.005 A 
ENDBRANCH  14  16
BRANCH   4   3
ATOM      1  O   UNL     1      -3.907   3.463  26.747  0.00  0.00    -0.268 OA
ATOM      2  C   UNL     1      -3.655   3.371  25.853  0.00  0.00    +0.269 C 
ATOM      3  N   UNL     1      -4.344   2.582  25.330  0.00  0.00    -0.171 NA
BRANCH   2  30
ATOM     30  C   UNL     1      -3.095   3.781  25.615  0.00  0.00    +0.055 A 
ATOM     31  C   UNL     1      -3.151   4.391  25.062  0.00  0.00    +0.005 A 
ATOM     32  C   UNL     1      -2.476   4.810  24.840  0.00  0.00    +0.010 A 
ATOM     33  C   UNL     1      -1.745   4.619  25.170  0.00  0.00    +0.068 A 
ATOM     34  C   UNL     1      -1.688   4.008  25.723  0.00  0.00    +0.010 A 
ATOM     35  C   UNL     1      -2.364   3.589  25.945  0.00  0.00    +0.005 A 
BRANCH  33  36
ATOM     36  C   UNL     1      -1.070   5.038  24.948  0.00  0.00    +0.100 C 
ATOM     37  N   UNL     1      -0.395   5.457  24.726  0.00  0.00    -0.191 NA
ENDBRANCH  33  36
ENDBRANCH   2  30
ENDBRANCH   4   3
TORSDOF 4
ENDMDL
MODEL 6
REMARK VINA RESULT:     -14.9      2.305      4.628
REMARK  Name = 
REMARK  4 active torsions:
REMARK  status: ('A' for Active; 'I' for Inactive)
REMARK    1  A    between atoms: C_2  and  C_30
REMARK    2  A    between atoms: N_3  and  C_4
REMARK    3  A    between atoms: C_14  and  C_16
REMARK    4  A    between atoms: C_33  and  C_36
REMARK                            x       y       z     vdW  Elec       q    Type
REMARK                         _______ _______ _______ _____ _____    ______ ____
ROOT
ATOM      4  C   UNL     1      -1.679   3.303  25.009  0.00  0.00    +0.130 A 
ATOM      5  C   UNL     1      -2.121   3.260  24.229  0.00  0.00    +0.023 A 
ATOM      6  C   UNL     1      -2.089   2.520  23.865  0.00  0.00    +0.014 A 
ATOM      7  C   UNL     1      -1.674   1.903  24.222  0.00  0.00    +0.041 A 
ATOM      8  C   UNL     1      -1.457   1.020  24.092  0.00  0.00    +0.058 C 
ATOM      9  C   UNL     1      -1.547   0.492  23.638  0.00  0.00    +0.011 C 
ATOM     10  C   UNL     1      -1.172   0.616  24.350  0.00  0.00    +0.043 C 
ATOM     11  C   UNL     1      -0.662   0.569  25.195  0.00  0.00    +0.096 C 
ATOM     12  N   UNL     1      -0.765   1.353  25.465  0.00  0.00    -0.276 N 
ATOM     13  C   UNL     1      -0.961   0.958  24.905  0.00  0.00    +0.099 C 
ATOM     14  C   UNL     1      -0.697   2.014  25.955  0.00  0.00    +0.249 C 
ATOM     15  O   UNL     1      -0.269   1.963  26.658  0.00  0.00    -0.270 OA
ATOM     26  C   UNL     1      -1.394   1.539  24.495  0.00  0.00    +0.110 C 
ATOM     27  N   UNL     1      -1.293   2.026  24.944  0.00  0.00    -0.298 N 
ATOM     28  C   UNL     1      -1.326   2.765  25.307  0.00  0.00    +0.276 A 
ATOM     29  O   UNL     1      -1.043   3.123  25.994  0.00  0.00    -0.266 OA
ENDROOT
BRANCH  14  16
ATOM     16  C   UNL     1      -1.058   2.725  25.742  0.00  0.00    +0.054 A 
ATOM     17  C   UNL     1      -0.602   3.348  25.453  0.00  0.00    +0.005 A 
ATOM     18  C   UNL     1      -0.963   4.059  25.240  0.00  0.00    +0.000 A 
ATOM     19  C   UNL     1      -1.779   4.146  25.315  0.00  0.00    +0.000 A 
ATOM     20  C   UNL     1      -2.141   4.856  25.102  0.00  0.00    +0.000 A 
ATOM     21  C   UNL     1      -1.684   5.480  24.813  0.00  0.00    +0.000 A 
ATOM     22  C   UNL     1      -0.868   5.393  24.738  0.00  0.00    +0.000 A 
ATOM     23  C   UNL     1      -0.507   4.683  24.951  0.00  0.00    +0.000 A 
ATOM     24  C   UNL     1      -2.236   3.522  25.604  0.00  0.00    +0.000 A 
ATOM     25  C   UNL     1      -1.875   2.811  25.818  0.00  0.00    +0.005 A 
ENDBRANCH  14  16
BRANCH   4   3
ATOM      1  O   UNL     1      -2.831   4.716  26.353  0.00  0.00    -0.268 OA
ATOM      2  C   UNL     1      -2.725   4.016  25.745  0.00  0.00    +0.269 C 
ATOM      3  N   UNL     1      -1.589   3.884  25.492  0.00  0.00    -0.171 NA
BRANCH   2  30
ATOM     30  C   UNL     1      -3.330   3.665  25.521  0.00  0.00    +0.055 A 
ATOM     31  C   UNL     1      -3.627   3.669  24.751  0.00  0.00    +0.005 A 
ATOM     32  C   UNL     1      -4.315   3.250  24.572  0.00  0.00    +0.010 A 
ATOM     33  C   UNL     1      -4.705   2.827  25.163  0.00  0.00    +0.068 A 
ATOM     34  C   UNL     1      -4.408   2.822  25.934  0.00  0.00    +0.010 A 
ATOM     35  C   UNL     1      -3.720   3.242  26.112  0.00  0.00    +0.005 A 
BRANCH  33  36
ATOM     36  C   UNL     1      -5.392   2.407  24.984  0.00  0.00    +0.100 C 
ATOM     37  N   UNL     1      -6.080   1.988  24.805  0.00  0.00    -0.191 NA
ENDBRANCH  33  36
ENDBRANCH   2  30
ENDBRANCH   4   3
TORSDOF 4
ENDMDL
MODEL 7
REMARK VINA RESULT:     -14.9      1.496      2.832
REMARK  Name = 
REMARK  4 active torsions:
REMARK  status: ('A' for Active; 'I' for Inactive)
REMARK    1  A    between atoms: C_2  and  C_30
REMARK    2  A    between atoms: N_3  and  C_4
REMARK    3  A    between atoms: C_14  and  C_16
REMARK    4  A    between atoms: C_33  and  C_36
REMARK                            x       y       z     vdW  Elec       q    Type
REMARK                         _______ _______ _______ _____ _____    ______ ____
ROOT
ATOM      4  C   UNL     1      -3.607   1.960  24.087  0.00  0.00    +0.130 A 
ATOM      5  C   UNL     1      -4.120   1.284  23.792  0.00  0.00    +0.023 A 
ATOM      6  C   UNL     1      -4.846   1.221  24.177  0.00  0.00    +0.014 A 
ATOM      7  C   UNL     1      -5.043   1.755  24.775  0.00  0.00    +0.041 A 
ATOM      8  C   UNL     1      -5.723   1.950  25.362  0.00  0.00    +0.058 C 
ATOM      9  C   UNL     1      -6.362   1.734  25.556  0.00  0.00    +0.011 C 
ATOM     10  C   UNL     1      -5.836   2.321  25.762  0.00  0.00    +0.043 C 
ATOM     11  C   UNL     1      -5.345   3.086  26.149  0.00  0.00    +0.096 C 
ATOM     12  N   UNL     1      -4.646   3.049  25.692  0.00  0.00    -0.276 N 
ATOM     13  C   UNL     1      -5.261   2.693  25.745  0.00  0.00    +0.099 C 
ATOM     14  C   UNL     1      -3.895   3.251  25.417  0.00  0.00    +0.249 C 
ATOM     15  O   UNL     1      -3.494   3.892  25.747  0.00  0.00    -0.270 OA
ATOM     26  C   UNL     1      -5.121   2.125  25.153  0.00  0.00    +0.110 C 
ATOM     27  N   UNL     1      -4.513   2.351  24.987  0.00  0.00    -0.298 N 
ATOM     28  C   UNL     1      -3.787   2.413  24.601  0.00  0.00    +0.276 A 
ATOM     29  O   UNL     1      -3.118   2.896  24.628  0.00  0.00    -0.266 OA
ENDROOT
BRANCH  14  16
ATOM     16  C   UNL     1      -3.545   2.812  24.812  0.00  0.00    +0.054 A 
ATOM     17  C   UNL     1      -3.529   3.111  24.043  0.00  0.00    +0.005 A 
ATOM     18  C   UNL     1      -3.179   2.671  23.438  0.00  0.00    +0.000 A 
ATOM     19  C   UNL     1      -2.846   1.935  23.602  0.00  0.00    +0.000 A 
ATOM     20  C   UNL     1      -2.496   1.496  22.998  0.00  0.00    +0.000 A 
ATOM     21  C   UNL     1      -2.480   1.794  22.228  0.00  0.00    +0.000 A 
ATOM     22  C   UNL     1      -2.813   2.531  22.064  0.00  0.00    +0.000 A 
ATOM     23  C   UNL     1      -3.162   2.970  22.668  0.00  0.00    +0.000 A 
ATOM     24  C   UNL     1      -2.863   1.637  24.371  0.00  0.00    +0.000 A 
ATOM     25  C   UNL     1      -3.212   2.076  24.977  0.00  0.00    +0.005 A 
ENDBRANCH  14  16
BRANCH   4   3
ATOM      1  O   UNL     1      -1.461   1.256  23.920  0.00  0.00    -0.268 OA
ATOM      2  C   UNL     1      -2.368   1.182  24.128  0.00  0.00    +0.269 C 
ATOM      3  N   UNL     1      -2.914   2.184  23.866  0.00  0.00    -0.171 NA
BRANCH   2  30
ATOM     30  C   UNL     1      -2.601   0.545  24.410  0.00  0.00    +0.055 A 
ATOM     31  C   UNL     1      -3.120   0.021  24.039  0.00  0.00    +0.005 A 
ATOM     32  C   UNL     1      -3.339  -0.679  24.418  0.00  0.00    +0.010 A 
ATOM     33  C   UNL     1      -3.040  -0.854  25.166  0.00  0.00    +0.068 A 
ATOM     34  C   UNL     1      -2.521  -0.329  25.537  0.00  0.00    +0.010 A 
ATOM     35  C   UNL     1      -2.302   0.370  25.158  0.00  0.00    +0.005 A 
BRANCH  33  36
ATOM     36  C   UNL     1      -3.259  -1.553  25.544  0.00  0.00    +0.100 C 
ATOM     37  N   UNL     1      -3.478  -2.253  25.923  0.00  0.00    -0.191 NA
ENDBRANCH  33  36
ENDBRANCH   2  30
ENDBRANCH   4   3
TORSDOF 4
ENDMDL
MODEL 8
REMARK VINA RESULT:     -14.6      1.747      3.340
REMARK  Name = 
REMARK  4 active torsions:
REMARK  status: ('A' for Active; 'I' for Inactive)
REMARK    1  A    between atoms: C_2  and  C_30
REMARK    2  A    between atoms: N_3  and  C_4
REMARK    3  A    between atoms: C_14  and  C_16
REMARK    4  A    between atoms: C_33  and  C_36
REMARK                            x       y       z     vdW  Elec       q    Type
REMARK                         _______ _______ _______ _____ _____    ______ ____
ROOT
ATOM      4  C   UNL     1      -1.186   0.568  24.520  0.00  0.00    +0.130 A 
ATOM      5  C   UNL     1      -1.645   1.076  23.938  0.00  0.00    +0.023 A 
ATOM      6  C   UNL     1      -2.462   0.959  23.964  0.00  0.00    +0.014 A 
ATOM      7  C   UNL     1      -2.783   0.414  24.494  0.00  0.00    +0.041 A 
ATOM      8  C   UNL     1      -3.593   0.069  24.758  0.00  0.00    +0.058 C 
ATOM      9  C   UNL     1      -4.281   0.116  24.628  0.00  0.00    +0.011 C 
ATOM     10  C   UNL     1      -3.790  -0.304  25.123  0.00  0.00    +0.043 C 
ATOM     11  C   UNL     1      -3.370  -0.899  25.791  0.00  0.00    +0.096 C 
ATOM     12  N   UNL     1      -2.568  -0.697  25.674  0.00  0.00    -0.276 N 
ATOM     13  C   UNL     1      -3.202  -0.512  25.408  0.00  0.00    +0.099 C 
ATOM     14  C   UNL     1      -1.749  -0.704  25.778  0.00  0.00    +0.249 C 
ATOM     15  O   UNL     1      -1.409  -1.205  26.338  0.00  0.00    -0.270 OA
ATOM     26  C   UNL     1      -2.939   0.051  24.853  0.00  0.00    +0.110 C 
ATOM     27  N   UNL     1      -2.289  -0.014  24.997  0.00  0.00    -0.298 N 
ATOM     28  C   UNL     1      -1.473   0.103  24.971  0.00  0.00    +0.276 A 
ATOM     29  O   UNL     1      -0.800  -0.186  25.350  0.00  0.00    -0.266 OA
ENDROOT
BRANCH  14  16
ATOM     16  C   UNL     1      -1.270  -0.211  25.321  0.00  0.00    +0.054 A 
ATOM     17  C   UNL     1      -0.814  -0.529  24.711  0.00  0.00    +0.005 A 
ATOM     18  C   UNL     1      -0.336  -0.035  24.254  0.00  0.00    +0.000 A 
ATOM     19  C   UNL     1      -0.314   0.775  24.406  0.00  0.00    +0.000 A 
ATOM     20  C   UNL     1       0.164   1.268  23.950  0.00  0.00    +0.000 A 
ATOM     21  C   UNL     1       0.621   0.950  23.340  0.00  0.00    +0.000 A 
ATOM     22  C   UNL     1       0.599   0.140  23.188  0.00  0.00    +0.000 A 
ATOM     23  C   UNL     1       0.121  -0.353  23.644  0.00  0.00    +0.000 A 
ATOM     24  C   UNL     1      -0.770   1.093  25.016  0.00  0.00    +0.000 A 
ATOM     25  C   UNL     1      -1.249   0.599  25.474  0.00  0.00    +0.005 A 
ENDBRANCH  14  16
BRANCH   4   3
ATOM      1  O   UNL     1       0.582   1.786  25.245  0.00  0.00    -0.268 OA
ATOM      2  C   UNL     1      -0.311   1.630  25.024  0.00  0.00    +0.269 C 
ATOM      3  N   UNL     1      -0.437   0.527  24.650  0.00  0.00    -0.171 NA
BRANCH   2  30
ATOM     30  C   UNL     1      -0.785   2.185  25.109  0.00  0.00    +0.055 A 
ATOM     31  C   UNL     1      -1.182   2.570  24.496  0.00  0.00    +0.005 A 
ATOM     32  C   UNL     1      -1.701   3.189  24.667  0.00  0.00    +0.010 A 
ATOM     33  C   UNL     1      -1.822   3.420  25.449  0.00  0.00    +0.068 A 
ATOM     34  C   UNL     1      -1.425   3.034  26.062  0.00  0.00    +0.010 A 
ATOM     35  C   UNL     1      -0.906   2.416  25.891  0.00  0.00    +0.005 A 
BRANCH  33  36
ATOM     36  C   UNL     1      -2.342   4.038  25.620  0.00  0.00    +0.100 C 
ATOM     37  N   UNL     1      -2.861   4.656  25.791  0.00  0.00    -0.191 NA
ENDBRANCH  33  36
ENDBRANCH   2  30
ENDBRANCH   4   3
TORSDOF 4
ENDMDL
MODEL 9
REMARK VINA RESULT:     -14.6      1.231      3.394
REMARK  Name = 
REMARK  4 active torsions:
REMARK  status: ('A' for Active; 'I' for Inactive)
REMARK    1  A    between atoms: C_2  and  C_30
REMARK    2  A    between atoms: N_3  and  C_4
REMARK    3  A    between atoms: C_14  and  C_16
REMARK    4  A    between atoms: C_33  and  C_36
REMARK                            x       y       z     vdW  Elec       q    Type
REMARK                         _______ _______ _______ _____ _____    ______ ____
ROOT
ATOM      4  C   UNL     1      -2.063   0.448  24.862  0.00  0.00    +0.130 A 
ATOM      5  C   UNL     1      -2.389   0.974  25.513  0.00  0.00    +0.023 A 
ATOM      6  C   UNL     1      -1.874   1.574  25.749  0.00  0.00    +0.014 A 
ATOM      7  C   UNL     1      -1.134   1.646  25.391  0.00  0.00    +0.041 A 
ATOM      8  C   UNL     1      -0.376   2.165  25.417  0.00  0.00    +0.058 C 
ATOM      9  C   UNL     1      -0.099   2.718  25.748  0.00  0.00    +0.011 C 
ATOM     10  C   UNL     1       0.119   2.196  25.162  0.00  0.00    +0.043 C 
ATOM     11  C   UNL     1       0.558   1.673  24.449  0.00  0.00    +0.096 C 
ATOM     12  N   UNL     1      -0.043   1.113  24.296  0.00  0.00    -0.276 N 
ATOM     13  C   UNL     1       0.062   1.669  24.729  0.00  0.00    +0.099 C 
ATOM     14  C   UNL     1      -0.425   0.470  23.946  0.00  0.00    +0.249 C 
ATOM     15  O   UNL     1      -0.050   0.041  23.352  0.00  0.00    -0.270 OA
ATOM     26  C   UNL     1      -0.669   1.649  25.128  0.00  0.00    +0.110 C 
ATOM     27  N   UNL     1      -0.910   1.119  24.797  0.00  0.00    -0.298 N 
ATOM     28  C   UNL     1      -1.425   0.520  24.561  0.00  0.00    +0.276 A 
ATOM     29  O   UNL     1      -1.436  -0.101  24.018  0.00  0.00    -0.266 OA
ENDROOT
BRANCH  14  16
ATOM     16  C   UNL     1      -1.185   0.259  24.192  0.00  0.00    +0.054 A 
ATOM     17  C   UNL     1      -1.294  -0.412  24.660  0.00  0.00    +0.005 A 
ATOM     18  C   UNL     1      -2.053  -0.624  24.906  0.00  0.00    +0.000 A 
ATOM     19  C   UNL     1      -2.701  -0.165  24.684  0.00  0.00    +0.000 A 
ATOM     20  C   UNL     1      -3.460  -0.377  24.930  0.00  0.00    +0.000 A 
ATOM     21  C   UNL     1      -3.569  -1.048  25.397  0.00  0.00    +0.000 A 
ATOM     22  C   UNL     1      -2.921  -1.506  25.619  0.00  0.00    +0.000 A 
ATOM     23  C   UNL     1      -2.163  -1.295  25.374  0.00  0.00    +0.000 A 
ATOM     24  C   UNL     1      -2.591   0.506  24.216  0.00  0.00    +0.000 A 
ATOM     25  C   UNL     1      -1.832   0.718  23.970  0.00  0.00    +0.005 A 
ENDBRANCH  14  16
BRANCH   4   3
ATOM      1  O   UNL     1      -3.802  -0.153  23.542  0.00  0.00    -0.268 OA
ATOM      2  C   UNL     1      -3.273   0.434  24.037  0.00  0.00    +0.269 C 
ATOM      3  N   UNL     1      -2.376  -0.151  24.511  0.00  0.00    -0.171 NA
BRANCH   2  30
ATOM     30  C   UNL     1      -3.478   1.139  24.061  0.00  0.00    +0.055 A 
ATOM     31  C   UNL     1      -3.780   1.525  24.724  0.00  0.00    +0.005 A 
ATOM     32  C   UNL     1      -3.990   2.322  24.677  0.00  0.00    +0.010 A 
ATOM     33  C   UNL     1      -3.897   2.731  23.968  0.00  0.00    +0.068 A 
ATOM     34  C   UNL     1      -3.594   2.345  23.304  0.00  0.00    +0.010 A 
ATOM     35  C   UNL     1      -3.385   1.548  23.351  0.00  0.00    +0.005 A 
BRANCH  33  36
ATOM     36  C   UNL     1      -4.107   3.528  23.921  0.00  0.00    +0.100 C 
ATOM     37  N   UNL     1      -4.317   4.324  23.873  0.00  0.00    -0.191 NA
ENDBRANCH  33  36
ENDBRANCH   2  30
ENDBRANCH   4   3
TORSDOF 4
ENDMDL
MODEL 10
REMARK VINA RESULT:     -14.4      1.084      3.037
REMARK  Name = 
REMARK  4 active torsions:
REMARK  status: ('A' for Active; 'I' for Inactive)
REMARK    1  A    between atoms: C_2  and  C_30
REMARK    2  A    between atoms: N_3  and  C_4
REMARK    3  A    between atoms: C_14  and  C_16
REMARK    4  A    between atoms: C_33  and  C_36
REMARK                            x       y       z     vdW  Elec       q    Type
REMARK                         _______ _______ _______ _____ _____    ______ ____
ROOT
ATOM      4  C   UNL     1      -3.660   0.687  24.716  0.00  0.00    +0.130 A 
ATOM      5  C   UNL     1      -3.158   0.925  25.421  0.00  0.00    +0.023 A 
ATOM      6  C   UNL     1      -2.733   0.303  25.756  0.00  0.00    +0.014 A 
ATOM      7  C   UNL     1      -2.796  -0.456  25.439  0.00  0.00    +0.041 A 
ATOM      8  C   UNL     1      -2.481  -1.310  25.565  0.00  0.00    +0.058 C 
ATOM      9  C   UNL     1      -2.056  -1.685  25.979  0.00  0.00    +0.011 C 
ATOM     10  C   UNL     1      -2.537  -1.815  25.335  0.00  0.00    +0.043 C 
ATOM     11  C   UNL     1      -3.057  -2.169  24.573  0.00  0.00    +0.096 C 
ATOM     12  N   UNL     1      -3.433  -1.467  24.322  0.00  0.00    -0.276 N 
ATOM     13  C   UNL     1      -2.977  -1.667  24.831  0.00  0.00    +0.099 C 
ATOM     14  C   UNL     1      -3.916  -0.970  23.874  0.00  0.00    +0.249 C 
ATOM     15  O   UNL     1      -4.346  -1.276  23.239  0.00  0.00    -0.270 OA
ATOM     26  C   UNL     1      -2.872  -0.926  25.196  0.00  0.00    +0.110 C 
ATOM     27  N   UNL     1      -3.282  -0.592  24.787  0.00  0.00    -0.298 N 
ATOM     28  C   UNL     1      -3.707   0.031  24.451  0.00  0.00    +0.276 A 
ATOM     29  O   UNL     1      -4.234   0.148  23.828  0.00  0.00    -0.266 OA
ENDROOT
BRANCH  14  16
ATOM     16  C   UNL     1      -3.970  -0.167  24.060  0.00  0.00    +0.054 A 
ATOM     17  C   UNL     1      -4.642   0.124  24.437  0.00  0.00    +0.005 A 
ATOM     18  C   UNL     1      -4.695   0.926  24.624  0.00  0.00    +0.000 A 
ATOM     19  C   UNL     1      -4.076   1.436  24.432  0.00  0.00    +0.000 A 
ATOM     20  C   UNL     1      -4.129   2.238  24.617  0.00  0.00    +0.000 A 
ATOM     21  C   UNL     1      -4.802   2.530  24.995  0.00  0.00    +0.000 A 
ATOM     22  C   UNL     1      -5.421   2.020  25.187  0.00  0.00    +0.000 A 
ATOM     23  C   UNL     1      -5.368   1.219  25.002  0.00  0.00    +0.000 A 
ATOM     24  C   UNL     1      -3.403   1.144  24.053  0.00  0.00    +0.000 A 
ATOM     25  C   UNL     1      -3.350   0.342  23.867  0.00  0.00    +0.005 A 
ENDBRANCH  14  16
BRANCH   4   3
ATOM      1  O   UNL     1      -3.662   2.440  23.282  0.00  0.00    -0.268 OA
ATOM      2  C   UNL     1      -3.285   1.822  23.870  0.00  0.00    +0.269 C 
ATOM      3  N   UNL     1      -4.118   1.105  24.274  0.00  0.00    -0.171 NA
BRANCH   2  30
ATOM     30  C   UNL     1      -2.562   1.865  23.991  0.00  0.00    +0.055 A 
ATOM     31  C   UNL     1      -2.211   2.094  24.703  0.00  0.00    +0.005 A 
ATOM     32  C   UNL     1      -1.389   2.120  24.767  0.00  0.00    +0.010 A 
ATOM     33  C   UNL     1      -0.919   1.917  24.120  0.00  0.00    +0.068 A 
ATOM     34  C   UNL     1      -1.270   1.688  23.409  0.00  0.00    +0.010 A 
ATOM     35  C   UNL     1      -2.092   1.662  23.345  0.00  0.00    +0.005 A 
BRANCH  33  36
ATOM     36  C   UNL     1      -0.096   1.943  24.184  0.00  0.00    +0.100 C 
ATOM     37  N   UNL     1       0.726   1.969  24.248  0.00  0.00    -0.191 NA
ENDBRANCH  33  36
ENDBRANCH   2  30
ENDBRANCH   4   3
TORSDOF 4
ENDMDL
