REMARK  Name = 
REMARK  6 active torsions:
REMARK  status: ('A' for Active; 'I' for Inactive)
REMARK    1  A    between atoms: C_3  and  N_4
REMARK    2  A    between atoms: N_4  and  C_5
REMARK    3  A    between atoms: C_5  and  C_6
REMARK    4  A    between atoms: C_16  and  N_17
REMARK    5  A    between atoms: C_20  and  C_21
REMARK    6  A    between atoms: C_21  and  C_22
REMARK                            x       y       z     vdW  Elec       q    Type
REMARK                         _______ _______ _______ _____ _____    ______ ____
ROOT
ATOM      1  O   UNL     1       2.539  -2.074   0.000  0.00  0.00    -0.220 OA
ATOM      2  C   UNL     1       2.127  -1.359   0.000  0.00  0.00    +0.190 C 
ATOM      3  C   UNL     1       1.989  -0.542   0.000  0.00  0.00    +0.135 C 
ATOM     11  C   UNL     1       1.060  -0.557   0.000  0.00  0.00    +0.166 C 
ATOM     12  C   UNL     1       0.740  -1.266   0.000  0.00  0.00    +0.176 C 
ATOM     13  O   UNL     1       0.120  -1.643   0.000  0.00  0.00    -0.327 OA
ATOM     14  C   UNL     1       0.640  -0.930   0.000  0.00  0.00    +0.253 C 
ATOM     15  O   UNL     1       0.500  -0.117   0.000  0.00  0.00    -0.328 OA
ATOM     16  C   UNL     1       1.611  -0.930   0.000  0.00  0.00    +0.147 C 
ENDROOT
BRANCH  16  17
ATOM     17  N   UNL     1       1.331  -1.706   0.000  0.00  0.00    -0.268 NA
ATOM     18  C   UNL     1       1.863  -2.337   0.000  0.00  0.00    +0.072 C 
ATOM     19  C   UNL     1       1.583  -3.113   0.000  0.00  0.00    +0.018 C 
ATOM     20  C   UNL     1       0.771  -3.258   0.000  0.00  0.00    +0.007 C 
ATOM     28  C   UNL     1       0.239  -2.628   0.000  0.00  0.00    +0.018 C 
ATOM     29  C   UNL     1       0.519  -1.852   0.000  0.00  0.00    +0.072 C 
BRANCH  20  21
ATOM     21  C   UNL     1       0.490  -4.034   0.000  0.00  0.00    +0.026 C 
BRANCH  21  22
ATOM     22  C   UNL     1      -0.322  -4.180   0.000  0.00  0.00    -0.022 A 
ATOM     23  C   UNL     1      -0.602  -4.955   0.000  0.00  0.00    -0.004 A 
ATOM     24  C   UNL     1      -1.414  -5.101   0.000  0.00  0.00    -0.000 A 
ATOM     25  C   UNL     1      -1.946  -4.470   0.000  0.00  0.00    -0.000 A 
ATOM     26  C   UNL     1      -1.666  -3.694   0.000  0.00  0.00    -0.000 A 
ATOM     27  C   UNL     1      -0.854  -3.549   0.000  0.00  0.00    -0.004 A 
ENDBRANCH  21  22
ENDBRANCH  20  21
ENDBRANCH  16  17
BRANCH   3   4
ATOM      4  N   UNL     1       2.517   0.093   0.000  0.00  0.00    -0.206 NA
BRANCH   4   5
ATOM      5  C   UNL     1       2.231   0.867   0.000  0.00  0.00    +0.153 C 
BRANCH   5   6
ATOM      6  C   UNL     1       2.758   1.501   0.000  0.00  0.00    +0.141 A 
ATOM      7  C   UNL     1       2.554   2.301   0.000  0.00  0.00    +0.038 A 
ATOM      8  C   UNL     1       3.252   2.741   0.000  0.00  0.00    +0.043 A 
ATOM      9  C   UNL     1       3.886   2.214   0.000  0.00  0.00    +0.179 A 
ATOM     10  O   UNL     1       3.581   1.448   0.000  0.00  0.00    -0.453 OA
ENDBRANCH   5   6
ENDBRANCH   4   5
ENDBRANCH   3   4
TORSDOF 6
