MODEL 1
REMARK VINA RESULT:     -11.2      0.000      0.000
REMARK  Name = 
REMARK  7 active torsions:
REMARK  status: ('A' for Active; 'I' for Inactive)
REMARK    1  A    between atoms: O_2  and  C_3
REMARK    2  A    between atoms: C_6  and  C_7
REMARK    3  A    between atoms: C_7  and  N_8
REMARK    4  A    between atoms: N_8  and  C_9
REMARK    5  A    between atoms: C_9  and  C_10
REMARK    6  A    between atoms: C_10  and  C_11
REMARK    7  A    between atoms: C_14  and  C_16
REMARK                            x       y       z     vdW  Elec       q    Type
REMARK                         _______ _______ _______ _____ _____    ______ ____
ROOT
ATOM      9  C   UNL     1      -4.937   1.698  24.937  0.00  0.00    +0.120 C 
ATOM     22  C   UNL     1      -5.506   1.291  25.372  0.00  0.00    +0.161 C 
ATOM     23  O   UNL     1      -6.006   1.946  25.332  0.00  0.00    -0.351 OA
ATOM     24  C   UNL     1      -5.436   2.354  24.895  0.00  0.00    +0.161 C 
ENDROOT
BRANCH   9   8
ATOM      8  N   UNL     1      -4.437   1.043  24.977  0.00  0.00    -0.211 NA
BRANCH   8   7
ATOM      7  C   UNL     1      -4.745   0.283  24.900  0.00  0.00    +0.115 C 
BRANCH   7   6
ATOM      3  C   UNL     1      -3.225  -1.668  24.787  0.00  0.00    +0.139 A 
ATOM      4  C   UNL     1      -3.629  -1.420  24.112  0.00  0.00    +0.037 A 
ATOM      5  C   UNL     1      -4.136  -0.769  24.149  0.00  0.00    +0.000 A 
ATOM      6  C   UNL     1      -4.238  -0.367  24.862  0.00  0.00    -0.005 A 
ATOM     25  C   UNL     1      -3.834  -0.615  25.538  0.00  0.00    +0.000 A 
ATOM     26  C   UNL     1      -3.327  -1.265  25.500  0.00  0.00    +0.037 A 
BRANCH   3   2
ATOM      1  C   UNL     1      -1.916  -2.206  24.591  0.00  0.00    +0.252 C 
ATOM      2  O   UNL     1      -2.718  -2.317  24.749  0.00  0.00    -0.471 OA
ENDBRANCH   3   2
ENDBRANCH   7   6
ENDBRANCH   8   7
ENDBRANCH   9   8
BRANCH   9  10
ATOM     10  C   UNL     1      -4.366   2.106  24.500  0.00  0.00    +0.070 C 
BRANCH  10  11
ATOM     11  C   UNL     1      -3.885   2.663  24.871  0.00  0.00    +0.102 A 
ATOM     12  N   UNL     1      -4.052   3.057  25.576  0.00  0.00    -0.081 NA
ATOM     13  O   UNL     1      -3.422   3.562  25.743  0.00  0.00    -0.352 OA
ATOM     14  C   UNL     1      -2.863   3.481  25.141  0.00  0.00    +0.194 A 
ATOM     15  C   UNL     1      -3.150   2.925  24.602  0.00  0.00    +0.060 A 
BRANCH  14  16
ATOM     16  C   UNL     1      -2.146   3.883  25.086  0.00  0.00    +0.118 A 
ATOM     17  N   UNL     1      -1.447   3.464  24.954  0.00  0.00    -0.241 NA
ATOM     18  C   UNL     1      -0.729   3.867  24.900  0.00  0.00    +0.099 A 
ATOM     19  C   UNL     1      -0.710   4.688  24.977  0.00  0.00    +0.021 A 
ATOM     20  C   UNL     1      -1.408   5.107  25.109  0.00  0.00    +0.003 A 
ATOM     21  C   UNL     1      -2.126   4.704  25.164  0.00  0.00    +0.022 A 
ENDBRANCH  14  16
ENDBRANCH  10  11
ENDBRANCH   9  10
TORSDOF 7
ENDMDL
MODEL 2
REMARK VINA RESULT:     -10.9      1.119      4.757
REMARK  Name = 
REMARK  7 active torsions:
REMARK  status: ('A' for Active; 'I' for Inactive)
REMARK    1  A    between atoms: O_2  and  C_3
REMARK    2  A    between atoms: C_6  and  C_7
REMARK    3  A    between atoms: C_7  and  N_8
REMARK    4  A    between atoms: N_8  and  C_9
REMARK    5  A    between atoms: C_9  and  C_10
REMARK    6  A    between atoms: C_10  and  C_11
REMARK    7  A    between atoms: C_14  and  C_16
REMARK                            x       y       z     vdW  Elec       q    Type
REMARK                         _______ _______ _______ _____ _____    ______ ____
ROOT
ATOM      9  C   UNL     1      -5.086   2.035  25.030  0.00  0.00    +0.120 C 
ATOM     22  C   UNL     1      -5.487   2.568  25.515  0.00  0.00    +0.161 C 
ATOM     23  O   UNL     1      -6.197   2.178  25.358  0.00  0.00    -0.351 OA
ATOM     24  C   UNL     1      -5.795   1.644  24.872  0.00  0.00    +0.161 C 
ENDROOT
BRANCH   9   8
ATOM      8  N   UNL     1      -4.377   2.426  25.186  0.00  0.00    -0.211 NA
BRANCH   8   7
ATOM      7  C   UNL     1      -4.344   3.249  25.159  0.00  0.00    +0.115 C 
BRANCH   7   6
ATOM      3  C   UNL     1      -2.165   4.410  25.347  0.00  0.00    +0.139 A 
ATOM      4  C   UNL     1      -2.573   4.183  26.028  0.00  0.00    +0.037 A 
ATOM      5  C   UNL     1      -3.299   3.797  25.966  0.00  0.00    +0.000 A 
ATOM      6  C   UNL     1      -3.617   3.636  25.221  0.00  0.00    -0.005 A 
ATOM     25  C   UNL     1      -3.210   3.862  24.540  0.00  0.00    +0.000 A 
ATOM     26  C   UNL     1      -2.484   4.249  24.604  0.00  0.00    +0.037 A 
BRANCH   3   2
ATOM      1  C   UNL     1      -0.777   4.494  25.022  0.00  0.00    +0.252 C 
ATOM      2  O   UNL     1      -1.439   4.796  25.410  0.00  0.00    -0.471 OA
ENDBRANCH   3   2
ENDBRANCH   7   6
ENDBRANCH   8   7
ENDBRANCH   9   8
BRANCH   9  10
ATOM     10  C   UNL     1      -4.685   1.502  24.544  0.00  0.00    +0.070 C 
BRANCH  10  11
ATOM     11  C   UNL     1      -4.470   0.761  24.835  0.00  0.00    +0.102 A 
ATOM     12  N   UNL     1      -4.651   0.462  25.582  0.00  0.00    -0.081 NA
ATOM     13  O   UNL     1      -4.329  -0.296  25.639  0.00  0.00    -0.352 OA
ATOM     14  C   UNL     1      -3.950  -0.466  24.926  0.00  0.00    +0.194 A 
ATOM     15  C   UNL     1      -4.037   0.187  24.430  0.00  0.00    +0.060 A 
BRANCH  14  16
ATOM     16  C   UNL     1      -3.553  -1.165  24.742  0.00  0.00    +0.118 A 
ATOM     17  N   UNL     1      -2.739  -1.222  24.866  0.00  0.00    -0.241 NA
ATOM     18  C   UNL     1      -2.342  -1.921  24.682  0.00  0.00    +0.099 A 
ATOM     19  C   UNL     1      -2.759  -2.564  24.375  0.00  0.00    +0.021 A 
ATOM     20  C   UNL     1      -3.573  -2.507  24.251  0.00  0.00    +0.003 A 
ATOM     21  C   UNL     1      -3.969  -1.807  24.435  0.00  0.00    +0.022 A 
ENDBRANCH  14  16
ENDBRANCH  10  11
ENDBRANCH   9  10
TORSDOF 7
ENDMDL
MODEL 3
REMARK VINA RESULT:      -9.9      1.922      5.225
REMARK  Name = 
REMARK  7 active torsions:
REMARK  status: ('A' for Active; 'I' for Inactive)
REMARK    1  A    between atoms: O_2  and  C_3
REMARK    2  A    between atoms: C_6  and  C_7
REMARK    3  A    between atoms: C_7  and  N_8
REMARK    4  A    between atoms: N_8  and  C_9
REMARK    5  A    between atoms: C_9  and  C_10
REMARK    6  A    between atoms: C_10  and  C_11
REMARK    7  A    between atoms: C_14  and  C_16
REMARK                            x       y       z     vdW  Elec       q    Type
REMARK                         _______ _______ _______ _____ _____    ______ ____
ROOT
ATOM      9  C   UNL     1      -0.891   1.818  24.861  0.00  0.00    +0.120 C 
ATOM     22  C   UNL     1      -0.672   2.445  24.372  0.00  0.00    +0.161 C 
ATOM     23  O   UNL     1       0.109   2.179  24.382  0.00  0.00    -0.351 OA
ATOM     24  C   UNL     1      -0.110   1.552  24.871  0.00  0.00    +0.161 C 
ENDROOT
BRANCH   9   8
ATOM      8  N   UNL     1      -1.673   2.084  24.852  0.00  0.00    -0.211 NA
BRANCH   8   7
ATOM      7  C   UNL     1      -1.835   2.891  24.896  0.00  0.00    +0.115 C 
BRANCH   7   6
ATOM      3  C   UNL     1      -4.163   3.672  25.205  0.00  0.00    +0.139 A 
ATOM      4  C   UNL     1      -3.617   3.749  25.818  0.00  0.00    +0.037 A 
ATOM      5  C   UNL     1      -2.841   3.489  25.716  0.00  0.00    +0.000 A 
ATOM      6  C   UNL     1      -2.611   3.151  24.999  0.00  0.00    -0.005 A 
ATOM     25  C   UNL     1      -3.157   3.074  24.385  0.00  0.00    +0.000 A 
ATOM     26  C   UNL     1      -3.933   3.335  24.488  0.00  0.00    +0.037 A 
BRANCH   3   2
ATOM      1  C   UNL     1      -5.512   3.416  25.600  0.00  0.00    +0.252 C 
ATOM      2  O   UNL     1      -4.939   3.933  25.308  0.00  0.00    -0.471 OA
ENDBRANCH   3   2
ENDBRANCH   7   6
ENDBRANCH   8   7
ENDBRANCH   9   8
BRANCH   9  10
ATOM     10  C   UNL     1      -1.111   1.191  25.351  0.00  0.00    +0.070 C 
BRANCH  10  11
ATOM     11  C   UNL     1      -1.268   0.450  25.025  0.00  0.00    +0.102 A 
ATOM     12  N   UNL     1      -0.755   0.009  24.552  0.00  0.00    -0.081 NA
ATOM     13  O   UNL     1      -1.136  -0.694  24.350  0.00  0.00    -0.352 OA
ATOM     14  C   UNL     1      -1.885  -0.689  24.697  0.00  0.00    +0.194 A 
ATOM     15  C   UNL     1      -1.966   0.018  25.114  0.00  0.00    +0.060 A 
BRANCH  14  16
ATOM     16  C   UNL     1      -2.452  -1.285  24.638  0.00  0.00    +0.118 A 
ATOM     17  N   UNL     1      -2.226  -2.076  24.703  0.00  0.00    -0.241 NA
ATOM     18  C   UNL     1      -2.793  -2.672  24.644  0.00  0.00    +0.099 A 
ATOM     19  C   UNL     1      -3.585  -2.477  24.520  0.00  0.00    +0.021 A 
ATOM     20  C   UNL     1      -3.810  -1.686  24.455  0.00  0.00    +0.003 A 
ATOM     21  C   UNL     1      -3.243  -1.090  24.514  0.00  0.00    +0.022 A 
ENDBRANCH  14  16
ENDBRANCH  10  11
ENDBRANCH   9  10
TORSDOF 7
ENDMDL
MODEL 4
REMARK VINA RESULT:      -9.5      1.636      3.502
REMARK  Name = 
REMARK  7 active torsions:
REMARK  status: ('A' for Active; 'I' for Inactive)
REMARK    1  A    between atoms: O_2  and  C_3
REMARK    2  A    between atoms: C_6  and  C_7
REMARK    3  A    between atoms: C_7  and  N_8
REMARK    4  A    between atoms: N_8  and  C_9
REMARK    5  A    between atoms: C_9  and  C_10
REMARK    6  A    between atoms: C_10  and  C_11
REMARK    7  A    between atoms: C_14  and  C_16
REMARK                            x       y       z     vdW  Elec       q    Type
REMARK                         _______ _______ _______ _____ _____    ______ ____
ROOT
ATOM      9  C   UNL     1      -0.995   2.398  25.235  0.00  0.00    +0.120 C 
ATOM     22  C   UNL     1      -0.485   2.266  25.869  0.00  0.00    +0.161 C 
ATOM     23  O   UNL     1      -0.302   3.070  25.891  0.00  0.00    -0.351 OA
ATOM     24  C   UNL     1      -0.812   3.202  25.255  0.00  0.00    +0.161 C 
ENDROOT
BRANCH   9   8
ATOM      8  N   UNL     1      -1.178   1.594  25.213  0.00  0.00    -0.211 NA
BRANCH   8   7
ATOM      7  C   UNL     1      -0.578   1.032  25.267  0.00  0.00    +0.115 C 
BRANCH   7   6
ATOM      3  C   UNL     1      -1.092  -1.367  24.934  0.00  0.00    +0.139 A 
ATOM      4  C   UNL     1      -1.369  -0.974  25.604  0.00  0.00    +0.037 A 
ATOM      5  C   UNL     1      -1.198  -0.175  25.716  0.00  0.00    +0.000 A 
ATOM      6  C   UNL     1      -0.749   0.232  25.155  0.00  0.00    -0.005 A 
ATOM     25  C   UNL     1      -0.471  -0.160  24.484  0.00  0.00    +0.000 A 
ATOM     26  C   UNL     1      -0.643  -0.960  24.374  0.00  0.00    +0.037 A 
BRANCH   3   2
ATOM      1  C   UNL     1      -1.986  -2.391  24.495  0.00  0.00    +0.252 C 
ATOM      2  O   UNL     1      -1.263  -2.166  24.823  0.00  0.00    -0.471 OA
ENDBRANCH   3   2
ENDBRANCH   7   6
ENDBRANCH   8   7
ENDBRANCH   9   8
BRANCH   9  10
ATOM     10  C   UNL     1      -1.505   2.530  24.599  0.00  0.00    +0.070 C 
BRANCH  10  11
ATOM     11  C   UNL     1      -2.248   2.861  24.730  0.00  0.00    +0.102 A 
ATOM     12  N   UNL     1      -2.422   3.667  24.768  0.00  0.00    -0.081 NA
ATOM     13  O   UNL     1      -3.231   3.747  24.908  0.00  0.00    -0.352 OA
ATOM     14  C   UNL     1      -3.559   2.991  24.956  0.00  0.00    +0.194 A 
ATOM     15  C   UNL     1      -2.951   2.444  24.846  0.00  0.00    +0.060 A 
BRANCH  14  16
ATOM     16  C   UNL     1      -4.353   2.814  25.091  0.00  0.00    +0.118 A 
ATOM     17  N   UNL     1      -4.779   3.236  25.658  0.00  0.00    -0.241 NA
ATOM     18  C   UNL     1      -5.573   3.058  25.792  0.00  0.00    +0.099 A 
ATOM     19  C   UNL     1      -5.941   2.459  25.360  0.00  0.00    +0.021 A 
ATOM     20  C   UNL     1      -5.515   2.038  24.793  0.00  0.00    +0.003 A 
ATOM     21  C   UNL     1      -4.721   2.215  24.659  0.00  0.00    +0.022 A 
ENDBRANCH  14  16
ENDBRANCH  10  11
ENDBRANCH   9  10
TORSDOF 7
ENDMDL
MODEL 5
REMARK VINA RESULT:      -9.5      1.969      4.557
REMARK  Name = 
REMARK  7 active torsions:
REMARK  status: ('A' for Active; 'I' for Inactive)
REMARK    1  A    between atoms: O_2  and  C_3
REMARK    2  A    between atoms: C_6  and  C_7
REMARK    3  A    between atoms: C_7  and  N_8
REMARK    4  A    between atoms: N_8  and  C_9
REMARK    5  A    between atoms: C_9  and  C_10
REMARK    6  A    between atoms: C_10  and  C_11
REMARK    7  A    between atoms: C_14  and  C_16
REMARK                            x       y       z     vdW  Elec       q    Type
REMARK                         _______ _______ _______ _____ _____    ______ ____
ROOT
ATOM      9  C   UNL     1      -1.450   3.651  25.313  0.00  0.00    +0.120 C 
ATOM     22  C   UNL     1      -1.630   4.299  24.836  0.00  0.00    +0.161 C 
ATOM     23  O   UNL     1      -0.874   4.605  24.964  0.00  0.00    -0.351 OA
ATOM     24  C   UNL     1      -0.694   3.956  25.442  0.00  0.00    +0.161 C 
ENDROOT
BRANCH   9   8
ATOM      8  N   UNL     1      -2.206   3.346  25.185  0.00  0.00    -0.211 NA
BRANCH   8   7
ATOM      7  C   UNL     1      -2.860   3.846  25.193  0.00  0.00    +0.115 C 
BRANCH   7   6
ATOM      3  C   UNL     1      -5.146   2.901  25.102  0.00  0.00    +0.139 A 
ATOM      4  C   UNL     1      -4.882   3.279  25.786  0.00  0.00    +0.037 A 
ATOM      5  C   UNL     1      -4.120   3.594  25.817  0.00  0.00    +0.000 A 
ATOM      6  C   UNL     1      -3.622   3.531  25.162  0.00  0.00    -0.005 A 
ATOM     25  C   UNL     1      -3.885   3.152  24.478  0.00  0.00    +0.000 A 
ATOM     26  C   UNL     1      -4.647   2.838  24.448  0.00  0.00    +0.037 A 
BRANCH   3   2
ATOM      1  C   UNL     1      -6.017   1.768  25.098  0.00  0.00    +0.252 C 
ATOM      2  O   UNL     1      -5.908   2.586  25.073  0.00  0.00    -0.471 OA
ENDBRANCH   3   2
ENDBRANCH   7   6
ENDBRANCH   8   7
ENDBRANCH   9   8
BRANCH   9  10
ATOM     10  C   UNL     1      -1.269   3.003  25.792  0.00  0.00    +0.070 C 
BRANCH  10  11
ATOM     11  C   UNL     1      -0.902   2.341  25.466  0.00  0.00    +0.102 A 
ATOM     12  N   UNL     1      -0.202   2.339  25.029  0.00  0.00    -0.081 NA
ATOM     13  O   UNL     1      -0.038   1.560  24.813  0.00  0.00    -0.352 OA
ATOM     14  C   UNL     1      -0.637   1.079  25.115  0.00  0.00    +0.194 A 
ATOM     15  C   UNL     1      -1.171   1.562  25.518  0.00  0.00    +0.060 A 
BRANCH  14  16
ATOM     16  C   UNL     1      -0.693   0.261  25.029  0.00  0.00    +0.118 A 
ATOM     17  N   UNL     1      -0.310  -0.115  24.402  0.00  0.00    -0.241 NA
ATOM     18  C   UNL     1      -0.365  -0.933  24.316  0.00  0.00    +0.099 A 
ATOM     19  C   UNL     1      -0.804  -1.376  24.857  0.00  0.00    +0.021 A 
ATOM     20  C   UNL     1      -1.186  -1.001  25.483  0.00  0.00    +0.003 A 
ATOM     21  C   UNL     1      -1.130  -0.182  25.569  0.00  0.00    +0.022 A 
ENDBRANCH  14  16
ENDBRANCH  10  11
ENDBRANCH   9  10
TORSDOF 7
ENDMDL
