MODEL 1
REMARK VINA RESULT:     -10.9      0.000      0.000
REMARK  Name = 
REMARK  3 active torsions:
REMARK  status: ('A' for Active; 'I' for Inactive)
REMARK    1  A    between atoms: O_2  and  C_3
REMARK    2  A    between atoms: C_6  and  C_9
REMARK    3  A    between atoms: C_12  and  C_14
REMARK                            x       y       z     vdW  Elec       q    Type
REMARK                         _______ _______ _______ _____ _____    ______ ____
ROOT
ATOM      9  C   UNL     1      -3.829   0.832  24.638  0.00  0.00    +0.203 A 
ATOM     10  N   UNL     1      -4.418   1.291  24.287  0.00  0.00    -0.056 NA
ATOM     11  O   UNL     1      -4.203   2.083  24.365  0.00  0.00    -0.336 OA
ATOM     12  C   UNL     1      -3.482   2.115  24.764  0.00  0.00    +0.251 A 
ATOM     13  N   UNL     1      -3.250   1.341  24.932  0.00  0.00    -0.190 NA
ENDROOT
BRANCH  12  14
ATOM     14  C   UNL     1      -3.065   2.799  24.959  0.00  0.00    +0.144 C 
ATOM     15  C   UNL     1      -2.293   2.903  24.689  0.00  0.00    +0.073 C 
ATOM     16  C   UNL     1      -1.876   3.588  24.884  0.00  0.00    +0.077 A 
ATOM     17  C   UNL     1      -2.231   4.168  25.350  0.00  0.00    +0.090 A 
ATOM     18  C   UNL     1      -3.004   4.064  25.621  0.00  0.00    +0.120 C 
ATOM     19  N   UNL     1      -3.420   3.379  25.425  0.00  0.00    -0.260 NA
ATOM     20  C   UNL     1      -4.193   3.275  25.696  0.00  0.00    +0.090 C 
ATOM     21  N   UNL     1      -1.689   4.780  25.453  0.00  0.00    -0.226 NA
ATOM     22  C   UNL     1      -0.998   4.579  25.051  0.00  0.00    +0.198 A 
ATOM     23  N   UNL     1      -1.114   3.842  24.699  0.00  0.00    -0.227 NA
ENDBRANCH  12  14
BRANCH   9   6
ATOM      3  C   UNL     1      -3.800  -1.639  24.784  0.00  0.00    +0.139 A 
ATOM      4  C   UNL     1      -3.614  -1.184  25.447  0.00  0.00    +0.037 A 
ATOM      5  C   UNL     1      -3.623  -0.361  25.398  0.00  0.00    +0.006 A 
ATOM      6  C   UNL     1      -3.820   0.008  24.686  0.00  0.00    +0.039 A 
ATOM      7  C   UNL     1      -4.006  -0.446  24.024  0.00  0.00    +0.006 A 
ATOM      8  C   UNL     1      -3.997  -1.270  24.072  0.00  0.00    +0.037 A 
BRANCH   3   2
ATOM      1  C   UNL     1      -3.141  -2.885  24.549  0.00  0.00    +0.252 C 
ATOM      2  O   UNL     1      -3.791  -2.462  24.832  0.00  0.00    -0.471 OA
ENDBRANCH   3   2
ENDBRANCH   9   6
TORSDOF 3
ENDMDL
MODEL 2
REMARK VINA RESULT:     -10.2      1.624      2.222
REMARK  Name = 
REMARK  3 active torsions:
REMARK  status: ('A' for Active; 'I' for Inactive)
REMARK    1  A    between atoms: O_2  and  C_3
REMARK    2  A    between atoms: C_6  and  C_9
REMARK    3  A    between atoms: C_12  and  C_14
REMARK                            x       y       z     vdW  Elec       q    Type
REMARK                         _______ _______ _______ _____ _____    ______ ____
ROOT
ATOM      9  C   UNL     1      -1.752  -0.014  25.370  0.00  0.00    +0.203 A 
ATOM     10  N   UNL     1      -1.085  -0.007  25.854  0.00  0.00    -0.056 NA
ATOM     11  O   UNL     1      -0.776   0.758  25.851  0.00  0.00    -0.336 OA
ATOM     12  C   UNL     1      -1.252   1.224  25.366  0.00  0.00    +0.251 A 
ATOM     13  N   UNL     1      -1.857   0.747  25.068  0.00  0.00    -0.190 NA
ENDROOT
BRANCH  12  14
ATOM     14  C   UNL     1      -1.144   2.026  25.206  0.00  0.00    +0.144 C 
ATOM     15  C   UNL     1      -1.649   2.585  25.541  0.00  0.00    +0.073 C 
ATOM     16  C   UNL     1      -1.541   3.387  25.381  0.00  0.00    +0.077 A 
ATOM     17  C   UNL     1      -0.928   3.630  24.886  0.00  0.00    +0.090 A 
ATOM     18  C   UNL     1      -0.422   3.070  24.551  0.00  0.00    +0.120 C 
ATOM     19  N   UNL     1      -0.531   2.268  24.711  0.00  0.00    -0.260 NA
ATOM     20  C   UNL     1      -0.025   1.709  24.376  0.00  0.00    +0.090 C 
ATOM     21  N   UNL     1      -0.956   4.452  24.829  0.00  0.00    -0.226 NA
ATOM     22  C   UNL     1      -1.587   4.718  25.289  0.00  0.00    +0.198 A 
ATOM     23  N   UNL     1      -1.948   4.059  25.630  0.00  0.00    -0.227 NA
ENDBRANCH  12  14
BRANCH   9   6
ATOM      3  C   UNL     1      -3.192  -1.973  24.902  0.00  0.00    +0.139 A 
ATOM      4  C   UNL     1      -2.413  -1.958  24.629  0.00  0.00    +0.037 A 
ATOM      5  C   UNL     1      -1.934  -1.305  24.785  0.00  0.00    +0.006 A 
ATOM      6  C   UNL     1      -2.233  -0.667  25.215  0.00  0.00    +0.039 A 
ATOM      7  C   UNL     1      -3.010  -0.682  25.488  0.00  0.00    +0.006 A 
ATOM      8  C   UNL     1      -3.491  -1.334  25.332  0.00  0.00    +0.037 A 
BRANCH   3   2
ATOM      1  C   UNL     1      -4.075  -2.679  24.028  0.00  0.00    +0.252 C 
ATOM      2  O   UNL     1      -3.671  -2.625  24.746  0.00  0.00    -0.471 OA
ENDBRANCH   3   2
ENDBRANCH   9   6
TORSDOF 3
ENDMDL
MODEL 3
REMARK VINA RESULT:      -9.8      1.981      4.940
REMARK  Name = 
REMARK  3 active torsions:
REMARK  status: ('A' for Active; 'I' for Inactive)
REMARK    1  A    between atoms: O_2  and  C_3
REMARK    2  A    between atoms: C_6  and  C_9
REMARK    3  A    between atoms: C_12  and  C_14
REMARK                            x       y       z     vdW  Elec       q    Type
REMARK                         _______ _______ _______ _____ _____    ______ ____
ROOT
ATOM      9  C   UNL     1      -4.104   1.559  24.493  0.00  0.00    +0.203 A 
ATOM     10  N   UNL     1      -3.680   1.602  23.788  0.00  0.00    -0.056 NA
ATOM     11  O   UNL     1      -3.332   0.865  23.656  0.00  0.00    -0.336 OA
ATOM     12  C   UNL     1      -3.541   0.368  24.279  0.00  0.00    +0.251 A 
ATOM     13  N   UNL     1      -4.019   0.796  24.798  0.00  0.00    -0.190 NA
ENDROOT
BRANCH  12  14
ATOM     14  C   UNL     1      -3.312  -0.419  24.369  0.00  0.00    +0.144 C 
ATOM     15  C   UNL     1      -3.846  -1.025  24.202  0.00  0.00    +0.073 C 
ATOM     16  C   UNL     1      -3.618  -1.813  24.292  0.00  0.00    +0.077 A 
ATOM     17  C   UNL     1      -2.855  -1.995  24.548  0.00  0.00    +0.090 A 
ATOM     18  C   UNL     1      -2.320  -1.388  24.715  0.00  0.00    +0.120 C 
ATOM     19  N   UNL     1      -2.549  -0.601  24.625  0.00  0.00    -0.260 NA
ATOM     20  C   UNL     1      -2.015   0.005  24.792  0.00  0.00    +0.090 C 
ATOM     21  N   UNL     1      -2.787  -2.815  24.585  0.00  0.00    -0.226 NA
ATOM     22  C   UNL     1      -3.507  -3.142  24.352  0.00  0.00    +0.198 A 
ATOM     23  N   UNL     1      -4.020  -2.522  24.171  0.00  0.00    -0.227 NA
ENDBRANCH  12  14
BRANCH   9   6
ATOM      3  C   UNL     1      -5.410   3.394  25.522  0.00  0.00    +0.139 A 
ATOM      4  C   UNL     1      -5.762   2.659  25.392  0.00  0.00    +0.037 A 
ATOM      5  C   UNL     1      -5.327   2.048  25.049  0.00  0.00    +0.006 A 
ATOM      6  C   UNL     1      -4.539   2.171  24.837  0.00  0.00    +0.039 A 
ATOM      7  C   UNL     1      -4.187   2.905  24.966  0.00  0.00    +0.006 A 
ATOM      8  C   UNL     1      -4.622   3.517  25.309  0.00  0.00    +0.037 A 
BRANCH   3   2
ATOM      1  C   UNL     1      -5.875   4.744  25.500  0.00  0.00    +0.252 C 
ATOM      2  O   UNL     1      -5.844   4.005  25.865  0.00  0.00    -0.471 OA
ENDBRANCH   3   2
ENDBRANCH   9   6
TORSDOF 3
ENDMDL
MODEL 4
REMARK VINA RESULT:      -9.8      1.243      2.115
REMARK  Name = 
REMARK  3 active torsions:
REMARK  status: ('A' for Active; 'I' for Inactive)
REMARK    1  A    between atoms: O_2  and  C_3
REMARK    2  A    between atoms: C_6  and  C_9
REMARK    3  A    between atoms: C_12  and  C_14
REMARK                            x       y       z     vdW  Elec       q    Type
REMARK                         _______ _______ _______ _____ _____    ______ ____
ROOT
ATOM      9  C   UNL     1      -3.660   0.153  24.261  0.00  0.00    +0.203 A 
ATOM     10  N   UNL     1      -3.392   0.518  23.572  0.00  0.00    -0.056 NA
ATOM     11  O   UNL     1      -3.513   1.330  23.651  0.00  0.00    -0.336 OA
ATOM     12  C   UNL     1      -3.855   1.468  24.388  0.00  0.00    +0.251 A 
ATOM     13  N   UNL     1      -3.947   0.740  24.766  0.00  0.00    -0.190 NA
ENDROOT
BRANCH  12  14
ATOM     14  C   UNL     1      -4.068   2.203  24.694  0.00  0.00    +0.144 C 
ATOM     15  C   UNL     1      -4.852   2.352  24.902  0.00  0.00    +0.073 C 
ATOM     16  C   UNL     1      -5.066   3.088  25.208  0.00  0.00    +0.077 A 
ATOM     17  C   UNL     1      -4.495   3.675  25.307  0.00  0.00    +0.090 A 
ATOM     18  C   UNL     1      -3.710   3.526  25.099  0.00  0.00    +0.120 C 
ATOM     19  N   UNL     1      -3.497   2.790  24.793  0.00  0.00    -0.260 NA
ATOM     20  C   UNL     1      -2.713   2.642  24.585  0.00  0.00    +0.090 C 
ATOM     21  N   UNL     1      -4.866   4.342  25.619  0.00  0.00    -0.226 NA
ATOM     22  C   UNL     1      -5.666   4.167  25.714  0.00  0.00    +0.198 A 
ATOM     23  N   UNL     1      -5.789   3.392  25.460  0.00  0.00    -0.227 NA
ENDBRANCH  12  14
BRANCH   9   6
ATOM      3  C   UNL     1      -3.617  -2.276  24.734  0.00  0.00    +0.139 A 
ATOM      4  C   UNL     1      -4.053  -1.988  24.095  0.00  0.00    +0.037 A 
ATOM      5  C   UNL     1      -4.067  -1.178  23.938  0.00  0.00    +0.006 A 
ATOM      6  C   UNL     1      -3.646  -0.657  24.419  0.00  0.00    +0.039 A 
ATOM      7  C   UNL     1      -3.210  -0.945  25.057  0.00  0.00    +0.006 A 
ATOM      8  C   UNL     1      -3.196  -1.755  25.215  0.00  0.00    +0.037 A 
BRANCH   3   2
ATOM      1  C   UNL     1      -3.271  -3.607  24.344  0.00  0.00    +0.252 C 
ATOM      2  O   UNL     1      -3.603  -3.086  24.891  0.00  0.00    -0.471 OA
ENDBRANCH   3   2
ENDBRANCH   9   6
TORSDOF 3
ENDMDL
MODEL 5
REMARK VINA RESULT:      -9.7      2.230      5.341
REMARK  Name = 
REMARK  3 active torsions:
REMARK  status: ('A' for Active; 'I' for Inactive)
REMARK    1  A    between atoms: O_2  and  C_3
REMARK    2  A    between atoms: C_6  and  C_9
REMARK    3  A    between atoms: C_12  and  C_14
REMARK                            x       y       z     vdW  Elec       q    Type
REMARK                         _______ _______ _______ _____ _____    ______ ____
ROOT
ATOM      9  C   UNL     1      -1.219   1.737  25.445  0.00  0.00    +0.203 A 
ATOM     10  N   UNL     1      -0.628   1.369  25.886  0.00  0.00    -0.056 NA
ATOM     11  O   UNL     1      -0.734   0.553  25.821  0.00  0.00    -0.336 OA
ATOM     12  C   UNL     1      -1.390   0.417  25.341  0.00  0.00    +0.251 A 
ATOM     13  N   UNL     1      -1.691   1.150  25.108  0.00  0.00    -0.190 NA
ENDROOT
BRANCH  12  14
ATOM     14  C   UNL     1      -1.692  -0.320  25.130  0.00  0.00    +0.144 C 
ATOM     15  C   UNL     1      -2.442  -0.548  25.387  0.00  0.00    +0.073 C 
ATOM     16  C   UNL     1      -2.745  -1.286  25.176  0.00  0.00    +0.077 A 
ATOM     17  C   UNL     1      -2.297  -1.796  24.708  0.00  0.00    +0.090 A 
ATOM     18  C   UNL     1      -1.546  -1.569  24.450  0.00  0.00    +0.120 C 
ATOM     19  N   UNL     1      -1.244  -0.831  24.662  0.00  0.00    -0.260 NA
ATOM     20  C   UNL     1      -0.494  -0.604  24.404  0.00  0.00    +0.090 C 
ATOM     21  N   UNL     1      -2.736  -2.484  24.588  0.00  0.00    -0.226 NA
ATOM     22  C   UNL     1      -3.455  -2.399  24.983  0.00  0.00    +0.198 A 
ATOM     23  N   UNL     1      -3.460  -1.658  25.346  0.00  0.00    -0.227 NA
ENDBRANCH  12  14
BRANCH   9   6
ATOM      3  C   UNL     1      -1.531   4.179  25.180  0.00  0.00    +0.139 A 
ATOM      4  C   UNL     1      -1.959   3.768  25.754  0.00  0.00    +0.037 A 
ATOM      5  C   UNL     1      -1.855   2.955  25.842  0.00  0.00    +0.006 A 
ATOM      6  C   UNL     1      -1.323   2.552  25.357  0.00  0.00    +0.039 A 
ATOM      7  C   UNL     1      -0.896   2.962  24.783  0.00  0.00    +0.006 A 
ATOM      8  C   UNL     1      -0.999   3.776  24.694  0.00  0.00    +0.037 A 
BRANCH   3   2
ATOM      1  C   UNL     1      -0.995   5.470  24.887  0.00  0.00    +0.252 C 
ATOM      2  O   UNL     1      -1.635   4.992  25.092  0.00  0.00    -0.471 OA
ENDBRANCH   3   2
ENDBRANCH   9   6
TORSDOF 3
ENDMDL
