REMARK  Name = 
REMARK  4 active torsions:
REMARK  status: ('A' for Active; 'I' for Inactive)
REMARK    1  A    between atoms: C_2  and  C_5
REMARK    2  A    between atoms: C_5  and  C_6
REMARK    3  A    between atoms: C_17  and  N_18
REMARK    4  A    between atoms: N_21  and  C_22
REMARK                            x       y       z     vdW  Elec       q    Type
REMARK                         _______ _______ _______ _____ _____    ______ ____
ROOT
ATOM      6  C   UNL     1       0.125  -2.547   0.000  0.00  0.00    +0.226 C 
ATOM      7  O   UNL     1       0.176  -3.370   0.000  0.00  0.00    -0.275 OA
ATOM      8  N   UNL     1       0.813  -2.091   0.000  0.00  0.00    -0.279 N 
ATOM      9  C   UNL     1       1.629  -1.912   0.000  0.00  0.00    +0.095 C 
ATOM     10  C   UNL     1       1.582  -0.925   0.000  0.00  0.00    +0.043 C 
ATOM     11  C   UNL     1       1.713  -0.121   0.000  0.00  0.00    +0.011 C 
ATOM     12  C   UNL     1       1.163  -0.557   0.000  0.00  0.00    +0.058 C 
ATOM     13  C   UNL     1       1.225  -1.510   0.000  0.00  0.00    +0.099 C 
ATOM     14  C   UNL     1       0.244  -0.558   0.000  0.00  0.00    +0.041 A 
ATOM     15  C   UNL     1      -0.397  -0.039   0.000  0.00  0.00    +0.014 A 
ATOM     16  C   UNL     1      -1.167  -0.335   0.000  0.00  0.00    +0.023 A 
ATOM     17  C   UNL     1      -1.296  -1.150   0.000  0.00  0.00    +0.131 A 
ATOM     28  C   UNL     1      -0.655  -1.669   0.000  0.00  0.00    +0.276 A 
ATOM     29  O   UNL     1      -1.238  -2.252   0.000  0.00  0.00    -0.266 OA
ATOM     30  N   UNL     1       0.115  -1.373   0.000  0.00  0.00    -0.298 N 
ATOM     31  C   UNL     1       0.622  -0.936   0.000  0.00  0.00    +0.110 C 
ENDROOT
BRANCH  17  18
ATOM     18  N   UNL     1      -2.066  -1.445   0.000  0.00  0.00    -0.156 NA
ATOM     19  C   UNL     1      -2.707  -0.926   0.000  0.00  0.00    +0.348 C 
ATOM     20  O   UNL     1      -2.578  -0.111   0.000  0.00  0.00    -0.248 OA
ATOM     21  N   UNL     1      -3.478  -1.222   0.000  0.00  0.00    -0.161 NA
BRANCH  21  22
ATOM     22  C   UNL     1      -4.119  -0.703   0.000  0.00  0.00    +0.075 A 
ATOM     23  C   UNL     1      -4.889  -0.999   0.000  0.00  0.00    +0.017 A 
ATOM     24  C   UNL     1      -5.530  -0.480   0.000  0.00  0.00    +0.001 A 
ATOM     25  C   UNL     1      -5.401   0.335   0.000  0.00  0.00    +0.000 A 
ATOM     26  C   UNL     1      -4.631   0.631   0.000  0.00  0.00    +0.001 A 
ATOM     27  C   UNL     1      -3.990   0.112   0.000  0.00  0.00    +0.017 A 
ENDBRANCH  21  22
ENDBRANCH  17  18
BRANCH   6   5
ATOM      5  C   UNL     1      -0.614  -2.179   0.000  0.00  0.00    +0.085 C 
BRANCH   5   2
ATOM      1  C   UNL     1      -1.989  -3.091   0.000  0.00  0.00    +0.000 C 
ATOM      2  C   UNL     1      -1.301  -2.635   0.000  0.00  0.00    +0.009 C 
ATOM      3  C   UNL     1      -0.846  -3.323   0.000  0.00  0.00    +0.000 C 
ATOM      4  C   UNL     1      -1.757  -1.947   0.000  0.00  0.00    +0.000 C 
ENDBRANCH   5   2
ENDBRANCH   6   5
TORSDOF 4
