MODEL 1
REMARK VINA RESULT:     -12.3      0.000      0.000
REMARK  Name = 
REMARK  3 active torsions:
REMARK  status: ('A' for Active; 'I' for Inactive)
REMARK    1  A    between atoms: C_7  and  C_9
REMARK    2  A    between atoms: N_12  and  C_13
REMARK    3  A    between atoms: C_13  and  C_14
REMARK                            x       y       z     vdW  Elec       q    Type
REMARK                         _______ _______ _______ _____ _____    ______ ____
ROOT
ATOM      9  C   UNL     1      -4.465   1.105  24.847  0.00  0.00    +0.094 C 
ATOM     10  C   UNL     1      -5.116   1.419  25.245  0.00  0.00    +0.028 C 
ATOM     11  C   UNL     1      -5.075   2.241  25.195  0.00  0.00    +0.073 C 
ATOM     12  N   UNL     1      -4.397   2.436  24.766  0.00  0.00    -0.267 NA
ATOM     20  C   UNL     1      -4.021   1.733  24.552  0.00  0.00    +0.082 C 
ENDROOT
BRANCH   9   7
ATOM      1  C   UNL     1      -3.174  -3.004  25.133  0.00  0.00    +0.031 C 
ATOM      2  C   UNL     1      -3.520  -2.314  24.844  0.00  0.00    -0.020 A 
ATOM      3  C   UNL     1      -3.479  -1.617  25.282  0.00  0.00    +0.018 A 
ATOM      4  C   UNL     1      -3.825  -0.926  24.993  0.00  0.00    +0.118 A 
ATOM      5  C   UNL     1      -4.213  -0.933  24.266  0.00  0.00    +0.164 A 
ATOM      6  O   UNL     1      -4.500  -0.174  24.122  0.00  0.00    -0.438 OA
ATOM      7  C   UNL     1      -4.290   0.303  24.761  0.00  0.00    +0.207 A 
ATOM      8  N   UNL     1      -3.872  -0.162  25.299  0.00  0.00    -0.212 NA
ATOM     21  C   UNL     1      -4.256  -1.631  23.827  0.00  0.00    +0.039 A 
ATOM     22  C   UNL     1      -3.909  -2.321  24.117  0.00  0.00    -0.001 A 
ENDBRANCH   9   7
BRANCH  12  13
ATOM     13  C   UNL     1      -4.141   3.198  24.583  0.00  0.00    +0.119 C 
BRANCH  13  14
ATOM     14  C   UNL     1      -3.491   3.520  24.976  0.00  0.00    +0.075 A 
ATOM     15  N   UNL     1      -2.741   3.484  24.632  0.00  0.00    -0.247 NA
ATOM     16  C   UNL     1      -2.092   3.806  25.026  0.00  0.00    +0.098 A 
ATOM     17  C   UNL     1      -2.191   4.165  25.762  0.00  0.00    +0.021 A 
ATOM     18  C   UNL     1      -2.940   4.201  26.106  0.00  0.00    +0.003 A 
ATOM     19  C   UNL     1      -3.591   3.879  25.713  0.00  0.00    +0.016 A 
ENDBRANCH  13  14
ENDBRANCH  12  13
TORSDOF 3
ENDMDL
MODEL 2
REMARK VINA RESULT:     -11.5      1.208      5.030
REMARK  Name = 
REMARK  3 active torsions:
REMARK  status: ('A' for Active; 'I' for Inactive)
REMARK    1  A    between atoms: C_7  and  C_9
REMARK    2  A    between atoms: N_12  and  C_13
REMARK    3  A    between atoms: C_13  and  C_14
REMARK                            x       y       z     vdW  Elec       q    Type
REMARK                         _______ _______ _______ _____ _____    ______ ____
ROOT
ATOM      9  C   UNL     1      -3.245   1.498  24.344  0.00  0.00    +0.094 C 
ATOM     10  C   UNL     1      -3.200   1.163  23.592  0.00  0.00    +0.028 C 
ATOM     11  C   UNL     1      -3.624   0.456  23.600  0.00  0.00    +0.073 C 
ATOM     12  N   UNL     1      -3.931   0.352  24.358  0.00  0.00    -0.267 NA
ATOM     20  C   UNL     1      -3.697   0.997  24.818  0.00  0.00    +0.082 C 
ENDROOT
BRANCH   9   7
ATOM      1  C   UNL     1      -0.830   5.003  25.061  0.00  0.00    +0.031 C 
ATOM      2  C   UNL     1      -1.449   4.460  25.105  0.00  0.00    -0.020 A 
ATOM      3  C   UNL     1      -1.428   3.773  24.651  0.00  0.00    +0.018 A 
ATOM      4  C   UNL     1      -2.047   3.229  24.695  0.00  0.00    +0.118 A 
ATOM      5  C   UNL     1      -2.688   3.374  25.194  0.00  0.00    +0.164 A 
ATOM      6  O   UNL     1      -3.215   2.744  25.124  0.00  0.00    -0.438 OA
ATOM      7  C   UNL     1      -2.900   2.209  24.581  0.00  0.00    +0.207 A 
ATOM      8  N   UNL     1      -2.179   2.509  24.316  0.00  0.00    -0.212 NA
ATOM     21  C   UNL     1      -2.709   4.063  25.649  0.00  0.00    +0.039 A 
ATOM     22  C   UNL     1      -2.089   4.605  25.604  0.00  0.00    -0.001 A 
ENDBRANCH   9   7
BRANCH  12  13
ATOM     13  C   UNL     1      -4.392  -0.283  24.613  0.00  0.00    +0.119 C 
BRANCH  13  14
ATOM     14  C   UNL     1      -4.058  -1.035  24.678  0.00  0.00    +0.075 A 
ATOM     15  N   UNL     1      -3.638  -1.243  25.358  0.00  0.00    -0.247 NA
ATOM     16  C   UNL     1      -3.305  -1.994  25.422  0.00  0.00    +0.098 A 
ATOM     17  C   UNL     1      -3.391  -2.539  24.808  0.00  0.00    +0.021 A 
ATOM     18  C   UNL     1      -3.811  -2.331  24.129  0.00  0.00    +0.003 A 
ATOM     19  C   UNL     1      -4.145  -1.579  24.064  0.00  0.00    +0.016 A 
ENDBRANCH  13  14
ENDBRANCH  12  13
TORSDOF 3
ENDMDL
MODEL 3
REMARK VINA RESULT:     -11.5      1.694      2.349
REMARK  Name = 
REMARK  3 active torsions:
REMARK  status: ('A' for Active; 'I' for Inactive)
REMARK    1  A    between atoms: C_7  and  C_9
REMARK    2  A    between atoms: N_12  and  C_13
REMARK    3  A    between atoms: C_13  and  C_14
REMARK                            x       y       z     vdW  Elec       q    Type
REMARK                         _______ _______ _______ _____ _____    ______ ____
ROOT
ATOM      9  C   UNL     1      -1.590   0.844  24.783  0.00  0.00    +0.094 C 
ATOM     10  C   UNL     1      -0.914   0.998  24.337  0.00  0.00    +0.028 C 
ATOM     11  C   UNL     1      -0.541   1.660  24.658  0.00  0.00    +0.073 C 
ATOM     12  N   UNL     1      -0.988   1.916  25.303  0.00  0.00    -0.267 NA
ATOM     20  C   UNL     1      -1.636   1.411  25.380  0.00  0.00    +0.082 C 
ENDROOT
BRANCH   9   7
ATOM      1  C   UNL     1      -3.787  -2.852  24.395  0.00  0.00    +0.031 C 
ATOM      2  C   UNL     1      -3.601  -2.049  24.370  0.00  0.00    -0.020 A 
ATOM      3  C   UNL     1      -2.859  -1.790  24.617  0.00  0.00    +0.018 A 
ATOM      4  C   UNL     1      -2.672  -0.986  24.593  0.00  0.00    +0.118 A 
ATOM      5  C   UNL     1      -3.230  -0.442  24.322  0.00  0.00    +0.164 A 
ATOM      6  O   UNL     1      -2.893   0.309  24.360  0.00  0.00    -0.438 OA
ATOM      7  C   UNL     1      -2.127   0.230  24.654  0.00  0.00    +0.207 A 
ATOM      8  N   UNL     1      -1.991  -0.571  24.798  0.00  0.00    -0.212 NA
ATOM     21  C   UNL     1      -3.974  -0.702  24.075  0.00  0.00    +0.039 A 
ATOM     22  C   UNL     1      -4.159  -1.505  24.099  0.00  0.00    -0.001 A 
ENDBRANCH   9   7
BRANCH  12  13
ATOM     13  C   UNL     1      -0.817   2.562  25.786  0.00  0.00    +0.119 C 
BRANCH  13  14
ATOM     14  C   UNL     1      -1.133   3.304  25.610  0.00  0.00    +0.075 A 
ATOM     15  N   UNL     1      -1.890   3.502  25.872  0.00  0.00    -0.247 NA
ATOM     16  C   UNL     1      -2.205   4.244  25.696  0.00  0.00    +0.098 A 
ATOM     17  C   UNL     1      -1.764   4.788  25.260  0.00  0.00    +0.021 A 
ATOM     18  C   UNL     1      -1.007   4.589  24.998  0.00  0.00    +0.003 A 
ATOM     19  C   UNL     1      -0.691   3.847  25.174  0.00  0.00    +0.016 A 
ENDBRANCH  13  14
ENDBRANCH  12  13
TORSDOF 3
ENDMDL
