MODEL 1
REMARK VINA RESULT:     -10.8      0.000      0.000
REMARK  Name = 
REMARK  3 active torsions:
REMARK  status: ('A' for Active; 'I' for Inactive)
REMARK    1  A    between atoms: C_2  and  C_3
REMARK    2  A    between atoms: C_3  and  C_4
REMARK    3  A    between atoms: C_17  and  N_25
REMARK                            x       y       z     vdW  Elec       q    Type
REMARK                         _______ _______ _______ _____ _____    ______ ____
ROOT
ATOM      4  C   UNL     1       0.510   0.100  23.740  0.00  0.00    +0.012 C 
ATOM      5  C   UNL     1       0.482  -0.712  23.880  0.00  0.00    +0.022 C 
ATOM      6  C   UNL     1      -0.214  -1.059  24.156  0.00  0.00    +0.093 C 
ATOM      7  N   UNL     1      -0.884  -0.670  24.304  0.00  0.00    -0.278 N 
ATOM      8  C   UNL     1      -0.854   0.219  24.150  0.00  0.00    +0.093 C 
ATOM      9  C   UNL     1      -0.330   0.802  23.890  0.00  0.00    +0.021 C 
ATOM     10  C   UNL     1      -0.730   1.525  23.899  0.00  0.00    +0.006 C 
ATOM     11  C   UNL     1      -1.499   1.387  24.163  0.00  0.00    +0.047 C 
ATOM     12  C   UNL     1      -2.266   1.831  24.333  0.00  0.00    +0.205 C 
ATOM     13  O   UNL     1      -2.708   1.198  24.575  0.00  0.00    -0.476 OA
ATOM     14  C   UNL     1      -2.940   0.638  24.738  0.00  0.00    +0.136 A 
ATOM     15  C   UNL     1      -2.946   1.453  24.608  0.00  0.00    +0.038 A 
ATOM     16  C   UNL     1      -3.631   1.889  24.753  0.00  0.00    +0.018 A 
ATOM     17  C   UNL     1      -4.311   1.510  25.029  0.00  0.00    +0.048 A 
ATOM     18  C   UNL     1      -4.304   0.695  25.159  0.00  0.00    +0.015 A 
ATOM     19  C   UNL     1      -3.620   0.259  25.014  0.00  0.00    +0.030 A 
ATOM     20  C   UNL     1      -3.614  -0.555  25.144  0.00  0.00    +0.119 C 
ATOM     21  N   UNL     1      -2.928  -0.992  24.999  0.00  0.00    -0.204 NA
ATOM     22  C   UNL     1      -2.249  -0.612  24.724  0.00  0.00    +0.174 C 
ATOM     23  C   UNL     1      -1.564  -1.048  24.579  0.00  0.00    +0.243 C 
ATOM     24  O   UNL     1      -1.559  -1.863  24.710  0.00  0.00    -0.273 OA
ENDROOT
BRANCH  17  25
ATOM     25  N   UNL     1      -4.995   1.946  25.173  0.00  0.00    -0.305 N 
ATOM     26  C   UNL     1      -4.948   2.674  25.560  0.00  0.00    +0.110 C 
ATOM     27  C   UNL     1      -5.633   3.110  25.704  0.00  0.00    +0.110 C 
ATOM     28  N   UNL     1      -6.366   2.819  25.463  0.00  0.00    -0.214 NA
ATOM     29  C   UNL     1      -6.414   2.091  25.077  0.00  0.00    +0.110 C 
ATOM     30  C   UNL     1      -5.729   1.655  24.932  0.00  0.00    +0.110 C 
ENDBRANCH  17  25
BRANCH   4   3
ATOM      3  C   UNL     1       1.222   0.414  23.465  0.00  0.00    +0.085 C 
BRANCH   3   2
ATOM      1  O   UNL     1       1.142  -0.393  22.287  0.00  0.00    -0.275 OA
ATOM      2  C   UNL     1       1.573   0.105  22.784  0.00  0.00    +0.226 C 
ATOM     31  N   UNL     1       2.354   0.295  22.601  0.00  0.00    -0.274 N 
ATOM     32  C   UNL     1       2.706  -0.014  21.921  0.00  0.00    +0.125 C 
ATOM     33  C   UNL     1       3.487   0.176  21.738  0.00  0.00    +0.164 C 
ATOM     34  O   UNL     1       3.918   0.674  22.235  0.00  0.00    -0.350 OA
ATOM     35  C   UNL     1       3.567   0.982  22.915  0.00  0.00    +0.164 C 
ATOM     36  C   UNL     1       2.785   0.793  23.098  0.00  0.00    +0.125 C 
ENDBRANCH   3   2
ENDBRANCH   4   3
TORSDOF 3
ENDMDL
MODEL 2
REMARK VINA RESULT:      -9.9      1.169      6.231
REMARK  Name = 
REMARK  3 active torsions:
REMARK  status: ('A' for Active; 'I' for Inactive)
REMARK    1  A    between atoms: C_2  and  C_3
REMARK    2  A    between atoms: C_3  and  C_4
REMARK    3  A    between atoms: C_17  and  N_25
REMARK                            x       y       z     vdW  Elec       q    Type
REMARK                         _______ _______ _______ _____ _____    ______ ____
ROOT
ATOM      4  C   UNL     1      -4.034   0.882  24.650  0.00  0.00    +0.012 C 
ATOM      5  C   UNL     1      -4.202   0.169  25.030  0.00  0.00    +0.022 C 
ATOM      6  C   UNL     1      -3.618  -0.410  25.095  0.00  0.00    +0.093 C 
ATOM      7  N   UNL     1      -2.883  -0.344  24.817  0.00  0.00    -0.278 N 
ATOM      8  C   UNL     1      -2.699   0.436  24.402  0.00  0.00    +0.093 C 
ATOM      9  C   UNL     1      -3.062   1.151  24.200  0.00  0.00    +0.021 C 
ATOM     10  C   UNL     1      -2.506   1.614  23.802  0.00  0.00    +0.006 C 
ATOM     11  C   UNL     1      -1.802   1.186  23.759  0.00  0.00    +0.047 C 
ATOM     12  C   UNL     1      -0.960   1.261  23.441  0.00  0.00    +0.205 C 
ATOM     13  O   UNL     1      -0.688   0.537  23.678  0.00  0.00    -0.476 OA
ATOM     14  C   UNL     1      -0.601  -0.039  23.909  0.00  0.00    +0.136 A 
ATOM     15  C   UNL     1      -0.400   0.662  23.524  0.00  0.00    +0.038 A 
ATOM     16  C   UNL     1       0.361   0.763  23.221  0.00  0.00    +0.018 A 
ATOM     17  C   UNL     1       0.921   0.163  23.304  0.00  0.00    +0.048 A 
ATOM     18  C   UNL     1       0.720  -0.539  23.690  0.00  0.00    +0.015 A 
ATOM     19  C   UNL     1      -0.040  -0.640  23.993  0.00  0.00    +0.030 A 
ATOM     20  C   UNL     1      -0.240  -1.341  24.378  0.00  0.00    +0.119 C 
ATOM     21  N   UNL     1      -1.002  -1.443  24.681  0.00  0.00    -0.204 NA
ATOM     22  C   UNL     1      -1.562  -0.842  24.597  0.00  0.00    +0.174 C 
ATOM     23  C   UNL     1      -2.323  -0.943  24.900  0.00  0.00    +0.243 C 
ATOM     24  O   UNL     1      -2.523  -1.645  25.285  0.00  0.00    -0.273 OA
ENDROOT
BRANCH  17  25
ATOM     25  N   UNL     1       1.682   0.264  23.002  0.00  0.00    -0.305 N 
ATOM     26  C   UNL     1       2.211   0.773  23.378  0.00  0.00    +0.110 C 
ATOM     27  C   UNL     1       2.972   0.874  23.075  0.00  0.00    +0.110 C 
ATOM     28  N   UNL     1       3.204   0.467  22.396  0.00  0.00    -0.214 NA
ATOM     29  C   UNL     1       2.674  -0.042  22.020  0.00  0.00    +0.110 C 
ATOM     30  C   UNL     1       1.913  -0.143  22.323  0.00  0.00    +0.110 C 
ENDBRANCH  17  25
BRANCH   4   3
ATOM      3  C   UNL     1      -4.641   1.439  24.602  0.00  0.00    +0.085 C 
BRANCH   3   2
ATOM      1  O   UNL     1      -5.373   0.965  25.736  0.00  0.00    -0.275 OA
ATOM      2  C   UNL     1      -5.116   1.589  25.261  0.00  0.00    +0.226 C 
ATOM     31  N   UNL     1      -5.332   2.363  25.445  0.00  0.00    -0.274 N 
ATOM     32  C   UNL     1      -5.806   2.515  26.103  0.00  0.00    +0.125 C 
ATOM     33  C   UNL     1      -6.023   3.289  26.286  0.00  0.00    +0.164 C 
ATOM     34  O   UNL     1      -5.766   3.913  25.812  0.00  0.00    -0.350 OA
ATOM     35  C   UNL     1      -5.292   3.762  25.154  0.00  0.00    +0.164 C 
ATOM     36  C   UNL     1      -5.075   2.988  24.970  0.00  0.00    +0.125 C 
ENDBRANCH   3   2
ENDBRANCH   4   3
TORSDOF 3
ENDMDL
MODEL 3
REMARK VINA RESULT:      -7.5      1.458      2.375
REMARK  Name = 
REMARK  3 active torsions:
REMARK  status: ('A' for Active; 'I' for Inactive)
REMARK    1  A    between atoms: C_2  and  C_3
REMARK    2  A    between atoms: C_3  and  C_4
REMARK    3  A    between atoms: C_17  and  N_25
REMARK                            x       y       z     vdW  Elec       q    Type
REMARK                         _______ _______ _______ _____ _____    ______ ____
ROOT
ATOM      4  C   UNL     1       0.368   1.420  23.886  0.00  0.00    +0.012 C 
ATOM      5  C   UNL     1       0.696   2.160  24.049  0.00  0.00    +0.022 C 
ATOM      6  C   UNL     1       0.219   2.766  24.342  0.00  0.00    +0.093 C 
ATOM      7  N   UNL     1      -0.554   2.702  24.487  0.00  0.00    -0.278 N 
ATOM      8  C   UNL     1      -0.912   1.893  24.309  0.00  0.00    +0.093 C 
ATOM      9  C   UNL     1      -0.693   1.148  24.027  0.00  0.00    +0.021 C 
ATOM     10  C   UNL     1      -1.367   0.671  24.020  0.00  0.00    +0.006 C 
ATOM     11  C   UNL     1      -2.000   1.121  24.298  0.00  0.00    +0.047 C 
ATOM     12  C   UNL     1      -2.885   1.048  24.464  0.00  0.00    +0.205 C 
ATOM     13  O   UNL     1      -3.008   1.803  24.729  0.00  0.00    -0.476 OA
ATOM     14  C   UNL     1      -2.974   2.403  24.910  0.00  0.00    +0.136 A 
ATOM     15  C   UNL     1      -3.333   1.676  24.758  0.00  0.00    +0.038 A 
ATOM     16  C   UNL     1      -4.140   1.576  24.899  0.00  0.00    +0.018 A 
ATOM     17  C   UNL     1      -4.588   2.204  25.193  0.00  0.00    +0.048 A 
ATOM     18  C   UNL     1      -4.229   2.931  25.345  0.00  0.00    +0.015 A 
ATOM     19  C   UNL     1      -3.422   3.031  25.204  0.00  0.00    +0.030 A 
ATOM     20  C   UNL     1      -3.064   3.758  25.357  0.00  0.00    +0.119 C 
ATOM     21  N   UNL     1      -2.257   3.857  25.216  0.00  0.00    -0.204 NA
ATOM     22  C   UNL     1      -1.809   3.229  24.922  0.00  0.00    +0.174 C 
ATOM     23  C   UNL     1      -1.002   3.329  24.781  0.00  0.00    +0.243 C 
ATOM     24  O   UNL     1      -0.644   4.056  24.934  0.00  0.00    -0.273 OA
ENDROOT
BRANCH  17  25
ATOM     25  N   UNL     1      -5.394   2.104  25.334  0.00  0.00    -0.305 N 
ATOM     26  C   UNL     1      -5.909   1.963  24.705  0.00  0.00    +0.110 C 
ATOM     27  C   UNL     1      -6.716   1.864  24.846  0.00  0.00    +0.110 C 
ATOM     28  N   UNL     1      -7.008   1.904  25.616  0.00  0.00    -0.214 NA
ATOM     29  C   UNL     1      -6.493   2.045  26.245  0.00  0.00    +0.110 C 
ATOM     30  C   UNL     1      -5.686   2.145  26.104  0.00  0.00    +0.110 C 
ENDBRANCH  17  25
BRANCH   4   3
ATOM      3  C   UNL     1       0.874   0.837  23.594  0.00  0.00    +0.085 C 
BRANCH   3   2
ATOM      1  O   UNL     1       2.046   1.552  23.992  0.00  0.00    -0.275 OA
ATOM      2  C   UNL     1       1.680   0.996  23.505  0.00  0.00    +0.226 C 
ATOM     31  N   UNL     1       2.117   0.599  22.930  0.00  0.00    -0.274 N 
ATOM     32  C   UNL     1       2.922   0.757  22.841  0.00  0.00    +0.125 C 
ATOM     33  C   UNL     1       3.359   0.360  22.266  0.00  0.00    +0.164 C 
ATOM     34  O   UNL     1       2.993  -0.196  21.779  0.00  0.00    -0.350 OA
ATOM     35  C   UNL     1       2.188  -0.355  21.868  0.00  0.00    +0.164 C 
ATOM     36  C   UNL     1       1.750   0.042  22.443  0.00  0.00    +0.125 C 
ENDBRANCH   3   2
ENDBRANCH   4   3
TORSDOF 3
ENDMDL
