REMARK  Name = 
REMARK  5 active torsions:
REMARK  status: ('A' for Active; 'I' for Inactive)
REMARK    1  A    between atoms: C_1  and  N_2
REMARK    2  A    between atoms: C_1  and  C_23
REMARK    3  A    between atoms: C_6  and  C_7
REMARK    4  A    between atoms: C_9  and  C_12
REMARK    5  A    between atoms: C_16  and  N_18
REMARK                            x       y       z     vdW  Elec       q    Type
REMARK                         _______ _______ _______ _____ _____    ______ ____
ROOT
ATOM      7  C   UNL     1       0.585  -1.529   0.000  0.00  0.00    +0.251 A 
ATOM      8  N   UNL     1      -0.083  -2.014   0.000  0.00  0.00    -0.190 NA
ATOM      9  C   UNL     1      -0.750  -1.529   0.000  0.00  0.00    +0.203 A 
ATOM     10  N   UNL     1      -0.495  -0.745   0.000  0.00  0.00    -0.056 NA
ATOM     11  O   UNL     1       0.330  -0.745   0.000  0.00  0.00    -0.336 OA
ENDROOT
BRANCH   9  12
ATOM     12  C   UNL     1      -1.535  -1.784   0.000  0.00  0.00    +0.043 A 
ATOM     13  C   UNL     1      -1.706  -2.591   0.000  0.00  0.00    +0.024 A 
ATOM     14  C   UNL     1      -2.491  -2.846   0.000  0.00  0.00    +0.100 A 
ATOM     15  N   UNL     1      -3.104  -2.294   0.000  0.00  0.00    -0.229 NA
ATOM     16  C   UNL     1      -2.933  -1.487   0.000  0.00  0.00    +0.132 A 
ATOM     17  C   UNL     1      -2.148  -1.232   0.000  0.00  0.00    +0.037 A 
BRANCH  16  18
ATOM     18  N   UNL     1      -3.546  -0.935   0.000  0.00  0.00    -0.293 N 
ATOM     19  C   UNL     1      -4.353  -1.106   0.000  0.00  0.00    +0.092 C 
ATOM     20  C   UNL     1      -4.765  -0.392   0.000  0.00  0.00    +0.023 C 
ATOM     21  C   UNL     1      -4.213   0.221   0.000  0.00  0.00    +0.023 C 
ATOM     22  C   UNL     1      -3.459  -0.114   0.000  0.00  0.00    +0.092 C 
ENDBRANCH  16  18
ENDBRANCH   9  12
BRANCH   7   6
ATOM      2  N   UNL     1       2.037  -1.299   0.000  0.00  0.00    -0.263 NA
ATOM      3  C   UNL     1       2.704  -1.784   0.000  0.00  0.00    +0.073 C 
ATOM      4  C   UNL     1       2.449  -2.569   0.000  0.00  0.00    +0.019 C 
ATOM      5  C   UNL     1       1.624  -2.569   0.000  0.00  0.00    +0.027 C 
ATOM      6  C   UNL     1       1.369  -1.784   0.000  0.00  0.00    +0.138 C 
BRANCH   2   1
ATOM      1  C   UNL     1       2.037  -0.474   0.000  0.00  0.00    +0.099 C 
BRANCH   1  23
ATOM     23  C   UNL     1       2.751  -0.062   0.000  0.00  0.00    -0.006 A 
ATOM     24  C   UNL     1       2.751   0.763   0.000  0.00  0.00    -0.003 A 
ATOM     25  C   UNL     1       3.466   1.176   0.000  0.00  0.00    -0.000 A 
ATOM     26  C   UNL     1       4.180   0.763   0.000  0.00  0.00    -0.000 A 
ATOM     27  C   UNL     1       4.180  -0.062   0.000  0.00  0.00    -0.000 A 
ATOM     28  C   UNL     1       3.466  -0.474   0.000  0.00  0.00    -0.003 A 
ENDBRANCH   1  23
ENDBRANCH   2   1
ENDBRANCH   7   6
TORSDOF 5
