MODEL 1
REMARK VINA RESULT:     -12.7      0.000      0.000
REMARK  Name = 
REMARK  7 active torsions:
REMARK  status: ('A' for Active; 'I' for Inactive)
REMARK    1  A    between atoms: C_2  and  C_3
REMARK    2  A    between atoms: C_2  and  C_26
REMARK    3  A    between atoms: C_10  and  N_11
REMARK    4  A    between atoms: C_12  and  C_14
REMARK    5  A    between atoms: C_14  and  C_15
REMARK    6  A    between atoms: N_28  and  C_29
REMARK    7  A    between atoms: C_29  and  C_30
REMARK                            x       y       z     vdW  Elec       q    Type
REMARK                         _______ _______ _______ _____ _____    ______ ____
ROOT
ATOM      3  C   UNL     1      -3.947   3.242  24.807  0.00  0.00    +0.039 C 
ATOM      4  C   UNL     1      -4.557   3.299  25.361  0.00  0.00    +0.003 C 
ATOM      5  C   UNL     1      -5.024   2.640  25.529  0.00  0.00    +0.000 C 
ATOM      6  C   UNL     1      -4.882   1.925  25.145  0.00  0.00    +0.002 C 
ATOM      7  C   UNL     1      -5.490   1.982  25.698  0.00  0.00    +0.000 C 
ATOM      8  C   UNL     1      -5.349   1.266  25.313  0.00  0.00    +0.002 C 
ATOM      9  C   UNL     1      -5.207   0.550  24.928  0.00  0.00    +0.022 C 
ATOM     10  C   UNL     1      -4.597   0.493  24.374  0.00  0.00    +0.095 C 
ATOM     21  C   UNL     1      -4.130   1.152  24.206  0.00  0.00    +0.022 C 
ATOM     22  C   UNL     1      -3.521   1.095  23.653  0.00  0.00    +0.002 C 
ATOM     23  C   UNL     1      -4.272   1.868  24.591  0.00  0.00    +0.032 C 
ATOM     24  C   UNL     1      -3.805   2.526  24.423  0.00  0.00    +0.152 C 
ATOM     25  O   UNL     1      -3.196   2.470  23.869  0.00  0.00    -0.223 OA
ENDROOT
BRANCH  10  11
ATOM     11  N   UNL     1      -4.455  -0.223  23.990  0.00  0.00    -0.207 NA
ATOM     12  C   UNL     1      -4.297  -0.903  24.428  0.00  0.00    +0.246 C 
ATOM     13  O   UNL     1      -4.279  -0.867  25.253  0.00  0.00    -0.273 OA
BRANCH  12  14
ATOM     14  C   UNL     1      -4.155  -1.619  24.043  0.00  0.00    +0.113 C 
BRANCH  14  15
ATOM     15  C   UNL     1      -3.540  -2.107  24.293  0.00  0.00    -0.013 A 
ATOM     16  C   UNL     1      -3.702  -2.767  24.764  0.00  0.00    -0.004 A 
ATOM     17  C   UNL     1      -3.086  -3.255  25.014  0.00  0.00    -0.000 A 
ATOM     18  C   UNL     1      -2.309  -3.086  24.795  0.00  0.00    -0.000 A 
ATOM     19  C   UNL     1      -2.147  -2.427  24.324  0.00  0.00    -0.000 A 
ATOM     20  C   UNL     1      -2.763  -1.938  24.074  0.00  0.00    -0.004 A 
ENDBRANCH  14  15
ENDBRANCH  12  14
ENDBRANCH  10  11
BRANCH   3   2
ATOM      1  C   UNL     1      -3.633   4.356  23.968  0.00  0.00    +0.010 C 
ATOM      2  C   UNL     1      -3.480   3.901  24.639  0.00  0.00    +0.081 C 
BRANCH   2  26
ATOM     26  C   UNL     1      -2.860   4.105  25.143  0.00  0.00    +0.241 C 
ATOM     27  O   UNL     1      -2.984   4.651  25.751  0.00  0.00    -0.273 OA
ATOM     28  N   UNL     1      -2.115   3.765  25.039  0.00  0.00    -0.200 NA
BRANCH  28  29
ATOM     29  C   UNL     1      -1.495   3.969  25.542  0.00  0.00    +0.148 C 
BRANCH  29  30
ATOM     30  C   UNL     1      -0.849   3.463  25.629  0.00  0.00    +0.029 A 
ATOM     31  C   UNL     1      -0.741   2.914  26.235  0.00  0.00    +0.004 A 
ATOM     32  C   UNL     1      -0.023   2.529  26.104  0.00  0.00    +0.007 A 
ATOM     33  C   UNL     1       0.313   2.841  25.418  0.00  0.00    +0.035 A 
ATOM     34  S   UNL     1      -0.198   3.418  25.124  0.00  0.00    -0.089 S 
ENDBRANCH  29  30
ENDBRANCH  28  29
ENDBRANCH   2  26
ENDBRANCH   3   2
TORSDOF 7
ENDMDL
MODEL 2
REMARK VINA RESULT:     -12.1      1.936      3.610
REMARK  Name = 
REMARK  7 active torsions:
REMARK  status: ('A' for Active; 'I' for Inactive)
REMARK    1  A    between atoms: C_2  and  C_3
REMARK    2  A    between atoms: C_2  and  C_26
REMARK    3  A    between atoms: C_10  and  N_11
REMARK    4  A    between atoms: C_12  and  C_14
REMARK    5  A    between atoms: C_14  and  C_15
REMARK    6  A    between atoms: N_28  and  C_29
REMARK    7  A    between atoms: C_29  and  C_30
REMARK                            x       y       z     vdW  Elec       q    Type
REMARK                         _______ _______ _______ _____ _____    ______ ____
ROOT
ATOM      3  C   UNL     1      -0.276   2.293  25.175  0.00  0.00    +0.039 C 
ATOM      4  C   UNL     1       0.170   2.361  24.484  0.00  0.00    +0.003 C 
ATOM      5  C   UNL     1       0.314   1.695  24.019  0.00  0.00    +0.000 C 
ATOM      6  C   UNL     1       0.013   0.962  24.244  0.00  0.00    +0.002 C 
ATOM      7  C   UNL     1       0.458   1.030  23.554  0.00  0.00    +0.000 C 
ATOM      8  C   UNL     1       0.156   0.295  23.779  0.00  0.00    +0.002 C 
ATOM      9  C   UNL     1      -0.145  -0.438  24.004  0.00  0.00    +0.022 C 
ATOM     10  C   UNL     1      -0.591  -0.506  24.696  0.00  0.00    +0.095 C 
ATOM     21  C   UNL     1      -0.735   0.159  25.161  0.00  0.00    +0.022 C 
ATOM     22  C   UNL     1      -1.181   0.091  25.852  0.00  0.00    +0.002 C 
ATOM     23  C   UNL     1      -0.434   0.894  24.936  0.00  0.00    +0.032 C 
ATOM     24  C   UNL     1      -0.578   1.559  25.401  0.00  0.00    +0.152 C 
ATOM     25  O   UNL     1      -1.023   1.491  26.091  0.00  0.00    -0.223 OA
ENDROOT
BRANCH  10  11
ATOM     11  N   UNL     1      -0.893  -1.241  24.921  0.00  0.00    -0.207 NA
ATOM     12  C   UNL     1      -1.304  -1.703  24.377  0.00  0.00    +0.246 C 
ATOM     13  O   UNL     1      -1.416  -1.430  23.605  0.00  0.00    -0.273 OA
BRANCH  12  14
ATOM     14  C   UNL     1      -1.606  -2.437  24.602  0.00  0.00    +0.113 C 
BRANCH  14  15
ATOM     15  C   UNL     1      -2.418  -2.575  24.579  0.00  0.00    -0.013 A 
ATOM     16  C   UNL     1      -2.866  -2.518  25.270  0.00  0.00    -0.004 A 
ATOM     17  C   UNL     1      -3.680  -2.655  25.247  0.00  0.00    -0.000 A 
ATOM     18  C   UNL     1      -4.045  -2.850  24.534  0.00  0.00    -0.000 A 
ATOM     19  C   UNL     1      -3.597  -2.907  23.842  0.00  0.00    -0.000 A 
ATOM     20  C   UNL     1      -2.785  -2.769  23.865  0.00  0.00    -0.004 A 
ENDBRANCH  14  15
ENDBRANCH  12  14
ENDBRANCH  10  11
BRANCH   3   2
ATOM      1  C   UNL     1      -0.047   3.041  26.372  0.00  0.00    +0.010 C 
ATOM      2  C   UNL     1      -0.420   2.959  25.640  0.00  0.00    +0.081 C 
BRANCH   2  26
ATOM     26  C   UNL     1      -0.937   3.544  25.373  0.00  0.00    +0.241 C 
ATOM     27  O   UNL     1      -0.644   4.198  24.962  0.00  0.00    -0.273 OA
ATOM     28  N   UNL     1      -1.747   3.476  25.516  0.00  0.00    -0.200 NA
BRANCH  28  29
ATOM     29  C   UNL     1      -2.263   4.060  25.249  0.00  0.00    +0.148 C 
BRANCH  29  30
ATOM     30  C   UNL     1      -3.077   3.928  25.259  0.00  0.00    +0.029 A 
ATOM     31  C   UNL     1      -3.558   3.910  25.930  0.00  0.00    +0.004 A 
ATOM     32  C   UNL     1      -4.331   3.761  25.685  0.00  0.00    +0.007 A 
ATOM     33  C   UNL     1      -4.329   3.687  24.862  0.00  0.00    +0.035 A 
ATOM     34  S   UNL     1      -3.554   3.791  24.600  0.00  0.00    -0.089 S 
ENDBRANCH  29  30
ENDBRANCH  28  29
ENDBRANCH   2  26
ENDBRANCH   3   2
TORSDOF 7
ENDMDL
MODEL 3
REMARK VINA RESULT:     -11.7      2.945      5.076
REMARK  Name = 
REMARK  7 active torsions:
REMARK  status: ('A' for Active; 'I' for Inactive)
REMARK    1  A    between atoms: C_2  and  C_3
REMARK    2  A    between atoms: C_2  and  C_26
REMARK    3  A    between atoms: C_10  and  N_11
REMARK    4  A    between atoms: C_12  and  C_14
REMARK    5  A    between atoms: C_14  and  C_15
REMARK    6  A    between atoms: N_28  and  C_29
REMARK    7  A    between atoms: C_29  and  C_30
REMARK                            x       y       z     vdW  Elec       q    Type
REMARK                         _______ _______ _______ _____ _____    ______ ____
ROOT
ATOM      3  C   UNL     1       0.065   0.805  23.895  0.00  0.00    +0.039 C 
ATOM      4  C   UNL     1       0.522   1.372  24.286  0.00  0.00    +0.003 C 
ATOM      5  C   UNL     1       0.181   2.082  24.526  0.00  0.00    +0.000 C 
ATOM      6  C   UNL     1      -0.617   2.228  24.376  0.00  0.00    +0.002 C 
ATOM      7  C   UNL     1      -0.161   2.793  24.766  0.00  0.00    +0.000 C 
ATOM      8  C   UNL     1      -0.959   2.939  24.617  0.00  0.00    +0.002 C 
ATOM      9  C   UNL     1      -1.757   3.085  24.467  0.00  0.00    +0.022 C 
ATOM     10  C   UNL     1      -2.214   2.518  24.077  0.00  0.00    +0.095 C 
ATOM     21  C   UNL     1      -1.872   1.807  23.836  0.00  0.00    +0.022 C 
ATOM     22  C   UNL     1      -2.328   1.241  23.446  0.00  0.00    +0.002 C 
ATOM     23  C   UNL     1      -1.074   1.661  23.986  0.00  0.00    +0.032 C 
ATOM     24  C   UNL     1      -0.732   0.951  23.746  0.00  0.00    +0.152 C 
ATOM     25  O   UNL     1      -1.188   0.385  23.356  0.00  0.00    -0.223 OA
ENDROOT
BRANCH  10  11
ATOM     11  N   UNL     1      -3.012   2.664  23.927  0.00  0.00    -0.207 NA
ATOM     12  C   UNL     1      -3.484   3.010  24.507  0.00  0.00    +0.246 C 
ATOM     13  O   UNL     1      -3.158   3.211  25.239  0.00  0.00    -0.273 OA
BRANCH  12  14
ATOM     14  C   UNL     1      -4.283   3.156  24.358  0.00  0.00    +0.113 C 
BRANCH  14  15
ATOM     15  C   UNL     1      -4.861   2.816  24.837  0.00  0.00    -0.013 A 
ATOM     16  C   UNL     1      -5.240   2.123  24.597  0.00  0.00    -0.004 A 
ATOM     17  C   UNL     1      -5.819   1.783  25.077  0.00  0.00    -0.000 A 
ATOM     18  C   UNL     1      -6.020   2.135  25.794  0.00  0.00    -0.000 A 
ATOM     19  C   UNL     1      -5.641   2.829  26.034  0.00  0.00    -0.000 A 
ATOM     20  C   UNL     1      -5.063   3.169  25.555  0.00  0.00    -0.004 A 
ENDBRANCH  14  15
ENDBRANCH  12  14
ENDBRANCH  10  11
BRANCH   3   2
ATOM      1  C   UNL     1       0.207  -0.611  24.034  0.00  0.00    +0.010 C 
ATOM      2  C   UNL     1       0.408   0.094  23.655  0.00  0.00    +0.081 C 
BRANCH   2  26
ATOM     26  C   UNL     1       0.952   0.087  23.035  0.00  0.00    +0.241 C 
ATOM     27  O   UNL     1       0.689   0.021  22.255  0.00  0.00    -0.273 OA
ATOM     28  N   UNL     1       1.760   0.147  23.194  0.00  0.00    -0.200 NA
BRANCH  28  29
ATOM     29  C   UNL     1       2.304   0.141  22.575  0.00  0.00    +0.148 C 
BRANCH  29  30
ATOM     30  C   UNL     1       3.102   0.285  22.725  0.00  0.00    +0.029 A 
ATOM     31  C   UNL     1       3.492   1.006  22.625  0.00  0.00    +0.004 A 
ATOM     32  C   UNL     1       4.282   0.899  22.839  0.00  0.00    +0.007 A 
ATOM     33  C   UNL     1       4.380   0.113  23.071  0.00  0.00    +0.035 A 
ATOM     34  S   UNL     1       3.651  -0.266  23.000  0.00  0.00    -0.089 S 
ENDBRANCH  29  30
ENDBRANCH  28  29
ENDBRANCH   2  26
ENDBRANCH   3   2
TORSDOF 7
ENDMDL
MODEL 4
REMARK VINA RESULT:     -11.6      1.547      4.907
REMARK  Name = 
REMARK  7 active torsions:
REMARK  status: ('A' for Active; 'I' for Inactive)
REMARK    1  A    between atoms: C_2  and  C_3
REMARK    2  A    between atoms: C_2  and  C_26
REMARK    3  A    between atoms: C_10  and  N_11
REMARK    4  A    between atoms: C_12  and  C_14
REMARK    5  A    between atoms: C_14  and  C_15
REMARK    6  A    between atoms: N_28  and  C_29
REMARK    7  A    between atoms: C_29  and  C_30
REMARK                            x       y       z     vdW  Elec       q    Type
REMARK                         _______ _______ _______ _____ _____    ______ ____
ROOT
ATOM      3  C   UNL     1      -4.272  -0.311  24.405  0.00  0.00    +0.039 C 
ATOM      4  C   UNL     1      -4.857  -0.252  24.985  0.00  0.00    +0.003 C 
ATOM      5  C   UNL     1      -5.078   0.488  25.273  0.00  0.00    +0.000 C 
ATOM      6  C   UNL     1      -4.716   1.169  24.982  0.00  0.00    +0.002 C 
ATOM      7  C   UNL     1      -5.300   1.228  25.560  0.00  0.00    +0.000 C 
ATOM      8  C   UNL     1      -4.937   1.910  25.270  0.00  0.00    +0.002 C 
ATOM      9  C   UNL     1      -4.574   2.591  24.980  0.00  0.00    +0.022 C 
ATOM     10  C   UNL     1      -3.988   2.531  24.400  0.00  0.00    +0.095 C 
ATOM     21  C   UNL     1      -3.767   1.791  24.112  0.00  0.00    +0.022 C 
ATOM     22  C   UNL     1      -3.183   1.732  23.533  0.00  0.00    +0.002 C 
ATOM     23  C   UNL     1      -4.130   1.109  24.403  0.00  0.00    +0.032 C 
ATOM     24  C   UNL     1      -3.909   0.369  24.115  0.00  0.00    +0.152 C 
ATOM     25  O   UNL     1      -3.324   0.310  23.536  0.00  0.00    -0.223 OA
ENDROOT
BRANCH  10  11
ATOM     11  N   UNL     1      -3.626   3.213  24.109  0.00  0.00    -0.207 NA
ATOM     12  C   UNL     1      -3.270   3.745  24.629  0.00  0.00    +0.246 C 
ATOM     13  O   UNL     1      -3.277   3.596  25.442  0.00  0.00    -0.273 OA
BRANCH  12  14
ATOM     14  C   UNL     1      -2.907   4.427  24.339  0.00  0.00    +0.113 C 
BRANCH  14  15
ATOM     15  C   UNL     1      -2.135   4.611  24.561  0.00  0.00    -0.013 A 
ATOM     16  C   UNL     1      -1.503   4.177  24.254  0.00  0.00    -0.004 A 
ATOM     17  C   UNL     1      -0.730   4.361  24.477  0.00  0.00    -0.000 A 
ATOM     18  C   UNL     1      -0.589   4.977  25.006  0.00  0.00    -0.000 A 
ATOM     19  C   UNL     1      -1.221   5.411  25.313  0.00  0.00    -0.000 A 
ATOM     20  C   UNL     1      -1.993   5.228  25.091  0.00  0.00    -0.004 A 
ENDBRANCH  14  15
ENDBRANCH  12  14
ENDBRANCH  10  11
BRANCH   3   2
ATOM      1  C   UNL     1      -4.289  -1.292  23.364  0.00  0.00    +0.010 C 
ATOM      2  C   UNL     1      -4.051  -1.053  24.117  0.00  0.00    +0.081 C 
BRANCH   2  26
ATOM     26  C   UNL     1      -3.591  -1.555  24.583  0.00  0.00    +0.241 C 
ATOM     27  O   UNL     1      -3.954  -2.078  25.109  0.00  0.00    -0.273 OA
ATOM     28  N   UNL     1      -2.767  -1.535  24.523  0.00  0.00    -0.200 NA
BRANCH  28  29
ATOM     29  C   UNL     1      -2.308  -2.036  24.989  0.00  0.00    +0.148 C 
BRANCH  29  30
ATOM     30  C   UNL     1      -1.502  -1.888  25.085  0.00  0.00    +0.029 A 
ATOM     31  C   UNL     1      -1.165  -1.388  25.649  0.00  0.00    +0.004 A 
ATOM     32  C   UNL     1      -0.346  -1.405  25.546  0.00  0.00    +0.007 A 
ATOM     33  C   UNL     1      -0.178  -1.915  24.918  0.00  0.00    +0.035 A 
ATOM     34  S   UNL     1      -0.892  -2.213  24.633  0.00  0.00    -0.089 S 
ENDBRANCH  29  30
ENDBRANCH  28  29
ENDBRANCH   2  26
ENDBRANCH   3   2
TORSDOF 7
ENDMDL
MODEL 5
REMARK VINA RESULT:     -11.5      1.663      3.203
REMARK  Name = 
REMARK  7 active torsions:
REMARK  status: ('A' for Active; 'I' for Inactive)
REMARK    1  A    between atoms: C_2  and  C_3
REMARK    2  A    between atoms: C_2  and  C_26
REMARK    3  A    between atoms: C_10  and  N_11
REMARK    4  A    between atoms: C_12  and  C_14
REMARK    5  A    between atoms: C_14  and  C_15
REMARK    6  A    between atoms: N_28  and  C_29
REMARK    7  A    between atoms: C_29  and  C_30
REMARK                            x       y       z     vdW  Elec       q    Type
REMARK                         _______ _______ _______ _____ _____    ______ ____
ROOT
ATOM      3  C   UNL     1      -1.513   3.158  25.186  0.00  0.00    +0.039 C 
ATOM      4  C   UNL     1      -0.992   3.126  25.826  0.00  0.00    +0.003 C 
ATOM      5  C   UNL     1      -0.640   2.410  26.035  0.00  0.00    +0.000 C 
ATOM      6  C   UNL     1      -0.807   1.727  25.606  0.00  0.00    +0.002 C 
ATOM      7  C   UNL     1      -0.287   1.695  26.244  0.00  0.00    +0.000 C 
ATOM      8  C   UNL     1      -0.455   1.011  25.814  0.00  0.00    +0.002 C 
ATOM      9  C   UNL     1      -0.622   0.327  25.385  0.00  0.00    +0.022 C 
ATOM     10  C   UNL     1      -1.144   0.359  24.745  0.00  0.00    +0.095 C 
ATOM     21  C   UNL     1      -1.496   1.074  24.536  0.00  0.00    +0.022 C 
ATOM     22  C   UNL     1      -2.017   1.106  23.897  0.00  0.00    +0.002 C 
ATOM     23  C   UNL     1      -1.329   1.759  24.966  0.00  0.00    +0.032 C 
ATOM     24  C   UNL     1      -1.681   2.474  24.757  0.00  0.00    +0.152 C 
ATOM     25  O   UNL     1      -2.202   2.506  24.118  0.00  0.00    -0.223 OA
ENDROOT
BRANCH  10  11
ATOM     11  N   UNL     1      -1.311  -0.325  24.316  0.00  0.00    -0.207 NA
ATOM     12  C   UNL     1      -1.550  -1.010  24.707  0.00  0.00    +0.246 C 
ATOM     13  O   UNL     1      -1.622  -1.012  25.530  0.00  0.00    -0.273 OA
BRANCH  12  14
ATOM     14  C   UNL     1      -1.718  -1.695  24.278  0.00  0.00    +0.113 C 
BRANCH  14  15
ATOM     15  C   UNL     1      -2.447  -2.070  24.366  0.00  0.00    -0.013 A 
ATOM     16  C   UNL     1      -3.091  -1.832  23.908  0.00  0.00    -0.004 A 
ATOM     17  C   UNL     1      -3.821  -2.208  23.997  0.00  0.00    -0.000 A 
ATOM     18  C   UNL     1      -3.906  -2.820  24.542  0.00  0.00    -0.000 A 
ATOM     19  C   UNL     1      -3.262  -3.057  25.001  0.00  0.00    -0.000 A 
ATOM     20  C   UNL     1      -2.533  -2.682  24.912  0.00  0.00    -0.004 A 
ENDBRANCH  14  15
ENDBRANCH  12  14
ENDBRANCH  10  11
BRANCH   3   2
ATOM      1  C   UNL     1      -1.584   4.301  24.331  0.00  0.00    +0.010 C 
ATOM      2  C   UNL     1      -1.866   3.874  24.978  0.00  0.00    +0.081 C 
BRANCH   2  26
ATOM     26  C   UNL     1      -2.502   4.163  25.416  0.00  0.00    +0.241 C 
ATOM     27  O   UNL     1      -2.384   4.771  25.962  0.00  0.00    -0.273 OA
ATOM     28  N   UNL     1      -3.256   3.845  25.310  0.00  0.00    -0.200 NA
BRANCH  28  29
ATOM     29  C   UNL     1      -3.891   4.134  25.748  0.00  0.00    +0.148 C 
BRANCH  29  30
ATOM     30  C   UNL     1      -4.616   3.740  25.734  0.00  0.00    +0.029 A 
ATOM     31  C   UNL     1      -4.790   3.029  26.115  0.00  0.00    +0.004 A 
ATOM     32  C   UNL     1      -5.576   2.839  25.952  0.00  0.00    +0.007 A 
ATOM     33  C   UNL     1      -5.888   3.432  25.470  0.00  0.00    +0.035 A 
ATOM     34  S   UNL     1      -5.295   3.989  25.336  0.00  0.00    -0.089 S 
ENDBRANCH  29  30
ENDBRANCH  28  29
ENDBRANCH   2  26
ENDBRANCH   3   2
TORSDOF 7
ENDMDL
MODEL 6
REMARK VINA RESULT:     -11.3      2.417      6.227
REMARK  Name = 
REMARK  7 active torsions:
REMARK  status: ('A' for Active; 'I' for Inactive)
REMARK    1  A    between atoms: C_2  and  C_3
REMARK    2  A    between atoms: C_2  and  C_26
REMARK    3  A    between atoms: C_10  and  N_11
REMARK    4  A    between atoms: C_12  and  C_14
REMARK    5  A    between atoms: C_14  and  C_15
REMARK    6  A    between atoms: N_28  and  C_29
REMARK    7  A    between atoms: C_29  and  C_30
REMARK                            x       y       z     vdW  Elec       q    Type
REMARK                         _______ _______ _______ _____ _____    ______ ____
ROOT
ATOM      3  C   UNL     1      -0.544  -0.976  24.682  0.00  0.00    +0.039 C 
ATOM      4  C   UNL     1      -0.195  -0.976  23.933  0.00  0.00    +0.003 C 
ATOM      5  C   UNL     1       0.091  -0.272  23.612  0.00  0.00    +0.000 C 
ATOM      6  C   UNL     1       0.027   0.431  24.038  0.00  0.00    +0.002 C 
ATOM      7  C   UNL     1       0.376   0.431  23.291  0.00  0.00    +0.000 C 
ATOM      8  C   UNL     1       0.313   1.135  23.717  0.00  0.00    +0.002 C 
ATOM      9  C   UNL     1       0.249   1.839  24.142  0.00  0.00    +0.022 C 
ATOM     10  C   UNL     1      -0.100   1.838  24.890  0.00  0.00    +0.095 C 
ATOM     21  C   UNL     1      -0.386   1.135  25.212  0.00  0.00    +0.022 C 
ATOM     22  C   UNL     1      -0.735   1.134  25.959  0.00  0.00    +0.002 C 
ATOM     23  C   UNL     1      -0.322   0.430  24.786  0.00  0.00    +0.032 C 
ATOM     24  C   UNL     1      -0.608  -0.273  25.107  0.00  0.00    +0.152 C 
ATOM     25  O   UNL     1      -0.957  -0.274  25.855  0.00  0.00    -0.223 OA
ENDROOT
BRANCH  10  11
ATOM     11  N   UNL     1      -0.164   2.542  25.316  0.00  0.00    -0.207 NA
ATOM     12  C   UNL     1      -0.417   3.231  24.940  0.00  0.00    +0.246 C 
ATOM     13  O   UNL     1      -0.608   3.216  24.137  0.00  0.00    -0.273 OA
BRANCH  12  14
ATOM     14  C   UNL     1      -0.481   3.935  25.365  0.00  0.00    +0.113 C 
BRANCH  14  15
ATOM     15  C   UNL     1      -1.182   4.367  25.347  0.00  0.00    -0.013 A 
ATOM     16  C   UNL     1      -1.207   5.097  24.961  0.00  0.00    -0.004 A 
ATOM     17  C   UNL     1      -1.910   5.530  24.942  0.00  0.00    -0.000 A 
ATOM     18  C   UNL     1      -2.586   5.234  25.308  0.00  0.00    -0.000 A 
ATOM     19  C   UNL     1      -2.562   4.504  25.694  0.00  0.00    -0.000 A 
ATOM     20  C   UNL     1      -1.860   4.071  25.713  0.00  0.00    -0.004 A 
ENDBRANCH  14  15
ENDBRANCH  12  14
ENDBRANCH  10  11
BRANCH   3   2
ATOM      1  C   UNL     1      -0.540  -1.954  25.726  0.00  0.00    +0.010 C 
ATOM      2  C   UNL     1      -0.830  -1.681  25.003  0.00  0.00    +0.081 C 
BRANCH   2  26
ATOM     26  C   UNL     1      -1.406  -2.113  24.600  0.00  0.00    +0.241 C 
ATOM     27  O   UNL     1      -1.183  -2.725  24.092  0.00  0.00    -0.273 OA
ATOM     28  N   UNL     1      -2.205  -1.935  24.706  0.00  0.00    -0.200 NA
BRANCH  28  29
ATOM     29  C   UNL     1      -2.780  -2.367  24.304  0.00  0.00    +0.148 C 
BRANCH  29  30
ATOM     30  C   UNL     1      -3.532  -2.048  24.191  0.00  0.00    +0.029 A 
ATOM     31  C   UNL     1      -3.790  -1.308  24.452  0.00  0.00    +0.004 A 
ATOM     32  C   UNL     1      -4.576  -1.217  24.219  0.00  0.00    +0.007 A 
ATOM     33  C   UNL     1      -4.805  -1.899  23.815  0.00  0.00    +0.035 A 
ATOM     34  S   UNL     1      -4.159  -2.413  23.797  0.00  0.00    -0.089 S 
ENDBRANCH  29  30
ENDBRANCH  28  29
ENDBRANCH   2  26
ENDBRANCH   3   2
TORSDOF 7
ENDMDL
MODEL 7
REMARK VINA RESULT:     -11.2      3.425      5.642
REMARK  Name = 
REMARK  7 active torsions:
REMARK  status: ('A' for Active; 'I' for Inactive)
REMARK    1  A    between atoms: C_2  and  C_3
REMARK    2  A    between atoms: C_2  and  C_26
REMARK    3  A    between atoms: C_10  and  N_11
REMARK    4  A    between atoms: C_12  and  C_14
REMARK    5  A    between atoms: C_14  and  C_15
REMARK    6  A    between atoms: N_28  and  C_29
REMARK    7  A    between atoms: C_29  and  C_30
REMARK                            x       y       z     vdW  Elec       q    Type
REMARK                         _______ _______ _______ _____ _____    ______ ____
ROOT
ATOM      3  C   UNL     1      -1.685   0.679  24.776  0.00  0.00    +0.039 C 
ATOM      4  C   UNL     1      -1.557   1.450  25.043  0.00  0.00    +0.003 C 
ATOM      5  C   UNL     1      -0.849   1.834  24.869  0.00  0.00    +0.000 C 
ATOM      6  C   UNL     1      -0.268   1.448  24.428  0.00  0.00    +0.002 C 
ATOM      7  C   UNL     1      -0.140   2.218  24.694  0.00  0.00    +0.000 C 
ATOM      8  C   UNL     1       0.441   1.832  24.253  0.00  0.00    +0.002 C 
ATOM      9  C   UNL     1       1.022   1.446  23.813  0.00  0.00    +0.022 C 
ATOM     10  C   UNL     1       0.893   0.675  23.546  0.00  0.00    +0.095 C 
ATOM     21  C   UNL     1       0.185   0.292  23.721  0.00  0.00    +0.022 C 
ATOM     22  C   UNL     1       0.057  -0.479  23.454  0.00  0.00    +0.002 C 
ATOM     23  C   UNL     1      -0.397   0.677  24.161  0.00  0.00    +0.032 C 
ATOM     24  C   UNL     1      -1.105   0.293  24.336  0.00  0.00    +0.152 C 
ATOM     25  O   UNL     1      -1.233  -0.477  24.069  0.00  0.00    -0.223 OA
ENDROOT
BRANCH  10  11
ATOM     11  N   UNL     1       1.475   0.290  23.105  0.00  0.00    -0.207 NA
ATOM     12  C   UNL     1       2.233   0.608  23.055  0.00  0.00    +0.246 C 
ATOM     13  O   UNL     1       2.412   1.313  23.446  0.00  0.00    -0.273 OA
BRANCH  12  14
ATOM     14  C   UNL     1       2.815   0.222  22.614  0.00  0.00    +0.113 C 
BRANCH  14  15
ATOM     15  C   UNL     1       3.578   0.146  22.915  0.00  0.00    -0.013 A 
ATOM     16  C   UNL     1       4.128   0.753  22.806  0.00  0.00    -0.004 A 
ATOM     17  C   UNL     1       4.892   0.677  23.107  0.00  0.00    -0.000 A 
ATOM     18  C   UNL     1       5.108  -0.005  23.516  0.00  0.00    -0.000 A 
ATOM     19  C   UNL     1       4.559  -0.613  23.625  0.00  0.00    -0.000 A 
ATOM     20  C   UNL     1       3.795  -0.537  23.325  0.00  0.00    -0.004 A 
ENDBRANCH  14  15
ENDBRANCH  12  14
ENDBRANCH  10  11
BRANCH   3   2
ATOM      1  C   UNL     1      -2.407  -0.323  25.498  0.00  0.00    +0.010 C 
ATOM      2  C   UNL     1      -2.395   0.295  24.951  0.00  0.00    +0.081 C 
BRANCH   2  26
ATOM     26  C   UNL     1      -3.093   0.530  24.579  0.00  0.00    +0.241 C 
ATOM     27  O   UNL     1      -3.266   0.258  23.818  0.00  0.00    -0.273 OA
ATOM     28  N   UNL     1      -3.618   1.036  24.966  0.00  0.00    -0.200 NA
BRANCH  28  29
ATOM     29  C   UNL     1      -4.314   1.270  24.594  0.00  0.00    +0.148 C 
BRANCH  29  30
ATOM     30  C   UNL     1      -4.811   1.820  24.955  0.00  0.00    +0.029 A 
ATOM     31  C   UNL     1      -4.707   2.639  24.959  0.00  0.00    +0.004 A 
ATOM     32  C   UNL     1      -5.331   2.973  25.383  0.00  0.00    +0.007 A 
ATOM     33  C   UNL     1      -5.821   2.360  25.642  0.00  0.00    +0.035 A 
ATOM     34  S   UNL     1      -5.499   1.648  25.377  0.00  0.00    -0.089 S 
ENDBRANCH  29  30
ENDBRANCH  28  29
ENDBRANCH   2  26
ENDBRANCH   3   2
TORSDOF 7
ENDMDL
MODEL 8
REMARK VINA RESULT:     -10.9      2.175      5.206
REMARK  Name = 
REMARK  7 active torsions:
REMARK  status: ('A' for Active; 'I' for Inactive)
REMARK    1  A    between atoms: C_2  and  C_3
REMARK    2  A    between atoms: C_2  and  C_26
REMARK    3  A    between atoms: C_10  and  N_11
REMARK    4  A    between atoms: C_12  and  C_14
REMARK    5  A    between atoms: C_14  and  C_15
REMARK    6  A    between atoms: N_28  and  C_29
REMARK    7  A    between atoms: C_29  and  C_30
REMARK                            x       y       z     vdW  Elec       q    Type
REMARK                         _______ _______ _______ _____ _____    ______ ____
ROOT
ATOM      3  C   UNL     1      -0.265   0.754  24.201  0.00  0.00    +0.039 C 
ATOM      4  C   UNL     1       0.254   1.096  24.745  0.00  0.00    +0.003 C 
ATOM      5  C   UNL     1       0.058   1.809  25.108  0.00  0.00    +0.000 C 
ATOM      6  C   UNL     1      -0.654   2.182  24.928  0.00  0.00    +0.002 C 
ATOM      7  C   UNL     1      -0.137   2.523  25.471  0.00  0.00    +0.000 C 
ATOM      8  C   UNL     1      -0.850   2.897  25.292  0.00  0.00    +0.002 C 
ATOM      9  C   UNL     1      -1.563   3.270  25.112  0.00  0.00    +0.022 C 
ATOM     10  C   UNL     1      -2.082   2.928  24.568  0.00  0.00    +0.095 C 
ATOM     21  C   UNL     1      -1.887   2.214  24.204  0.00  0.00    +0.022 C 
ATOM     22  C   UNL     1      -2.405   1.873  23.661  0.00  0.00    +0.002 C 
ATOM     23  C   UNL     1      -1.173   1.840  24.384  0.00  0.00    +0.032 C 
ATOM     24  C   UNL     1      -0.978   1.127  24.021  0.00  0.00    +0.152 C 
ATOM     25  O   UNL     1      -1.496   0.785  23.477  0.00  0.00    -0.223 OA
ENDROOT
BRANCH  10  11
ATOM     11  N   UNL     1      -2.796   3.301  24.388  0.00  0.00    -0.207 NA
ATOM     12  C   UNL     1      -3.335   3.473  24.988  0.00  0.00    +0.246 C 
ATOM     13  O   UNL     1      -3.161   3.270  25.769  0.00  0.00    -0.273 OA
BRANCH  12  14
ATOM     14  C   UNL     1      -4.048   3.846  24.808  0.00  0.00    +0.113 C 
BRANCH  14  15
ATOM     15  C   UNL     1      -4.761   3.517  25.059  0.00  0.00    -0.013 A 
ATOM     16  C   UNL     1      -5.049   2.832  24.698  0.00  0.00    -0.004 A 
ATOM     17  C   UNL     1      -5.763   2.503  24.949  0.00  0.00    -0.000 A 
ATOM     18  C   UNL     1      -6.189   2.857  25.560  0.00  0.00    -0.000 A 
ATOM     19  C   UNL     1      -5.901   3.542  25.921  0.00  0.00    -0.000 A 
ATOM     20  C   UNL     1      -5.188   3.871  25.670  0.00  0.00    -0.004 A 
ENDBRANCH  14  15
ENDBRANCH  12  14
ENDBRANCH  10  11
BRANCH   3   2
ATOM      1  C   UNL     1       0.241   0.035  23.073  0.00  0.00    +0.010 C 
ATOM      2  C   UNL     1      -0.069   0.039  23.837  0.00  0.00    +0.081 C 
BRANCH   2  26
ATOM     26  C   UNL     1      -0.184  -0.672  24.239  0.00  0.00    +0.241 C 
ATOM     27  O   UNL     1       0.445  -1.026  24.641  0.00  0.00    -0.273 OA
ATOM     28  N   UNL     1      -0.927  -1.031  24.240  0.00  0.00    -0.200 NA
BRANCH  28  29
ATOM     29  C   UNL     1      -1.042  -1.741  24.641  0.00  0.00    +0.148 C 
BRANCH  29  30
ATOM     30  C   UNL     1      -1.800  -2.057  24.714  0.00  0.00    +0.029 A 
ATOM     31  C   UNL     1      -2.371  -1.827  25.265  0.00  0.00    +0.004 A 
ATOM     32  C   UNL     1      -3.045  -2.286  25.140  0.00  0.00    +0.007 A 
ATOM     33  C   UNL     1      -2.890  -2.801  24.512  0.00  0.00    +0.035 A 
ATOM     34  S   UNL     1      -2.121  -2.659  24.250  0.00  0.00    -0.089 S 
ENDBRANCH  29  30
ENDBRANCH  28  29
ENDBRANCH   2  26
ENDBRANCH   3   2
TORSDOF 7
ENDMDL
