MODEL 1
REMARK VINA RESULT:     -11.7      0.000      0.000
REMARK  Name = 
REMARK  6 active torsions:
REMARK  status: ('A' for Active; 'I' for Inactive)
REMARK    1  A    between atoms: O_2  and  C_3
REMARK    2  A    between atoms: C_6  and  C_9
REMARK    3  A    between atoms: C_12  and  C_14
REMARK    4  A    between atoms: N_18  and  C_19
REMARK    5  A    between atoms: C_19  and  C_20
REMARK    6  A    between atoms: C_25  and  O_26
REMARK                            x       y       z     vdW  Elec       q    Type
REMARK                         _______ _______ _______ _____ _____    ______ ____
ROOT
ATOM     14  C   UNL     1      -3.999   2.527  24.941  0.00  0.00    +0.138 C 
ATOM     15  C   UNL     1      -4.729   2.889  25.071  0.00  0.00    +0.027 C 
ATOM     16  C   UNL     1      -4.592   3.620  25.427  0.00  0.00    +0.019 C 
ATOM     17  C   UNL     1      -3.776   3.710  25.518  0.00  0.00    +0.073 C 
ATOM     18  N   UNL     1      -3.410   3.035  25.218  0.00  0.00    -0.263 NA
ENDROOT
BRANCH  14  12
ATOM      9  C   UNL     1      -3.752   0.469  24.431  0.00  0.00    +0.205 A 
ATOM     10  N   UNL     1      -3.633   0.830  23.699  0.00  0.00    -0.056 NA
ATOM     11  O   UNL     1      -3.711   1.645  23.801  0.00  0.00    -0.336 OA
ATOM     12  C   UNL     1      -3.878   1.788  24.596  0.00  0.00    +0.251 A 
ATOM     13  N   UNL     1      -3.904   1.061  24.986  0.00  0.00    -0.190 NA
BRANCH   9   6
ATOM      3  C   UNL     1      -3.669  -1.963  24.884  0.00  0.00    +0.225 A 
ATOM      4  N   UNL     1      -3.331  -1.431  25.418  0.00  0.00    -0.210 NA
ATOM      5  C   UNL     1      -3.359  -0.621  25.267  0.00  0.00    +0.105 A 
ATOM      6  C   UNL     1      -3.724  -0.342  24.582  0.00  0.00    +0.058 A 
ATOM      7  C   UNL     1      -4.062  -0.872  24.049  0.00  0.00    +0.010 A 
ATOM      8  C   UNL     1      -4.034  -1.683  24.200  0.00  0.00    +0.058 A 
BRANCH   3   2
ATOM      1  C   UNL     1      -3.281  -3.281  24.495  0.00  0.00    +0.254 C 
ATOM      2  O   UNL     1      -3.641  -2.773  25.036  0.00  0.00    -0.456 OA
ENDBRANCH   3   2
ENDBRANCH   9   6
ENDBRANCH  14  12
BRANCH  18  19
ATOM     19  C   UNL     1      -2.597   2.892  25.198  0.00  0.00    +0.103 C 
BRANCH  19  20
ATOM     20  C   UNL     1      -2.068   3.525  25.191  0.00  0.00    +0.028 A 
ATOM     21  C   UNL     1      -2.331   4.282  24.996  0.00  0.00    +0.000 A 
ATOM     22  C   UNL     1      -1.801   4.914  24.989  0.00  0.00    -0.000 A 
ATOM     23  C   UNL     1      -1.008   4.789  25.179  0.00  0.00    +0.003 A 
ATOM     24  C   UNL     1      -0.745   4.033  25.374  0.00  0.00    +0.037 A 
ATOM     25  C   UNL     1      -1.274   3.400  25.381  0.00  0.00    +0.136 A 
BRANCH  25  26
ATOM     26  O   UNL     1      -1.011   2.643  25.576  0.00  0.00    -0.472 OA
ATOM     27  C   UNL     1      -0.213   2.515  25.743  0.00  0.00    +0.252 C 
ENDBRANCH  25  26
ENDBRANCH  19  20
ENDBRANCH  18  19
TORSDOF 6
ENDMDL
MODEL 2
REMARK VINA RESULT:     -10.9      1.483      2.624
REMARK  Name = 
REMARK  6 active torsions:
REMARK  status: ('A' for Active; 'I' for Inactive)
REMARK    1  A    between atoms: O_2  and  C_3
REMARK    2  A    between atoms: C_6  and  C_9
REMARK    3  A    between atoms: C_12  and  C_14
REMARK    4  A    between atoms: N_18  and  C_19
REMARK    5  A    between atoms: C_19  and  C_20
REMARK    6  A    between atoms: C_25  and  O_26
REMARK                            x       y       z     vdW  Elec       q    Type
REMARK                         _______ _______ _______ _____ _____    ______ ____
ROOT
ATOM     14  C   UNL     1      -0.471   1.304  24.773  0.00  0.00    +0.138 C 
ATOM     15  C   UNL     1       0.229   1.270  24.339  0.00  0.00    +0.027 C 
ATOM     16  C   UNL     1       0.439   2.041  24.132  0.00  0.00    +0.019 C 
ATOM     17  C   UNL     1      -0.132   2.551  24.440  0.00  0.00    +0.073 C 
ATOM     18  N   UNL     1      -0.694   2.096  24.835  0.00  0.00    -0.263 NA
ENDROOT
BRANCH  14  12
ATOM      9  C   UNL     1      -1.670  -0.409  25.207  0.00  0.00    +0.205 A 
ATOM     10  N   UNL     1      -1.337  -0.256  25.946  0.00  0.00    -0.056 NA
ATOM     11  O   UNL     1      -0.847   0.405  25.874  0.00  0.00    -0.336 OA
ATOM     12  C   UNL     1      -0.878   0.660  25.090  0.00  0.00    +0.251 A 
ATOM     13  N   UNL     1      -1.386   0.157  24.677  0.00  0.00    -0.190 NA
BRANCH   9   6
ATOM      3  C   UNL     1      -3.243  -2.243  24.672  0.00  0.00    +0.225 A 
ATOM      4  N   UNL     1      -2.433  -2.345  24.551  0.00  0.00    -0.210 NA
ATOM      5  C   UNL     1      -1.909  -1.734  24.730  0.00  0.00    +0.105 A 
ATOM      6  C   UNL     1      -2.194  -1.020  25.029  0.00  0.00    +0.058 A 
ATOM      7  C   UNL     1      -3.003  -0.917  25.149  0.00  0.00    +0.010 A 
ATOM      8  C   UNL     1      -3.528  -1.528  24.971  0.00  0.00    +0.058 A 
BRANCH   3   2
ATOM      1  C   UNL     1      -4.287  -2.779  23.858  0.00  0.00    +0.254 C 
ATOM      2  O   UNL     1      -3.768  -2.854  24.493  0.00  0.00    -0.456 OA
ENDBRANCH   3   2
ENDBRANCH   9   6
ENDBRANCH  14  12
BRANCH  18  19
ATOM     19  C   UNL     1      -1.363   2.383  25.225  0.00  0.00    +0.103 C 
BRANCH  19  20
ATOM     20  C   UNL     1      -1.519   3.192  25.234  0.00  0.00    +0.028 A 
ATOM     21  C   UNL     1      -0.897   3.733  25.253  0.00  0.00    +0.000 A 
ATOM     22  C   UNL     1      -1.054   4.543  25.262  0.00  0.00    -0.000 A 
ATOM     23  C   UNL     1      -1.833   4.812  25.252  0.00  0.00    +0.003 A 
ATOM     24  C   UNL     1      -2.456   4.272  25.234  0.00  0.00    +0.037 A 
ATOM     25  C   UNL     1      -2.300   3.462  25.225  0.00  0.00    +0.136 A 
BRANCH  25  26
ATOM     26  O   UNL     1      -2.922   2.921  25.207  0.00  0.00    -0.472 OA
ATOM     27  C   UNL     1      -3.702   3.190  25.225  0.00  0.00    +0.252 C 
ENDBRANCH  25  26
ENDBRANCH  19  20
ENDBRANCH  18  19
TORSDOF 6
ENDMDL
MODEL 3
REMARK VINA RESULT:     -10.6      1.255      4.996
REMARK  Name = 
REMARK  6 active torsions:
REMARK  status: ('A' for Active; 'I' for Inactive)
REMARK    1  A    between atoms: O_2  and  C_3
REMARK    2  A    between atoms: C_6  and  C_9
REMARK    3  A    between atoms: C_12  and  C_14
REMARK    4  A    between atoms: N_18  and  C_19
REMARK    5  A    between atoms: C_19  and  C_20
REMARK    6  A    between atoms: C_25  and  O_26
REMARK                            x       y       z     vdW  Elec       q    Type
REMARK                         _______ _______ _______ _____ _____    ______ ____
ROOT
ATOM     14  C   UNL     1      -4.185   1.029  24.690  0.00  0.00    +0.138 C 
ATOM     15  C   UNL     1      -4.934   1.184  25.001  0.00  0.00    +0.027 C 
ATOM     16  C   UNL     1      -5.267   0.465  25.232  0.00  0.00    +0.019 C 
ATOM     17  C   UNL     1      -4.725  -0.134  25.063  0.00  0.00    +0.073 C 
ATOM     18  N   UNL     1      -4.057   0.214  24.728  0.00  0.00    -0.263 NA
ENDROOT
BRANCH  14  12
ATOM      9  C   UNL     1      -2.750   2.565  24.318  0.00  0.00    +0.205 A 
ATOM     10  N   UNL     1      -2.944   2.339  23.549  0.00  0.00    -0.056 NA
ATOM     11  O   UNL     1      -3.506   1.736  23.595  0.00  0.00    -0.336 OA
ATOM     12  C   UNL     1      -3.659   1.589  24.392  0.00  0.00    +0.251 A 
ATOM     13  N   UNL     1      -3.191   2.101  24.840  0.00  0.00    -0.190 NA
BRANCH   9   6
ATOM      3  C   UNL     1      -1.128   4.323  24.953  0.00  0.00    +0.225 A 
ATOM      4  N   UNL     1      -0.864   3.629  24.592  0.00  0.00    -0.210 NA
ATOM      5  C   UNL     1      -1.405   3.043  24.380  0.00  0.00    +0.105 A 
ATOM      6  C   UNL     1      -2.209   3.151  24.530  0.00  0.00    +0.058 A 
ATOM      7  C   UNL     1      -2.473   3.844  24.891  0.00  0.00    +0.010 A 
ATOM      8  C   UNL     1      -1.932   4.430  25.102  0.00  0.00    +0.058 A 
BRANCH   3   2
ATOM      1  C   UNL     1      -0.594   5.636  24.776  0.00  0.00    +0.254 C 
ATOM      2  O   UNL     1      -0.587   4.909  25.165  0.00  0.00    -0.456 OA
ENDBRANCH   3   2
ENDBRANCH   9   6
ENDBRANCH  14  12
BRANCH  18  19
ATOM     19  C   UNL     1      -3.378  -0.182  24.476  0.00  0.00    +0.103 C 
BRANCH  19  20
ATOM     20  C   UNL     1      -3.373  -1.006  24.436  0.00  0.00    +0.028 A 
ATOM     21  C   UNL     1      -4.028  -1.409  24.136  0.00  0.00    +0.000 A 
ATOM     22  C   UNL     1      -4.022  -2.233  24.096  0.00  0.00    -0.000 A 
ATOM     23  C   UNL     1      -3.363  -2.654  24.356  0.00  0.00    +0.003 A 
ATOM     24  C   UNL     1      -2.708  -2.251  24.656  0.00  0.00    +0.037 A 
ATOM     25  C   UNL     1      -2.713  -1.427  24.696  0.00  0.00    +0.136 A 
BRANCH  25  26
ATOM     26  O   UNL     1      -2.059  -1.024  24.996  0.00  0.00    -0.472 OA
ATOM     27  C   UNL     1      -1.350  -1.428  25.125  0.00  0.00    +0.252 C 
ENDBRANCH  25  26
ENDBRANCH  19  20
ENDBRANCH  18  19
TORSDOF 6
ENDMDL
MODEL 4
REMARK VINA RESULT:     -10.4      1.860      5.545
REMARK  Name = 
REMARK  6 active torsions:
REMARK  status: ('A' for Active; 'I' for Inactive)
REMARK    1  A    between atoms: O_2  and  C_3
REMARK    2  A    between atoms: C_6  and  C_9
REMARK    3  A    between atoms: C_12  and  C_14
REMARK    4  A    between atoms: N_18  and  C_19
REMARK    5  A    between atoms: C_19  and  C_20
REMARK    6  A    between atoms: C_25  and  O_26
REMARK                            x       y       z     vdW  Elec       q    Type
REMARK                         _______ _______ _______ _____ _____    ______ ____
ROOT
ATOM     14  C   UNL     1      -0.889  -0.347  24.789  0.00  0.00    +0.138 C 
ATOM     15  C   UNL     1      -0.238  -0.735  24.463  0.00  0.00    +0.027 C 
ATOM     16  C   UNL     1      -0.502  -1.443  24.133  0.00  0.00    +0.019 C 
ATOM     17  C   UNL     1      -1.317  -1.493  24.254  0.00  0.00    +0.073 C 
ATOM     18  N   UNL     1      -1.556  -0.816  24.660  0.00  0.00    -0.263 NA
ENDROOT
BRANCH  14  12
ATOM      9  C   UNL     1      -0.883   1.696  25.408  0.00  0.00    +0.205 A 
ATOM     10  N   UNL     1      -0.832   1.309  26.135  0.00  0.00    -0.056 NA
ATOM     11  O   UNL     1      -0.828   0.496  25.992  0.00  0.00    -0.336 OA
ATOM     12  C   UNL     1      -0.877   0.381  25.176  0.00  0.00    +0.251 A 
ATOM     13  N   UNL     1      -0.910   1.123  24.815  0.00  0.00    -0.190 NA
BRANCH   9   6
ATOM      3  C   UNL     1      -0.941   4.147  25.066  0.00  0.00    +0.225 A 
ATOM      4  N   UNL     1      -0.302   3.706  24.785  0.00  0.00    -0.210 NA
ATOM      5  C   UNL     1      -0.283   2.889  24.899  0.00  0.00    +0.105 A 
ATOM      6  C   UNL     1      -0.902   2.513  25.294  0.00  0.00    +0.058 A 
ATOM      7  C   UNL     1      -1.540   2.953  25.575  0.00  0.00    +0.010 A 
ATOM      8  C   UNL     1      -1.560   3.770  25.460  0.00  0.00    +0.058 A 
BRANCH   3   2
ATOM      1  C   UNL     1      -1.646   5.388  25.126  0.00  0.00    +0.254 C 
ATOM      2  O   UNL     1      -0.961   4.964  24.951  0.00  0.00    -0.456 OA
ENDBRANCH   3   2
ENDBRANCH   9   6
ENDBRANCH  14  12
BRANCH  18  19
ATOM     19  C   UNL     1      -2.327  -0.638  24.895  0.00  0.00    +0.103 C 
BRANCH  19  20
ATOM     20  C   UNL     1      -2.952  -1.121  24.657  0.00  0.00    +0.028 A 
ATOM     21  C   UNL     1      -2.867  -1.942  24.668  0.00  0.00    +0.000 A 
ATOM     22  C   UNL     1      -3.493  -2.424  24.430  0.00  0.00    -0.000 A 
ATOM     23  C   UNL     1      -4.203  -2.086  24.180  0.00  0.00    +0.003 A 
ATOM     24  C   UNL     1      -4.287  -1.266  24.169  0.00  0.00    +0.037 A 
ATOM     25  C   UNL     1      -3.662  -0.783  24.407  0.00  0.00    +0.136 A 
BRANCH  25  26
ATOM     26  O   UNL     1      -3.747   0.038  24.395  0.00  0.00    -0.472 OA
ATOM     27  C   UNL     1      -4.498   0.375  24.443  0.00  0.00    +0.252 C 
ENDBRANCH  25  26
ENDBRANCH  19  20
ENDBRANCH  18  19
TORSDOF 6
ENDMDL
MODEL 5
REMARK VINA RESULT:     -10.3      2.349      4.201
REMARK  Name = 
REMARK  6 active torsions:
REMARK  status: ('A' for Active; 'I' for Inactive)
REMARK    1  A    between atoms: O_2  and  C_3
REMARK    2  A    between atoms: C_6  and  C_9
REMARK    3  A    between atoms: C_12  and  C_14
REMARK    4  A    between atoms: N_18  and  C_19
REMARK    5  A    between atoms: C_19  and  C_20
REMARK    6  A    between atoms: C_25  and  O_26
REMARK                            x       y       z     vdW  Elec       q    Type
REMARK                         _______ _______ _______ _____ _____    ______ ____
ROOT
ATOM     14  C   UNL     1      -3.177  -0.452  24.618  0.00  0.00    +0.138 C 
ATOM     15  C   UNL     1      -3.520  -1.191  24.487  0.00  0.00    +0.027 C 
ATOM     16  C   UNL     1      -4.334  -1.083  24.403  0.00  0.00    +0.019 C 
ATOM     17  C   UNL     1      -4.494  -0.277  24.483  0.00  0.00    +0.073 C 
ATOM     18  N   UNL     1      -3.779   0.113  24.615  0.00  0.00    -0.263 NA
ENDROOT
BRANCH  14  12
ATOM      9  C   UNL     1      -1.084  -0.050  24.498  0.00  0.00    +0.205 A 
ATOM     10  N   UNL     1      -1.190  -0.100  25.314  0.00  0.00    -0.056 NA
ATOM     11  O   UNL     1      -1.987  -0.258  25.459  0.00  0.00    -0.336 OA
ATOM     12  C   UNL     1      -2.374  -0.304  24.732  0.00  0.00    +0.251 A 
ATOM     13  N   UNL     1      -1.816  -0.175  24.137  0.00  0.00    -0.190 NA
BRANCH   9   6
ATOM      3  C   UNL     1       1.053   0.401  23.334  0.00  0.00    +0.225 A 
ATOM      4  N   UNL     1       0.763  -0.371  23.380  0.00  0.00    -0.210 NA
ATOM      5  C   UNL     1       0.051  -0.521  23.769  0.00  0.00    +0.105 A 
ATOM      6  C   UNL     1      -0.371   0.101  24.110  0.00  0.00    +0.058 A 
ATOM      7  C   UNL     1      -0.082   0.871  24.063  0.00  0.00    +0.010 A 
ATOM      8  C   UNL     1       0.630   1.021  23.675  0.00  0.00    +0.058 A 
BRANCH   3   2
ATOM      1  C   UNL     1       2.112  -0.034  22.479  0.00  0.00    +0.254 C 
ATOM      2  O   UNL     1       1.766   0.551  22.945  0.00  0.00    -0.456 OA
ENDBRANCH   3   2
ENDBRANCH   9   6
ENDBRANCH  14  12
BRANCH  18  19
ATOM     19  C   UNL     1      -3.683   0.925  24.726  0.00  0.00    +0.103 C 
BRANCH  19  20
ATOM     20  C   UNL     1      -4.342   1.404  24.854  0.00  0.00    +0.028 A 
ATOM     21  C   UNL     1      -4.964   1.134  25.324  0.00  0.00    +0.000 A 
ATOM     22  C   UNL     1      -5.622   1.614  25.451  0.00  0.00    -0.000 A 
ATOM     23  C   UNL     1      -5.659   2.364  25.110  0.00  0.00    +0.003 A 
ATOM     24  C   UNL     1      -5.037   2.634  24.640  0.00  0.00    +0.037 A 
ATOM     25  C   UNL     1      -4.378   2.154  24.512  0.00  0.00    +0.136 A 
BRANCH  25  26
ATOM     26  O   UNL     1      -3.756   2.425  24.043  0.00  0.00    -0.472 OA
ATOM     27  C   UNL     1      -3.744   3.208  23.785  0.00  0.00    +0.252 C 
ENDBRANCH  25  26
ENDBRANCH  19  20
ENDBRANCH  18  19
TORSDOF 6
ENDMDL
MODEL 6
REMARK VINA RESULT:      -9.8      1.834      3.086
REMARK  Name = 
REMARK  6 active torsions:
REMARK  status: ('A' for Active; 'I' for Inactive)
REMARK    1  A    between atoms: O_2  and  C_3
REMARK    2  A    between atoms: C_6  and  C_9
REMARK    3  A    between atoms: C_12  and  C_14
REMARK    4  A    between atoms: N_18  and  C_19
REMARK    5  A    between atoms: C_19  and  C_20
REMARK    6  A    between atoms: C_25  and  O_26
REMARK                            x       y       z     vdW  Elec       q    Type
REMARK                         _______ _______ _______ _____ _____    ______ ____
ROOT
ATOM     14  C   UNL     1      -2.027   3.133  24.998  0.00  0.00    +0.138 C 
ATOM     15  C   UNL     1      -1.592   3.750  25.332  0.00  0.00    +0.027 C 
ATOM     16  C   UNL     1      -2.124   4.325  25.591  0.00  0.00    +0.019 C 
ATOM     17  C   UNL     1      -2.888   4.063  25.418  0.00  0.00    +0.073 C 
ATOM     18  N   UNL     1      -2.827   3.327  25.052  0.00  0.00    -0.263 NA
ENDROOT
BRANCH  14  12
ATOM      9  C   UNL     1      -1.260   1.196  24.532  0.00  0.00    +0.205 A 
ATOM     10  N   UNL     1      -1.216   1.566  23.796  0.00  0.00    -0.056 NA
ATOM     11  O   UNL     1      -1.498   2.337  23.881  0.00  0.00    -0.336 OA
ATOM     12  C   UNL     1      -1.716   2.443  24.670  0.00  0.00    +0.251 A 
ATOM     13  N   UNL     1      -1.569   1.738  25.072  0.00  0.00    -0.190 NA
BRANCH   9   6
ATOM      3  C   UNL     1      -0.584  -1.132  25.032  0.00  0.00    +0.225 A 
ATOM      4  N   UNL     1      -0.201  -0.710  24.433  0.00  0.00    -0.210 NA
ATOM      5  C   UNL     1      -0.427   0.065  24.267  0.00  0.00    +0.105 A 
ATOM      6  C   UNL     1      -1.034   0.420  24.698  0.00  0.00    +0.058 A 
ATOM      7  C   UNL     1      -1.416  -0.001  25.296  0.00  0.00    +0.010 A 
ATOM      8  C   UNL     1      -1.191  -0.777  25.462  0.00  0.00    +0.058 A 
BRANCH   3   2
ATOM      1  C   UNL     1      -0.884  -2.528  25.063  0.00  0.00    +0.254 C 
ATOM      2  O   UNL     1      -0.358  -1.908  25.198  0.00  0.00    -0.456 OA
ENDBRANCH   3   2
ENDBRANCH   9   6
ENDBRANCH  14  12
BRANCH  18  19
ATOM     19  C   UNL     1      -3.457   2.865  24.785  0.00  0.00    +0.103 C 
BRANCH  19  20
ATOM     20  C   UNL     1      -4.220   3.009  25.063  0.00  0.00    +0.028 A 
ATOM     21  C   UNL     1      -4.441   3.771  25.288  0.00  0.00    +0.000 A 
ATOM     22  C   UNL     1      -5.204   3.915  25.566  0.00  0.00    -0.000 A 
ATOM     23  C   UNL     1      -5.747   3.296  25.619  0.00  0.00    +0.003 A 
ATOM     24  C   UNL     1      -5.527   2.534  25.393  0.00  0.00    +0.037 A 
ATOM     25  C   UNL     1      -4.764   2.390  25.115  0.00  0.00    +0.136 A 
BRANCH  25  26
ATOM     26  O   UNL     1      -4.544   1.627  24.890  0.00  0.00    -0.472 OA
ATOM     27  C   UNL     1      -5.072   1.001  24.986  0.00  0.00    +0.252 C 
ENDBRANCH  25  26
ENDBRANCH  19  20
ENDBRANCH  18  19
TORSDOF 6
ENDMDL
