MODEL 1
REMARK VINA RESULT:     -20.8      0.000      0.000
REMARK  Name = 
REMARK  2 active torsions:
REMARK  status: ('A' for Active; 'I' for Inactive)
REMARK    1  A    between atoms: C_4  and  N_5
REMARK    2  A    between atoms: C_17  and  C_22
REMARK                            x       y       z     vdW  Elec       q    Type
REMARK                         _______ _______ _______ _____ _____    ______ ____
ROOT
ATOM      5  N   UNL     1      -2.952   1.408  25.044  0.00  0.00    -0.162 NA
ATOM      6  C   UNL     1      -2.265   2.013  25.127  0.00  0.00    +0.327 C 
ATOM      7  O   UNL     1      -1.431   2.163  25.234  0.00  0.00    -0.250 OA
ATOM      8  N   UNL     1      -2.874   2.631  25.044  0.00  0.00    -0.262 N 
ATOM      9  C   UNL     1      -2.931   3.464  25.030  0.00  0.00    +0.097 C 
ATOM     10  C   UNL     1      -3.906   3.562  24.903  0.00  0.00    +0.043 C 
ATOM     11  C   UNL     1      -4.675   3.809  24.802  0.00  0.00    +0.011 C 
ATOM     12  C   UNL     1      -4.328   3.201  24.852  0.00  0.00    +0.058 C 
ATOM     13  C   UNL     1      -3.384   3.123  24.974  0.00  0.00    +0.101 C 
ATOM     14  C   UNL     1      -4.461   2.292  24.842  0.00  0.00    +0.041 A 
ATOM     15  C   UNL     1      -5.064   1.734  24.769  0.00  0.00    +0.013 A 
ATOM     16  C   UNL     1      -4.886   0.929  24.799  0.00  0.00    +0.006 A 
ATOM     17  C   UNL     1      -4.105   0.682  24.902  0.00  0.00    +0.056 A 
ATOM     18  C   UNL     1      -3.502   1.240  24.974  0.00  0.00    +0.261 A 
ATOM     19  O   UNL     1      -2.549   1.052  25.099  0.00  0.00    -0.267 OA
ATOM     20  N   UNL     1      -3.680   2.045  24.945  0.00  0.00    -0.299 N 
ATOM     21  C   UNL     1      -4.035   2.611  24.895  0.00  0.00    +0.110 C 
ENDROOT
BRANCH  17  22
ATOM     22  C   UNL     1      -3.928  -0.123  24.931  0.00  0.00    +0.005 A 
ATOM     23  C   UNL     1      -3.574  -0.548  25.381  0.00  0.00    +0.000 A 
ATOM     24  C   UNL     1      -3.312  -1.231  25.592  0.00  0.00    +0.000 A 
ATOM     25  C   UNL     1      -3.573  -1.733  24.992  0.00  0.00    +0.000 A 
ATOM     26  C   UNL     1      -3.395  -2.539  25.022  0.00  0.00    +0.000 A 
ATOM     27  C   UNL     1      -3.656  -3.041  24.421  0.00  0.00    +0.000 A 
ATOM     28  C   UNL     1      -4.093  -2.738  23.791  0.00  0.00    +0.000 A 
ATOM     29  C   UNL     1      -4.271  -1.933  23.761  0.00  0.00    +0.000 A 
ATOM     30  C   UNL     1      -4.010  -1.431  24.361  0.00  0.00    +0.000 A 
ATOM     31  C   UNL     1      -4.188  -0.625  24.331  0.00  0.00    +0.000 A 
ENDBRANCH  17  22
BRANCH   5   4
ATOM      1  F   UNL     1      -1.226  -0.677  23.888  0.00  0.00    -0.204 F 
ATOM      2  C   UNL     1      -1.782  -0.490  24.468  0.00  0.00    +0.141 A 
ATOM      3  C   UNL     1      -2.093   0.273  24.511  0.00  0.00    +0.046 A 
ATOM      4  C   UNL     1      -2.649   0.460  25.091  0.00  0.00    +0.077 A 
ATOM     32  C   UNL     1      -2.893  -0.116  25.629  0.00  0.00    +0.017 A 
ATOM     33  C   UNL     1      -2.582  -0.879  25.587  0.00  0.00    +0.004 A 
ATOM     34  C   UNL     1      -2.026  -1.066  25.007  0.00  0.00    +0.030 A 
ENDBRANCH   5   4
TORSDOF 2
ENDMDL
MODEL 2
REMARK VINA RESULT:     -20.0      1.306      3.979
REMARK  Name = 
REMARK  2 active torsions:
REMARK  status: ('A' for Active; 'I' for Inactive)
REMARK    1  A    between atoms: C_4  and  N_5
REMARK    2  A    between atoms: C_17  and  C_22
REMARK                            x       y       z     vdW  Elec       q    Type
REMARK                         _______ _______ _______ _____ _____    ______ ____
ROOT
ATOM      5  N   UNL     1      -2.394  -0.326  24.450  0.00  0.00    -0.162 NA
ATOM      6  C   UNL     1      -1.575  -0.734  24.531  0.00  0.00    +0.327 C 
ATOM      7  O   UNL     1      -0.725  -0.665  24.583  0.00  0.00    -0.250 OA
ATOM      8  N   UNL     1      -2.013  -1.487  24.551  0.00  0.00    -0.262 N 
ATOM      9  C   UNL     1      -1.861  -2.305  24.614  0.00  0.00    +0.097 C 
ATOM     10  C   UNL     1      -2.786  -2.650  24.575  0.00  0.00    +0.043 C 
ATOM     11  C   UNL     1      -3.474  -3.086  24.557  0.00  0.00    +0.011 C 
ATOM     12  C   UNL     1      -3.287  -2.410  24.526  0.00  0.00    +0.058 C 
ATOM     13  C   UNL     1      -2.387  -2.093  24.565  0.00  0.00    +0.101 C 
ATOM     14  C   UNL     1      -3.643  -1.567  24.447  0.00  0.00    +0.041 A 
ATOM     15  C   UNL     1      -4.369  -1.182  24.373  0.00  0.00    +0.013 A 
ATOM     16  C   UNL     1      -4.397  -0.360  24.318  0.00  0.00    +0.006 A 
ATOM     17  C   UNL     1      -3.698   0.079  24.336  0.00  0.00    +0.056 A 
ATOM     18  C   UNL     1      -2.972  -0.306  24.410  0.00  0.00    +0.261 A 
ATOM     19  O   UNL     1      -2.091   0.121  24.441  0.00  0.00    -0.267 OA
ATOM     20  N   UNL     1      -2.944  -1.128  24.465  0.00  0.00    -0.299 N 
ATOM     21  C   UNL     1      -3.149  -1.765  24.493  0.00  0.00    +0.110 C 
ENDROOT
BRANCH  17  22
ATOM     22  C   UNL     1      -3.726   0.901  24.281  0.00  0.00    +0.005 A 
ATOM     23  C   UNL     1      -3.407   1.393  23.874  0.00  0.00    +0.000 A 
ATOM     24  C   UNL     1      -3.289   2.115  23.666  0.00  0.00    +0.000 A 
ATOM     25  C   UNL     1      -3.781   2.546  24.168  0.00  0.00    +0.000 A 
ATOM     26  C   UNL     1      -3.809   3.370  24.112  0.00  0.00    +0.000 A 
ATOM     27  C   UNL     1      -4.302   3.800  24.615  0.00  0.00    +0.000 A 
ATOM     28  C   UNL     1      -4.766   3.409  25.173  0.00  0.00    +0.000 A 
ATOM     29  C   UNL     1      -4.738   2.587  25.229  0.00  0.00    +0.000 A 
ATOM     30  C   UNL     1      -4.246   2.156  24.727  0.00  0.00    +0.000 A 
ATOM     31  C   UNL     1      -4.218   1.332  24.783  0.00  0.00    +0.000 A 
ENDBRANCH  17  22
BRANCH   5   4
ATOM      1  F   UNL     1      -1.515   2.164  25.748  0.00  0.00    -0.204 F 
ATOM      2  C   UNL     1      -1.877   1.824  25.090  0.00  0.00    +0.141 A 
ATOM      3  C   UNL     1      -1.973   1.006  25.047  0.00  0.00    +0.046 A 
ATOM      4  C   UNL     1      -2.335   0.666  24.389  0.00  0.00    +0.077 A 
ATOM     32  C   UNL     1      -2.602   1.145  23.772  0.00  0.00    +0.017 A 
ATOM     33  C   UNL     1      -2.507   1.964  23.814  0.00  0.00    +0.004 A 
ATOM     34  C   UNL     1      -2.145   2.303  24.473  0.00  0.00    +0.030 A 
ENDBRANCH   5   4
TORSDOF 2
ENDMDL
MODEL 3
REMARK VINA RESULT:     -19.4      1.403      2.497
REMARK  Name = 
REMARK  2 active torsions:
REMARK  status: ('A' for Active; 'I' for Inactive)
REMARK    1  A    between atoms: C_4  and  N_5
REMARK    2  A    between atoms: C_17  and  C_22
REMARK                            x       y       z     vdW  Elec       q    Type
REMARK                         _______ _______ _______ _____ _____    ______ ____
ROOT
ATOM      5  N   UNL     1      -3.085   2.576  24.844  0.00  0.00    -0.162 NA
ATOM      6  C   UNL     1      -3.538   3.374  24.888  0.00  0.00    +0.327 C 
ATOM      7  O   UNL     1      -4.278   3.800  24.853  0.00  0.00    -0.250 OA
ATOM      8  N   UNL     1      -2.760   3.743  25.027  0.00  0.00    -0.262 N 
ATOM      9  C   UNL     1      -2.435   4.501  25.159  0.00  0.00    +0.097 C 
ATOM     10  C   UNL     1      -1.481   4.259  25.243  0.00  0.00    +0.043 C 
ATOM     11  C   UNL     1      -0.672   4.227  25.336  0.00  0.00    +0.011 C 
ATOM     12  C   UNL     1      -1.199   3.779  25.218  0.00  0.00    +0.058 C 
ATOM     13  C   UNL     1      -2.117   4.028  25.139  0.00  0.00    +0.101 C 
ATOM     14  C   UNL     1      -1.370   2.885  25.087  0.00  0.00    +0.041 A 
ATOM     15  C   UNL     1      -0.982   2.159  25.044  0.00  0.00    +0.013 A 
ATOM     16  C   UNL     1      -1.413   1.469  24.907  0.00  0.00    +0.006 A 
ATOM     17  C   UNL     1      -2.232   1.505  24.814  0.00  0.00    +0.056 A 
ATOM     18  C   UNL     1      -2.620   2.232  24.857  0.00  0.00    +0.261 A 
ATOM     19  O   UNL     1      -3.582   2.382  24.760  0.00  0.00    -0.267 OA
ATOM     20  N   UNL     1      -2.189   2.922  24.994  0.00  0.00    -0.299 N 
ATOM     21  C   UNL     1      -1.669   3.328  25.106  0.00  0.00    +0.110 C 
ENDROOT
BRANCH  17  22
ATOM     22  C   UNL     1      -2.662   0.815  24.677  0.00  0.00    +0.005 A 
ATOM     23  C   UNL     1      -3.147   0.607  24.198  0.00  0.00    +0.000 A 
ATOM     24  C   UNL     1      -3.622   0.088  23.908  0.00  0.00    +0.000 A 
ATOM     25  C   UNL     1      -3.523  -0.565  24.402  0.00  0.00    +0.000 A 
ATOM     26  C   UNL     1      -3.954  -1.256  24.265  0.00  0.00    +0.000 A 
ATOM     27  C   UNL     1      -3.854  -1.909  24.760  0.00  0.00    +0.000 A 
ATOM     28  C   UNL     1      -3.325  -1.872  25.391  0.00  0.00    +0.000 A 
ATOM     29  C   UNL     1      -2.894  -1.182  25.528  0.00  0.00    +0.000 A 
ATOM     30  C   UNL     1      -2.994  -0.529  25.034  0.00  0.00    +0.000 A 
ATOM     31  C   UNL     1      -2.563   0.162  25.171  0.00  0.00    +0.000 A 
ENDBRANCH  17  22
BRANCH   5   4
ATOM      1  F   UNL     1      -5.391   1.003  25.777  0.00  0.00    -0.204 F 
ATOM      2  C   UNL     1      -4.808   1.090  25.201  0.00  0.00    +0.141 A 
ATOM      3  C   UNL     1      -4.265   1.709  25.253  0.00  0.00    +0.046 A 
ATOM      4  C   UNL     1      -3.682   1.796  24.676  0.00  0.00    +0.077 A 
ATOM     32  C   UNL     1      -3.641   1.263  24.047  0.00  0.00    +0.017 A 
ATOM     33  C   UNL     1      -4.185   0.644  23.995  0.00  0.00    +0.004 A 
ATOM     34  C   UNL     1      -4.768   0.557  24.572  0.00  0.00    +0.030 A 
ENDBRANCH   5   4
TORSDOF 2
ENDMDL
MODEL 4
REMARK VINA RESULT:     -18.7      1.585      4.219
REMARK  Name = 
REMARK  2 active torsions:
REMARK  status: ('A' for Active; 'I' for Inactive)
REMARK    1  A    between atoms: C_4  and  N_5
REMARK    2  A    between atoms: C_17  and  C_22
REMARK                            x       y       z     vdW  Elec       q    Type
REMARK                         _______ _______ _______ _____ _____    ______ ____
ROOT
ATOM      5  N   UNL     1      -1.845   0.491  24.893  0.00  0.00    -0.162 NA
ATOM      6  C   UNL     1      -1.476  -0.310  25.151  0.00  0.00    +0.327 C 
ATOM      7  O   UNL     1      -0.806  -0.742  25.457  0.00  0.00    -0.250 OA
ATOM      8  N   UNL     1      -2.241  -0.668  24.938  0.00  0.00    -0.262 N 
ATOM      9  C   UNL     1      -2.607  -1.419  24.928  0.00  0.00    +0.097 C 
ATOM     10  C   UNL     1      -3.494  -1.167  24.574  0.00  0.00    +0.043 C 
ATOM     11  C   UNL     1      -4.259  -1.125  24.297  0.00  0.00    +0.011 C 
ATOM     12  C   UNL     1      -3.725  -0.685  24.415  0.00  0.00    +0.058 C 
ATOM     13  C   UNL     1      -2.873  -0.945  24.758  0.00  0.00    +0.101 C 
ATOM     14  C   UNL     1      -3.497   0.203  24.355  0.00  0.00    +0.041 A 
ATOM     15  C   UNL     1      -3.810   0.931  24.128  0.00  0.00    +0.013 A 
ATOM     16  C   UNL     1      -3.350   1.613  24.183  0.00  0.00    +0.006 A 
ATOM     17  C   UNL     1      -2.575   1.567  24.464  0.00  0.00    +0.056 A 
ATOM     18  C   UNL     1      -2.262   0.839  24.691  0.00  0.00    +0.261 A 
ATOM     19  O   UNL     1      -1.359   0.679  25.035  0.00  0.00    -0.267 OA
ATOM     20  N   UNL     1      -2.722   0.157  24.636  0.00  0.00    -0.299 N 
ATOM     21  C   UNL     1      -3.246  -0.242  24.514  0.00  0.00    +0.110 C 
ENDROOT
BRANCH  17  22
ATOM     22  C   UNL     1      -2.116   2.250  24.518  0.00  0.00    +0.005 A 
ATOM     23  C   UNL     1      -1.459   2.437  24.310  0.00  0.00    +0.000 A 
ATOM     24  C   UNL     1      -0.893   2.942  24.255  0.00  0.00    +0.000 A 
ATOM     25  C   UNL     1      -1.195   3.614  24.625  0.00  0.00    +0.000 A 
ATOM     26  C   UNL     1      -0.734   4.298  24.679  0.00  0.00    +0.000 A 
ATOM     27  C   UNL     1      -1.036   4.970  25.050  0.00  0.00    +0.000 A 
ATOM     28  C   UNL     1      -1.797   4.960  25.366  0.00  0.00    +0.000 A 
ATOM     29  C   UNL     1      -2.257   4.278  25.312  0.00  0.00    +0.000 A 
ATOM     30  C   UNL     1      -1.956   3.606  24.942  0.00  0.00    +0.000 A 
ATOM     31  C   UNL     1      -2.417   2.922  24.888  0.00  0.00    +0.000 A 
ENDBRANCH  17  22
BRANCH   5   4
ATOM      1  F   UNL     1      -0.210   2.106  26.731  0.00  0.00    -0.204 F 
ATOM      2  C   UNL     1      -0.456   1.991  25.952  0.00  0.00    +0.141 A 
ATOM      3  C   UNL     1      -0.975   1.377  25.770  0.00  0.00    +0.046 A 
ATOM      4  C   UNL     1      -1.221   1.261  24.991  0.00  0.00    +0.077 A 
ATOM     32  C   UNL     1      -0.948   1.762  24.394  0.00  0.00    +0.017 A 
ATOM     33  C   UNL     1      -0.429   2.377  24.576  0.00  0.00    +0.004 A 
ATOM     34  C   UNL     1      -0.183   2.491  25.355  0.00  0.00    +0.030 A 
ENDBRANCH   5   4
TORSDOF 2
ENDMDL
MODEL 5
REMARK VINA RESULT:     -18.7      1.543      4.490
REMARK  Name = 
REMARK  2 active torsions:
REMARK  status: ('A' for Active; 'I' for Inactive)
REMARK    1  A    between atoms: C_4  and  N_5
REMARK    2  A    between atoms: C_17  and  C_22
REMARK                            x       y       z     vdW  Elec       q    Type
REMARK                         _______ _______ _______ _____ _____    ______ ____
ROOT
ATOM      5  N   UNL     1      -3.646   1.418  24.856  0.00  0.00    -0.162 NA
ATOM      6  C   UNL     1      -4.503   1.136  24.683  0.00  0.00    +0.327 C 
ATOM      7  O   UNL     1      -5.323   1.329  24.544  0.00  0.00    -0.250 OA
ATOM      8  N   UNL     1      -4.179   0.327  24.695  0.00  0.00    -0.262 N 
ATOM      9  C   UNL     1      -4.442  -0.460  24.601  0.00  0.00    +0.097 C 
ATOM     10  C   UNL     1      -3.586  -0.937  24.730  0.00  0.00    +0.043 C 
ATOM     11  C   UNL     1      -2.975  -1.469  24.811  0.00  0.00    +0.011 C 
ATOM     12  C   UNL     1      -3.063  -0.774  24.835  0.00  0.00    +0.058 C 
ATOM     13  C   UNL     1      -3.898  -0.327  24.709  0.00  0.00    +0.101 C 
ATOM     14  C   UNL     1      -2.598   0.008  24.966  0.00  0.00    +0.041 A 
ATOM     15  C   UNL     1      -1.836   0.281  25.121  0.00  0.00    +0.013 A 
ATOM     16  C   UNL     1      -1.695   1.091  25.194  0.00  0.00    +0.006 A 
ATOM     17  C   UNL     1      -2.316   1.627  25.111  0.00  0.00    +0.056 A 
ATOM     18  C   UNL     1      -3.079   1.354  24.956  0.00  0.00    +0.261 A 
ATOM     19  O   UNL     1      -3.880   1.905  24.841  0.00  0.00    -0.267 OA
ATOM     20  N   UNL     1      -3.220   0.545  24.883  0.00  0.00    -0.299 N 
ATOM     21  C   UNL     1      -3.108  -0.115  24.865  0.00  0.00    +0.110 C 
ENDROOT
BRANCH  17  22
ATOM     22  C   UNL     1      -2.175   2.436  25.184  0.00  0.00    +0.005 A 
ATOM     23  C   UNL     1      -2.485   2.976  25.532  0.00  0.00    +0.000 A 
ATOM     24  C   UNL     1      -2.529   3.710  25.726  0.00  0.00    +0.000 A 
ATOM     25  C   UNL     1      -1.892   4.055  25.331  0.00  0.00    +0.000 A 
ATOM     26  C   UNL     1      -1.751   4.866  25.404  0.00  0.00    +0.000 A 
ATOM     27  C   UNL     1      -1.114   5.210  25.008  0.00  0.00    +0.000 A 
ATOM     28  C   UNL     1      -0.619   4.746  24.540  0.00  0.00    +0.000 A 
ATOM     29  C   UNL     1      -0.760   3.936  24.467  0.00  0.00    +0.000 A 
ATOM     30  C   UNL     1      -1.397   3.592  24.862  0.00  0.00    +0.000 A 
ATOM     31  C   UNL     1      -1.538   2.781  24.789  0.00  0.00    +0.000 A 
ENDBRANCH  17  22
BRANCH   5   4
ATOM      1  F   UNL     1      -3.973   4.013  23.505  0.00  0.00    -0.204 F 
ATOM      2  C   UNL     1      -3.753   3.622  24.197  0.00  0.00    +0.141 A 
ATOM      3  C   UNL     1      -3.786   2.799  24.236  0.00  0.00    +0.046 A 
ATOM      4  C   UNL     1      -3.566   2.409  24.928  0.00  0.00    +0.077 A 
ATOM     32  C   UNL     1      -3.313   2.843  25.583  0.00  0.00    +0.017 A 
ATOM     33  C   UNL     1      -3.280   3.667  25.545  0.00  0.00    +0.004 A 
ATOM     34  C   UNL     1      -3.500   4.056  24.852  0.00  0.00    +0.030 A 
ENDBRANCH   5   4
TORSDOF 2
ENDMDL
MODEL 6
REMARK VINA RESULT:     -18.6      1.269      2.078
REMARK  Name = 
REMARK  2 active torsions:
REMARK  status: ('A' for Active; 'I' for Inactive)
REMARK    1  A    between atoms: C_4  and  N_5
REMARK    2  A    between atoms: C_17  and  C_22
REMARK                            x       y       z     vdW  Elec       q    Type
REMARK                         _______ _______ _______ _____ _____    ______ ____
ROOT
ATOM      5  N   UNL     1      -4.243   0.980  24.828  0.00  0.00    -0.162 NA
ATOM      6  C   UNL     1      -5.009   1.273  25.243  0.00  0.00    +0.327 C 
ATOM      7  O   UNL     1      -5.702   1.097  25.711  0.00  0.00    -0.250 OA
ATOM      8  N   UNL     1      -4.799   2.065  24.946  0.00  0.00    -0.262 N 
ATOM      9  C   UNL     1      -5.095   2.846  24.967  0.00  0.00    +0.097 C 
ATOM     10  C   UNL     1      -4.396   3.302  24.437  0.00  0.00    +0.043 C 
ATOM     11  C   UNL     1      -3.914   3.816  24.029  0.00  0.00    +0.011 C 
ATOM     12  C   UNL     1      -3.930   3.131  24.182  0.00  0.00    +0.058 C 
ATOM     13  C   UNL     1      -4.613   2.706  24.696  0.00  0.00    +0.101 C 
ATOM     14  C   UNL     1      -3.460   2.353  24.053  0.00  0.00    +0.041 A 
ATOM     15  C   UNL     1      -2.777   2.070  23.687  0.00  0.00    +0.013 A 
ATOM     16  C   UNL     1      -2.584   1.269  23.736  0.00  0.00    +0.006 A 
ATOM     17  C   UNL     1      -3.075   0.751  24.150  0.00  0.00    +0.056 A 
ATOM     18  C   UNL     1      -3.758   1.034  24.515  0.00  0.00    +0.261 A 
ATOM     19  O   UNL     1      -4.403   0.504  25.027  0.00  0.00    -0.267 OA
ATOM     20  N   UNL     1      -3.951   1.834  24.467  0.00  0.00    -0.299 N 
ATOM     21  C   UNL     1      -3.912   2.483  24.307  0.00  0.00    +0.110 C 
ENDROOT
BRANCH  17  22
ATOM     22  C   UNL     1      -2.882  -0.049  24.197  0.00  0.00    +0.005 A 
ATOM     23  C   UNL     1      -3.228  -0.662  24.081  0.00  0.00    +0.000 A 
ATOM     24  C   UNL     1      -3.256  -1.422  24.062  0.00  0.00    +0.000 A 
ATOM     25  C   UNL     1      -2.498  -1.651  24.292  0.00  0.00    +0.000 A 
ATOM     26  C   UNL     1      -2.305  -2.452  24.340  0.00  0.00    +0.000 A 
ATOM     27  C   UNL     1      -1.546  -2.681  24.570  0.00  0.00    +0.000 A 
ATOM     28  C   UNL     1      -0.981  -2.109  24.753  0.00  0.00    +0.000 A 
ATOM     29  C   UNL     1      -1.173  -1.308  24.706  0.00  0.00    +0.000 A 
ATOM     30  C   UNL     1      -1.931  -1.080  24.475  0.00  0.00    +0.000 A 
ATOM     31  C   UNL     1      -2.124  -0.278  24.428  0.00  0.00    +0.000 A 
ENDBRANCH  17  22
BRANCH   5   4
ATOM      1  F   UNL     1      -3.710  -1.229  26.699  0.00  0.00    -0.204 F 
ATOM      2  C   UNL     1      -3.830  -1.009  25.913  0.00  0.00    +0.141 A 
ATOM      3  C   UNL     1      -3.968  -0.219  25.722  0.00  0.00    +0.046 A 
ATOM      4  C   UNL     1      -4.088   0.002  24.936  0.00  0.00    +0.077 A 
ATOM     32  C   UNL     1      -4.070  -0.570  24.341  0.00  0.00    +0.017 A 
ATOM     33  C   UNL     1      -3.933  -1.361  24.532  0.00  0.00    +0.004 A 
ATOM     34  C   UNL     1      -3.813  -1.580  25.318  0.00  0.00    +0.030 A 
ENDBRANCH   5   4
TORSDOF 2
ENDMDL
