MODEL 1
REMARK VINA RESULT:     -12.3      0.000      0.000
REMARK  Name = 
REMARK  7 active torsions:
REMARK  status: ('A' for Active; 'I' for Inactive)
REMARK    1  A    between atoms: C_2  and  C_5
REMARK    2  A    between atoms: C_8  and  C_11
REMARK    3  A    between atoms: C_20  and  C_22
REMARK    4  A    between atoms: C_30  and  C_31
REMARK    5  A    between atoms: C_31  and  C_32
REMARK    6  A    between atoms: N_34  and  C_35
REMARK    7  A    between atoms: C_35  and  C_36
REMARK                            x       y       z     vdW  Elec       q    Type
REMARK                         _______ _______ _______ _____ _____    ______ ____
ROOT
ATOM     11  C   UNL     1      -0.519   1.425  23.880  0.00  0.00    +0.271 C 
ATOM     12  O   UNL     1      -0.582   2.199  24.159  0.00  0.00    -0.268 OA
ATOM     13  N   UNL     1      -1.186   0.939  23.861  0.00  0.00    -0.151 NA
ATOM     14  C   UNL     1      -1.914   1.226  24.122  0.00  0.00    +0.185 A 
ATOM     15  N   UNL     1      -2.623   0.806  24.135  0.00  0.00    -0.227 NA
ATOM     16  C   UNL     1      -3.208   1.304  24.436  0.00  0.00    +0.063 A 
ATOM     17  C   UNL     1      -2.860   2.032  24.608  0.00  0.00    +0.023 A 
ATOM     18  C   UNL     1      -3.317   2.644  24.919  0.00  0.00    +0.034 C 
ATOM     19  C   UNL     1      -4.121   2.530  25.059  0.00  0.00    +0.010 C 
ATOM     20  C   UNL     1      -4.577   3.142  25.370  0.00  0.00    +0.059 C 
ATOM     21  C   UNL     1      -3.843   3.515  25.334  0.00  0.00    +0.005 C 
ATOM     24  C   UNL     1      -5.383   3.027  25.510  0.00  0.00    +0.154 C 
ATOM     25  O   UNL     1      -5.840   3.640  25.821  0.00  0.00    -0.223 OA
ATOM     26  C   UNL     1      -5.731   2.300  25.338  0.00  0.00    +0.033 C 
ATOM     27  C   UNL     1      -5.275   1.686  25.026  0.00  0.00    +0.003 C 
ATOM     28  C   UNL     1      -4.470   1.802  24.887  0.00  0.00    +0.006 C 
ATOM     29  C   UNL     1      -4.818   1.074  24.715  0.00  0.00    +0.000 C 
ATOM     30  C   UNL     1      -4.014   1.189  24.576  0.00  0.00    +0.050 C 
ATOM     41  S   UNL     1      -2.059   1.983  24.413  0.00  0.00    -0.054 S 
ENDROOT
BRANCH  11   8
ATOM      5  C   UNL     1       1.665   0.563  23.099  0.00  0.00    -0.023 A 
ATOM      6  C   UNL     1       1.627   1.272  23.518  0.00  0.00    -0.004 A 
ATOM      7  C   UNL     1       0.899   1.559  23.779  0.00  0.00    +0.004 A 
ATOM      8  C   UNL     1       0.209   1.138  23.619  0.00  0.00    +0.055 A 
ATOM      9  C   UNL     1       0.246   0.429  23.200  0.00  0.00    +0.004 A 
ATOM     10  C   UNL     1       0.974   0.141  22.940  0.00  0.00    -0.004 A 
BRANCH   5   2
ATOM      1  C   UNL     1       3.122  -0.012  22.578  0.00  0.00    +0.004 C 
ATOM      2  C   UNL     1       2.393   0.275  22.839  0.00  0.00    +0.019 C 
ATOM      3  C   UNL     1       2.019  -0.388  22.522  0.00  0.00    +0.004 C 
ATOM      4  C   UNL     1       2.768   0.939  23.155  0.00  0.00    +0.004 C 
ENDBRANCH   5   2
ENDBRANCH  11   8
BRANCH  20  22
ATOM     22  C   UNL     1      -4.779   3.884  25.669  0.00  0.00    +0.184 C 
ATOM     23  O   UNL     1      -4.188   4.426  25.862  0.00  0.00    -0.220 OA
ENDBRANCH  20  22
BRANCH  30  31
ATOM     31  C   UNL     1      -4.362   0.462  24.404  0.00  0.00    +0.093 C 
BRANCH  31  32
ATOM     32  C   UNL     1      -4.225  -0.187  24.894  0.00  0.00    +0.242 C 
ATOM     33  O   UNL     1      -4.296  -0.108  25.712  0.00  0.00    -0.273 OA
ATOM     34  N   UNL     1      -4.017  -0.915  24.566  0.00  0.00    -0.197 NA
BRANCH  34  35
ATOM     35  C   UNL     1      -3.880  -1.564  25.056  0.00  0.00    +0.179 C 
BRANCH  35  36
ATOM     36  C   UNL     1      -3.456  -2.212  24.773  0.00  0.00    +0.145 A 
ATOM     37  C   UNL     1      -3.771  -2.859  24.368  0.00  0.00    +0.038 A 
ATOM     38  C   UNL     1      -3.152  -3.375  24.189  0.00  0.00    +0.043 A 
ATOM     39  C   UNL     1      -2.455  -3.047  24.484  0.00  0.00    +0.179 A 
ATOM     40  O   UNL     1      -2.642  -2.329  24.844  0.00  0.00    -0.453 OA
ENDBRANCH  35  36
ENDBRANCH  34  35
ENDBRANCH  31  32
ENDBRANCH  30  31
TORSDOF 7
ENDMDL
MODEL 2
REMARK VINA RESULT:     -12.1      2.306      4.701
REMARK  Name = 
REMARK  7 active torsions:
REMARK  status: ('A' for Active; 'I' for Inactive)
REMARK    1  A    between atoms: C_2  and  C_5
REMARK    2  A    between atoms: C_8  and  C_11
REMARK    3  A    between atoms: C_20  and  C_22
REMARK    4  A    between atoms: C_30  and  C_31
REMARK    5  A    between atoms: C_31  and  C_32
REMARK    6  A    between atoms: N_34  and  C_35
REMARK    7  A    between atoms: C_35  and  C_36
REMARK                            x       y       z     vdW  Elec       q    Type
REMARK                         _______ _______ _______ _____ _____    ______ ____
ROOT
ATOM     11  C   UNL     1      -2.468   0.087  24.499  0.00  0.00    +0.271 C 
ATOM     12  O   UNL     1      -1.765   0.279  24.112  0.00  0.00    -0.268 OA
ATOM     13  N   UNL     1      -2.884   0.669  24.910  0.00  0.00    -0.151 NA
ATOM     14  C   UNL     1      -2.597   1.442  24.934  0.00  0.00    +0.185 A 
ATOM     15  N   UNL     1      -2.952   2.078  25.321  0.00  0.00    -0.227 NA
ATOM     16  C   UNL     1      -2.479   2.744  25.202  0.00  0.00    +0.063 A 
ATOM     17  C   UNL     1      -1.832   2.519  24.741  0.00  0.00    +0.023 A 
ATOM     18  C   UNL     1      -1.261   3.076  24.532  0.00  0.00    +0.034 C 
ATOM     19  C   UNL     1      -1.335   3.858  24.783  0.00  0.00    +0.010 C 
ATOM     20  C   UNL     1      -0.764   4.414  24.575  0.00  0.00    +0.059 C 
ATOM     21  C   UNL     1      -0.453   3.745  24.206  0.00  0.00    +0.005 C 
ATOM     24  C   UNL     1      -0.838   5.197  24.826  0.00  0.00    +0.154 C 
ATOM     25  O   UNL     1      -0.266   5.754  24.617  0.00  0.00    -0.223 OA
ATOM     26  C   UNL     1      -1.484   5.422  25.286  0.00  0.00    +0.033 C 
ATOM     27  C   UNL     1      -2.056   4.865  25.496  0.00  0.00    +0.003 C 
ATOM     28  C   UNL     1      -1.981   4.083  25.244  0.00  0.00    +0.006 C 
ATOM     29  C   UNL     1      -2.628   4.309  25.705  0.00  0.00    +0.000 C 
ATOM     30  C   UNL     1      -2.553   3.527  25.454  0.00  0.00    +0.050 C 
ATOM     41  S   UNL     1      -1.906   1.713  24.576  0.00  0.00    -0.054 S 
ENDROOT
BRANCH  11   8
ATOM      5  C   UNL     1      -3.330  -2.232  24.426  0.00  0.00    -0.023 A 
ATOM      6  C   UNL     1      -2.544  -2.090  24.634  0.00  0.00    -0.004 A 
ATOM      7  C   UNL     1      -2.257  -1.317  24.659  0.00  0.00    +0.004 A 
ATOM      8  C   UNL     1      -2.755  -0.686  24.475  0.00  0.00    +0.055 A 
ATOM      9  C   UNL     1      -3.540  -0.828  24.266  0.00  0.00    +0.004 A 
ATOM     10  C   UNL     1      -3.827  -1.601  24.242  0.00  0.00    -0.004 A 
BRANCH   5   2
ATOM      1  C   UNL     1      -3.904  -3.778  24.377  0.00  0.00    +0.004 C 
ATOM      2  C   UNL     1      -3.617  -3.005  24.402  0.00  0.00    +0.019 C 
ATOM      3  C   UNL     1      -3.225  -3.173  25.108  0.00  0.00    +0.004 C 
ATOM      4  C   UNL     1      -4.008  -2.838  23.695  0.00  0.00    +0.004 C 
ENDBRANCH   5   2
ENDBRANCH  11   8
BRANCH  20  22
ATOM     22  C   UNL     1      -0.084   4.739  24.237  0.00  0.00    +0.184 C 
ATOM     23  O   UNL     1       0.274   4.370  23.593  0.00  0.00    -0.220 OA
ENDBRANCH  20  22
BRANCH  30  31
ATOM     31  C   UNL     1      -3.199   3.752  25.913  0.00  0.00    +0.093 C 
BRANCH  31  32
ATOM     32  C   UNL     1      -3.956   3.763  25.586  0.00  0.00    +0.242 C 
ATOM     33  O   UNL     1      -4.097   4.186  24.892  0.00  0.00    -0.273 OA
ATOM     34  N   UNL     1      -4.570   3.352  25.952  0.00  0.00    -0.197 NA
BRANCH  34  35
ATOM     35  C   UNL     1      -5.326   3.364  25.624  0.00  0.00    +0.179 C 
BRANCH  35  36
ATOM     36  C   UNL     1      -5.835   2.725  25.737  0.00  0.00    +0.145 A 
ATOM     37  C   UNL     1      -6.140   2.236  25.146  0.00  0.00    +0.038 A 
ATOM     38  C   UNL     1      -6.622   1.671  25.505  0.00  0.00    +0.043 A 
ATOM     39  C   UNL     1      -6.615   1.810  26.318  0.00  0.00    +0.179 A 
ATOM     40  O   UNL     1      -6.128   2.461  26.462  0.00  0.00    -0.453 OA
ENDBRANCH  35  36
ENDBRANCH  34  35
ENDBRANCH  31  32
ENDBRANCH  30  31
TORSDOF 7
ENDMDL
MODEL 3
REMARK VINA RESULT:     -11.8      1.616      4.887
REMARK  Name = 
REMARK  7 active torsions:
REMARK  status: ('A' for Active; 'I' for Inactive)
REMARK    1  A    between atoms: C_2  and  C_5
REMARK    2  A    between atoms: C_8  and  C_11
REMARK    3  A    between atoms: C_20  and  C_22
REMARK    4  A    between atoms: C_30  and  C_31
REMARK    5  A    between atoms: C_31  and  C_32
REMARK    6  A    between atoms: N_34  and  C_35
REMARK    7  A    between atoms: C_35  and  C_36
REMARK                            x       y       z     vdW  Elec       q    Type
REMARK                         _______ _______ _______ _____ _____    ______ ____
ROOT
ATOM     11  C   UNL     1      -3.084   0.056  24.629  0.00  0.00    +0.271 C 
ATOM     12  O   UNL     1      -3.570   0.566  25.057  0.00  0.00    -0.268 OA
ATOM     13  N   UNL     1      -2.376   0.334  24.310  0.00  0.00    -0.151 NA
ATOM     14  C   UNL     1      -2.154   1.120  24.420  0.00  0.00    +0.185 A 
ATOM     15  N   UNL     1      -1.465   1.473  24.135  0.00  0.00    -0.227 NA
ATOM     16  C   UNL     1      -1.467   2.264  24.373  0.00  0.00    +0.063 A 
ATOM     17  C   UNL     1      -2.157   2.398  24.805  0.00  0.00    +0.023 A 
ATOM     18  C   UNL     1      -2.309   3.147  25.115  0.00  0.00    +0.034 C 
ATOM     19  C   UNL     1      -1.772   3.761  24.995  0.00  0.00    +0.010 C 
ATOM     20  C   UNL     1      -1.924   4.509  25.306  0.00  0.00    +0.059 C 
ATOM     21  C   UNL     1      -2.596   4.107  25.566  0.00  0.00    +0.005 C 
ATOM     24  C   UNL     1      -1.387   5.124  25.185  0.00  0.00    +0.154 C 
ATOM     25  O   UNL     1      -1.539   5.873  25.496  0.00  0.00    -0.223 OA
ATOM     26  C   UNL     1      -0.697   4.990  24.753  0.00  0.00    +0.033 C 
ATOM     27  C   UNL     1      -0.544   4.240  24.442  0.00  0.00    +0.003 C 
ATOM     28  C   UNL     1      -1.082   3.627  24.563  0.00  0.00    +0.006 C 
ATOM     29  C   UNL     1      -0.392   3.492  24.131  0.00  0.00    +0.000 C 
ATOM     30  C   UNL     1      -0.929   2.878  24.252  0.00  0.00    +0.050 C 
ATOM     41  S   UNL     1      -2.581   1.691  24.833  0.00  0.00    -0.054 S 
ENDROOT
BRANCH  11   8
ATOM      5  C   UNL     1      -3.750  -2.305  24.299  0.00  0.00    -0.023 A 
ATOM      6  C   UNL     1      -3.126  -2.119  24.804  0.00  0.00    -0.004 A 
ATOM      7  C   UNL     1      -2.903  -1.332  24.914  0.00  0.00    +0.004 A 
ATOM      8  C   UNL     1      -3.306  -0.731  24.519  0.00  0.00    +0.055 A 
ATOM      9  C   UNL     1      -3.931  -0.916  24.014  0.00  0.00    +0.004 A 
ATOM     10  C   UNL     1      -4.153  -1.703  23.904  0.00  0.00    -0.004 A 
BRANCH   5   2
ATOM      1  C   UNL     1      -4.195  -3.879  24.079  0.00  0.00    +0.004 C 
ATOM      2  C   UNL     1      -3.972  -3.092  24.189  0.00  0.00    +0.019 C 
ATOM      3  C   UNL     1      -4.450  -2.868  23.554  0.00  0.00    +0.004 C 
ATOM      4  C   UNL     1      -3.495  -3.315  24.824  0.00  0.00    +0.004 C 
ENDBRANCH   5   2
ENDBRANCH  11   8
BRANCH  20  22
ATOM     22  C   UNL     1      -2.310   5.119  25.707  0.00  0.00    +0.184 C 
ATOM     23  O   UNL     1      -2.972   4.954  26.170  0.00  0.00    -0.220 OA
ENDBRANCH  20  22
BRANCH  30  31
ATOM     31  C   UNL     1      -0.240   2.744  23.821  0.00  0.00    +0.093 C 
BRANCH  31  32
ATOM     32  C   UNL     1       0.348   2.250  24.124  0.00  0.00    +0.242 C 
ATOM     33  O   UNL     1       0.500   2.242  24.934  0.00  0.00    -0.273 OA
ATOM     34  N   UNL     1       0.782   1.766  23.617  0.00  0.00    -0.197 NA
BRANCH  34  35
ATOM     35  C   UNL     1       1.369   1.273  23.920  0.00  0.00    +0.179 C 
BRANCH  35  36
ATOM     36  C   UNL     1       1.883   0.880  23.409  0.00  0.00    +0.145 A 
ATOM     37  C   UNL     1       1.712   0.195  22.981  0.00  0.00    +0.038 A 
ATOM     38  C   UNL     1       2.382  -0.006  22.542  0.00  0.00    +0.043 A 
ATOM     39  C   UNL     1       2.966   0.555  22.699  0.00  0.00    +0.179 A 
ATOM     40  O   UNL     1       2.658   1.102  23.234  0.00  0.00    -0.453 OA
ENDBRANCH  35  36
ENDBRANCH  34  35
ENDBRANCH  31  32
ENDBRANCH  30  31
TORSDOF 7
ENDMDL
MODEL 4
REMARK VINA RESULT:     -10.9      1.604      4.000
REMARK  Name = 
REMARK  7 active torsions:
REMARK  status: ('A' for Active; 'I' for Inactive)
REMARK    1  A    between atoms: C_2  and  C_5
REMARK    2  A    between atoms: C_8  and  C_11
REMARK    3  A    between atoms: C_20  and  C_22
REMARK    4  A    between atoms: C_30  and  C_31
REMARK    5  A    between atoms: C_31  and  C_32
REMARK    6  A    between atoms: N_34  and  C_35
REMARK    7  A    between atoms: C_35  and  C_36
REMARK                            x       y       z     vdW  Elec       q    Type
REMARK                         _______ _______ _______ _____ _____    ______ ____
ROOT
ATOM     11  C   UNL     1       0.719   0.102  23.404  0.00  0.00    +0.271 C 
ATOM     12  O   UNL     1       0.431  -0.667  23.481  0.00  0.00    -0.268 OA
ATOM     13  N   UNL     1       0.210   0.743  23.499  0.00  0.00    -0.151 NA
ATOM     14  C   UNL     1      -0.587   0.617  23.670  0.00  0.00    +0.185 A 
ATOM     15  N   UNL     1      -1.158   1.202  23.779  0.00  0.00    -0.227 NA
ATOM     16  C   UNL     1      -1.876   0.829  23.939  0.00  0.00    +0.063 A 
ATOM     17  C   UNL     1      -1.749   0.014  23.929  0.00  0.00    +0.023 A 
ATOM     18  C   UNL     1      -2.376  -0.503  24.072  0.00  0.00    +0.034 C 
ATOM     19  C   UNL     1      -3.129  -0.205  24.226  0.00  0.00    +0.010 C 
ATOM     20  C   UNL     1      -3.755  -0.722  24.369  0.00  0.00    +0.059 C 
ATOM     21  C   UNL     1      -3.146  -1.265  24.251  0.00  0.00    +0.005 C 
ATOM     24  C   UNL     1      -4.510  -0.425  24.523  0.00  0.00    +0.154 C 
ATOM     25  O   UNL     1      -5.137  -0.942  24.667  0.00  0.00    -0.223 OA
ATOM     26  C   UNL     1      -4.637   0.390  24.534  0.00  0.00    +0.033 C 
ATOM     27  C   UNL     1      -4.010   0.908  24.390  0.00  0.00    +0.003 C 
ATOM     28  C   UNL     1      -3.257   0.610  24.236  0.00  0.00    +0.006 C 
ATOM     29  C   UNL     1      -3.384   1.425  24.247  0.00  0.00    +0.000 C 
ATOM     30  C   UNL     1      -2.631   1.127  24.093  0.00  0.00    +0.050 C 
ATOM     41  S   UNL     1      -0.951  -0.117  23.762  0.00  0.00    -0.054 S 
ENDROOT
BRANCH  11   8
ATOM      5  C   UNL     1       3.110   0.482  22.889  0.00  0.00    -0.023 A 
ATOM      6  C   UNL     1       2.709  -0.151  22.545  0.00  0.00    -0.004 A 
ATOM      7  C   UNL     1       1.912  -0.278  22.716  0.00  0.00    +0.004 A 
ATOM      8  C   UNL     1       1.516   0.228  23.232  0.00  0.00    +0.055 A 
ATOM      9  C   UNL     1       1.916   0.862  23.577  0.00  0.00    +0.004 A 
ATOM     10  C   UNL     1       2.713   0.988  23.405  0.00  0.00    -0.004 A 
BRANCH   5   2
ATOM      1  C   UNL     1       4.704   0.736  22.546  0.00  0.00    +0.004 C 
ATOM      2  C   UNL     1       3.907   0.609  22.718  0.00  0.00    +0.019 C 
ATOM      3  C   UNL     1       3.715   1.324  22.353  0.00  0.00    +0.004 C 
ATOM      4  C   UNL     1       4.099  -0.106  23.082  0.00  0.00    +0.004 C 
ENDBRANCH   5   2
ENDBRANCH  11   8
BRANCH  20  22
ATOM     22  C   UNL     1      -4.171  -1.428  24.472  0.00  0.00    +0.184 C 
ATOM     23  O   UNL     1      -3.796  -2.151  24.338  0.00  0.00    -0.220 OA
ENDBRANCH  20  22
BRANCH  30  31
ATOM     31  C   UNL     1      -2.758   1.941  24.104  0.00  0.00    +0.093 C 
BRANCH  31  32
ATOM     32  C   UNL     1      -2.513   2.390  24.751  0.00  0.00    +0.242 C 
ATOM     33  O   UNL     1      -2.567   2.076  25.512  0.00  0.00    -0.273 OA
ATOM     34  N   UNL     1      -2.214   3.150  24.638  0.00  0.00    -0.197 NA
BRANCH  34  35
ATOM     35  C   UNL     1      -1.969   3.597  25.286  0.00  0.00    +0.179 C 
BRANCH  35  36
ATOM     36  C   UNL     1      -1.641   4.345  25.170  0.00  0.00    +0.145 A 
ATOM     37  C   UNL     1      -0.856   4.505  24.970  0.00  0.00    +0.038 A 
ATOM     38  C   UNL     1      -0.770   5.324  24.910  0.00  0.00    +0.043 A 
ATOM     39  C   UNL     1      -1.501   5.670  25.073  0.00  0.00    +0.179 A 
ATOM     40  O   UNL     1      -2.039   5.065  25.233  0.00  0.00    -0.453 OA
ENDBRANCH  35  36
ENDBRANCH  34  35
ENDBRANCH  31  32
ENDBRANCH  30  31
TORSDOF 7
ENDMDL
MODEL 5
REMARK VINA RESULT:     -10.6      1.868      5.200
REMARK  Name = 
REMARK  7 active torsions:
REMARK  status: ('A' for Active; 'I' for Inactive)
REMARK    1  A    between atoms: C_2  and  C_5
REMARK    2  A    between atoms: C_8  and  C_11
REMARK    3  A    between atoms: C_20  and  C_22
REMARK    4  A    between atoms: C_30  and  C_31
REMARK    5  A    between atoms: C_31  and  C_32
REMARK    6  A    between atoms: N_34  and  C_35
REMARK    7  A    between atoms: C_35  and  C_36
REMARK                            x       y       z     vdW  Elec       q    Type
REMARK                         _______ _______ _______ _____ _____    ______ ____
ROOT
ATOM     11  C   UNL     1      -2.181   2.458  24.908  0.00  0.00    +0.271 C 
ATOM     12  O   UNL     1      -2.953   2.177  24.979  0.00  0.00    -0.268 OA
ATOM     13  N   UNL     1      -1.559   1.929  24.795  0.00  0.00    -0.151 NA
ATOM     14  C   UNL     1      -1.708   1.119  24.751  0.00  0.00    +0.185 A 
ATOM     15  N   UNL     1      -1.144   0.528  24.639  0.00  0.00    -0.227 NA
ATOM     16  C   UNL     1      -1.536  -0.199  24.630  0.00  0.00    +0.063 A 
ATOM     17  C   UNL     1      -2.341  -0.056  24.736  0.00  0.00    +0.023 A 
ATOM     18  C   UNL     1      -2.873  -0.686  24.752  0.00  0.00    +0.034 C 
ATOM     19  C   UNL     1      -2.601  -1.459  24.660  0.00  0.00    +0.010 C 
ATOM     20  C   UNL     1      -3.132  -2.089  24.676  0.00  0.00    +0.059 C 
ATOM     21  C   UNL     1      -3.653  -1.458  24.785  0.00  0.00    +0.005 C 
ATOM     24  C   UNL     1      -2.860  -2.862  24.585  0.00  0.00    +0.154 C 
ATOM     25  O   UNL     1      -3.392  -3.493  24.600  0.00  0.00    -0.223 OA
ATOM     26  C   UNL     1      -2.054  -3.005  24.478  0.00  0.00    +0.033 C 
ATOM     27  C   UNL     1      -1.521  -2.375  24.463  0.00  0.00    +0.003 C 
ATOM     28  C   UNL     1      -1.795  -1.602  24.554  0.00  0.00    +0.006 C 
ATOM     29  C   UNL     1      -0.990  -1.745  24.448  0.00  0.00    +0.000 C 
ATOM     30  C   UNL     1      -1.262  -0.973  24.539  0.00  0.00    +0.050 C 
ATOM     41  S   UNL     1      -2.448   0.759  24.811  0.00  0.00    -0.054 S 
ENDROOT
BRANCH  11   8
ATOM      5  C   UNL     1      -1.732   4.889  25.040  0.00  0.00    -0.023 A 
ATOM      6  C   UNL     1      -1.108   4.351  25.082  0.00  0.00    -0.004 A 
ATOM      7  C   UNL     1      -1.258   3.540  25.038  0.00  0.00    +0.004 A 
ATOM      8  C   UNL     1      -2.031   3.269  24.952  0.00  0.00    +0.055 A 
ATOM      9  C   UNL     1      -2.655   3.806  24.910  0.00  0.00    +0.004 A 
ATOM     10  C   UNL     1      -2.505   4.616  24.954  0.00  0.00    -0.004 A 
BRANCH   5   2
ATOM      1  C   UNL     1      -1.432   6.509  25.128  0.00  0.00    +0.004 C 
ATOM      2  C   UNL     1      -1.582   5.699  25.084  0.00  0.00    +0.019 C 
ATOM      3  C   UNL     1      -2.337   5.822  25.392  0.00  0.00    +0.004 C 
ATOM      4  C   UNL     1      -0.826   5.576  24.776  0.00  0.00    +0.004 C 
ENDBRANCH   5   2
ENDBRANCH  11   8
BRANCH  20  22
ATOM     22  C   UNL     1      -3.846  -2.500  24.729  0.00  0.00    +0.184 C 
ATOM     23  O   UNL     1      -4.518  -2.213  24.348  0.00  0.00    -0.220 OA
ENDBRANCH  20  22
BRANCH  30  31
ATOM     31  C   UNL     1      -0.458  -1.116  24.433  0.00  0.00    +0.093 C 
BRANCH  31  32
ATOM     32  C   UNL     1      -0.104  -0.962  23.704  0.00  0.00    +0.242 C 
ATOM     33  O   UNL     1      -0.466  -1.218  23.008  0.00  0.00    -0.273 OA
ATOM     34  N   UNL     1       0.612  -0.553  23.670  0.00  0.00    -0.197 NA
BRANCH  34  35
ATOM     35  C   UNL     1       0.965  -0.399  22.941  0.00  0.00    +0.179 C 
BRANCH  35  36
ATOM     36  C   UNL     1       1.682   0.008  22.908  0.00  0.00    +0.145 A 
ATOM     37  C   UNL     1       2.359  -0.235  22.503  0.00  0.00    +0.038 A 
ATOM     38  C   UNL     1       2.943   0.337  22.618  0.00  0.00    +0.043 A 
ATOM     39  C   UNL     1       2.627   0.933  23.094  0.00  0.00    +0.179 A 
ATOM     40  O   UNL     1       1.847   0.729  23.272  0.00  0.00    -0.453 OA
ENDBRANCH  35  36
ENDBRANCH  34  35
ENDBRANCH  31  32
ENDBRANCH  30  31
TORSDOF 7
ENDMDL
MODEL 6
REMARK VINA RESULT:     -10.1      2.188      4.700
REMARK  Name = 
REMARK  7 active torsions:
REMARK  status: ('A' for Active; 'I' for Inactive)
REMARK    1  A    between atoms: C_2  and  C_5
REMARK    2  A    between atoms: C_8  and  C_11
REMARK    3  A    between atoms: C_20  and  C_22
REMARK    4  A    between atoms: C_30  and  C_31
REMARK    5  A    between atoms: C_31  and  C_32
REMARK    6  A    between atoms: N_34  and  C_35
REMARK    7  A    between atoms: C_35  and  C_36
REMARK                            x       y       z     vdW  Elec       q    Type
REMARK                         _______ _______ _______ _____ _____    ______ ____
ROOT
ATOM     11  C   UNL     1      -1.469   2.282  24.683  0.00  0.00    +0.271 C 
ATOM     12  O   UNL     1      -0.866   1.723  24.745  0.00  0.00    -0.268 OA
ATOM     13  N   UNL     1      -2.250   2.036  24.585  0.00  0.00    -0.151 NA
ATOM     14  C   UNL     1      -2.428   1.231  24.549  0.00  0.00    +0.185 A 
ATOM     15  N   UNL     1      -3.179   0.905  24.453  0.00  0.00    -0.227 NA
ATOM     16  C   UNL     1      -3.101   0.083  24.447  0.00  0.00    +0.063 A 
ATOM     17  C   UNL     1      -2.301  -0.097  24.540  0.00  0.00    +0.023 A 
ATOM     18  C   UNL     1      -2.056  -0.885  24.555  0.00  0.00    +0.034 C 
ATOM     19  C   UNL     1      -2.609  -1.492  24.477  0.00  0.00    +0.010 C 
ATOM     20  C   UNL     1      -2.363  -2.278  24.492  0.00  0.00    +0.059 C 
ATOM     21  C   UNL     1      -1.636  -1.900  24.587  0.00  0.00    +0.005 C 
ATOM     24  C   UNL     1      -2.916  -2.886  24.415  0.00  0.00    +0.154 C 
ATOM     25  O   UNL     1      -2.671  -3.673  24.430  0.00  0.00    -0.223 OA
ATOM     26  C   UNL     1      -3.716  -2.705  24.322  0.00  0.00    +0.033 C 
ATOM     27  C   UNL     1      -3.962  -1.917  24.307  0.00  0.00    +0.003 C 
ATOM     28  C   UNL     1      -3.408  -1.311  24.385  0.00  0.00    +0.006 C 
ATOM     29  C   UNL     1      -4.208  -1.131  24.292  0.00  0.00    +0.000 C 
ATOM     30  C   UNL     1      -3.655  -0.524  24.369  0.00  0.00    +0.050 C 
ATOM     41  S   UNL     1      -1.885   0.613  24.603  0.00  0.00    -0.054 S 
ENDROOT
BRANCH  11   8
ATOM      5  C   UNL     1      -0.937   4.697  24.791  0.00  0.00    -0.023 A 
ATOM      6  C   UNL     1      -0.484   4.195  24.319  0.00  0.00    -0.004 A 
ATOM      7  C   UNL     1      -0.661   3.390  24.283  0.00  0.00    +0.004 A 
ATOM      8  C   UNL     1      -1.292   3.087  24.719  0.00  0.00    +0.055 A 
ATOM      9  C   UNL     1      -1.745   3.588  25.191  0.00  0.00    +0.004 A 
ATOM     10  C   UNL     1      -1.568   4.393  25.227  0.00  0.00    -0.004 A 
BRANCH   5   2
ATOM      1  C   UNL     1      -0.582   6.307  24.863  0.00  0.00    +0.004 C 
ATOM      2  C   UNL     1      -0.760   5.502  24.827  0.00  0.00    +0.019 C 
ATOM      3  C   UNL     1      -0.004   5.348  24.533  0.00  0.00    +0.004 C 
ATOM      4  C   UNL     1      -1.515   5.655  25.121  0.00  0.00    +0.004 C 
ENDBRANCH   5   2
ENDBRANCH  11   8
BRANCH  20  22
ATOM     22  C   UNL     1      -1.865  -2.935  24.540  0.00  0.00    +0.184 C 
ATOM     23  O   UNL     1      -1.082  -2.842  24.782  0.00  0.00    -0.220 OA
ENDBRANCH  20  22
BRANCH  30  31
ATOM     31  C   UNL     1      -4.454  -0.344  24.277  0.00  0.00    +0.093 C 
BRANCH  31  32
ATOM     32  C   UNL     1      -4.870   0.016  24.891  0.00  0.00    +0.242 C 
ATOM     33  O   UNL     1      -4.876  -0.329  25.641  0.00  0.00    -0.273 OA
ATOM     34  N   UNL     1      -5.279   0.719  24.757  0.00  0.00    -0.197 NA
BRANCH  34  35
ATOM     35  C   UNL     1      -5.695   1.078  25.372  0.00  0.00    +0.179 C 
BRANCH  35  36
ATOM     36  C   UNL     1      -5.743   1.901  25.412  0.00  0.00    +0.145 A 
ATOM     37  C   UNL     1      -5.710   2.355  26.100  0.00  0.00    +0.038 A 
ATOM     38  C   UNL     1      -5.779   3.149  25.885  0.00  0.00    +0.043 A 
ATOM     39  C   UNL     1      -5.855   3.185  25.064  0.00  0.00    +0.179 A 
ATOM     40  O   UNL     1      -5.833   2.413  24.772  0.00  0.00    -0.453 OA
ENDBRANCH  35  36
ENDBRANCH  34  35
ENDBRANCH  31  32
ENDBRANCH  30  31
TORSDOF 7
ENDMDL
MODEL 7
REMARK VINA RESULT:      -8.7     14.419     17.009
REMARK  Name = 
REMARK  7 active torsions:
REMARK  status: ('A' for Active; 'I' for Inactive)
REMARK    1  A    between atoms: C_2  and  C_5
REMARK    2  A    between atoms: C_8  and  C_11
REMARK    3  A    between atoms: C_20  and  C_22
REMARK    4  A    between atoms: C_30  and  C_31
REMARK    5  A    between atoms: C_31  and  C_32
REMARK    6  A    between atoms: N_34  and  C_35
REMARK    7  A    between atoms: C_35  and  C_36
REMARK                            x       y       z     vdW  Elec       q    Type
REMARK                         _______ _______ _______ _____ _____    ______ ____
ROOT
ATOM     11  C   UNL     1      -6.142  -9.957  14.216  0.00  0.00    +0.271 C 
ATOM     12  O   UNL     1      -6.930 -10.069  14.001  0.00  0.00    -0.268 OA
ATOM     13  N   UNL     1      -5.598  -9.683  13.660  0.00  0.00    -0.151 NA
ATOM     14  C   UNL     1      -5.843  -9.520  12.889  0.00  0.00    +0.185 A 
ATOM     15  N   UNL     1      -5.363  -9.244  12.277  0.00  0.00    -0.227 NA
ATOM     16  C   UNL     1      -5.834  -9.158  11.605  0.00  0.00    +0.063 A 
ATOM     17  C   UNL     1      -6.603  -9.381  11.802  0.00  0.00    +0.023 A 
ATOM     18  C   UNL     1      -7.200  -9.351  11.232  0.00  0.00    +0.034 C 
ATOM     19  C   UNL     1      -7.027  -9.099  10.466  0.00  0.00    +0.010 C 
ATOM     20  C   UNL     1      -7.623  -9.069   9.897  0.00  0.00    +0.059 C 
ATOM     21  C   UNL     1      -8.055  -9.345  10.544  0.00  0.00    +0.005 C 
ATOM     24  C   UNL     1      -7.451  -8.816   9.131  0.00  0.00    +0.154 C 
ATOM     25  O   UNL     1      -8.047  -8.787   8.561  0.00  0.00    -0.223 OA
ATOM     26  C   UNL     1      -6.681  -8.593   8.934  0.00  0.00    +0.033 C 
ATOM     27  C   UNL     1      -6.084  -8.623   9.503  0.00  0.00    +0.003 C 
ATOM     28  C   UNL     1      -6.258  -8.875  10.269  0.00  0.00    +0.006 C 
ATOM     29  C   UNL     1      -5.488  -8.652  10.072  0.00  0.00    +0.000 C 
ATOM     30  C   UNL     1      -5.661  -8.905  10.838  0.00  0.00    +0.050 C 
ATOM     41  S   UNL     1      -6.608  -9.605  12.596  0.00  0.00    -0.054 S 
ENDROOT
BRANCH  11   8
ATOM      5  C   UNL     1      -5.408 -10.446  16.529  0.00  0.00    -0.023 A 
ATOM      6  C   UNL     1      -4.858 -10.205  15.963  0.00  0.00    -0.004 A 
ATOM      7  C   UNL     1      -5.103 -10.042  15.192  0.00  0.00    +0.004 A 
ATOM      8  C   UNL     1      -5.897 -10.120  14.987  0.00  0.00    +0.055 A 
ATOM      9  C   UNL     1      -6.448 -10.361  15.552  0.00  0.00    +0.004 A 
ATOM     10  C   UNL     1      -6.203 -10.524  16.323  0.00  0.00    -0.004 A 
BRANCH   5   2
ATOM      1  C   UNL     1      -4.919 -10.772  18.071  0.00  0.00    +0.004 C 
ATOM      2  C   UNL     1      -5.164 -10.609  17.300  0.00  0.00    +0.019 C 
ATOM      3  C   UNL     1      -4.383 -10.670  17.039  0.00  0.00    +0.004 C 
ATOM      4  C   UNL     1      -5.944 -10.548  17.560  0.00  0.00    +0.004 C 
ENDBRANCH   5   2
ENDBRANCH  11   8
BRANCH  20  22
ATOM     22  C   UNL     1      -8.370  -9.135   9.552  0.00  0.00    +0.184 C 
ATOM     23  O   UNL     1      -8.963  -9.565   9.931  0.00  0.00    -0.220 OA
ENDBRANCH  20  22
BRANCH  30  31
ATOM     31  C   UNL     1      -4.892  -8.682  10.641  0.00  0.00    +0.093 C 
BRANCH  31  32
ATOM     32  C   UNL     1      -4.320  -9.258  10.493  0.00  0.00    +0.242 C 
ATOM     33  O   UNL     1      -4.508  -9.914  10.030  0.00  0.00    -0.273 OA
ATOM     34  N   UNL     1      -3.562  -9.177  10.808  0.00  0.00    -0.197 NA
BRANCH  34  35
ATOM     35  C   UNL     1      -2.991  -9.753  10.660  0.00  0.00    +0.179 C 
BRANCH  35  36
ATOM     36  C   UNL     1      -2.303  -9.778  11.115  0.00  0.00    +0.145 A 
ATOM     37  C   UNL     1      -1.603  -9.368  10.958  0.00  0.00    +0.038 A 
ATOM     38  C   UNL     1      -1.061  -9.554  11.552  0.00  0.00    +0.043 A 
ATOM     39  C   UNL     1      -1.426 -10.077  12.075  0.00  0.00    +0.179 A 
ATOM     40  O   UNL     1      -2.193 -10.215  11.805  0.00  0.00    -0.453 OA
ENDBRANCH  35  36
ENDBRANCH  34  35
ENDBRANCH  31  32
ENDBRANCH  30  31
TORSDOF 7
ENDMDL
MODEL 8
REMARK VINA RESULT:      -8.7      1.486      5.602
REMARK  Name = 
REMARK  7 active torsions:
REMARK  status: ('A' for Active; 'I' for Inactive)
REMARK    1  A    between atoms: C_2  and  C_5
REMARK    2  A    between atoms: C_8  and  C_11
REMARK    3  A    between atoms: C_20  and  C_22
REMARK    4  A    between atoms: C_30  and  C_31
REMARK    5  A    between atoms: C_31  and  C_32
REMARK    6  A    between atoms: N_34  and  C_35
REMARK    7  A    between atoms: C_35  and  C_36
REMARK                            x       y       z     vdW  Elec       q    Type
REMARK                         _______ _______ _______ _____ _____    ______ ____
ROOT
ATOM     11  C   UNL     1      -2.183   2.555  24.533  0.00  0.00    +0.271 C 
ATOM     12  O   UNL     1      -1.515   3.036  24.482  0.00  0.00    -0.268 OA
ATOM     13  N   UNL     1      -2.128   1.753  24.350  0.00  0.00    -0.151 NA
ATOM     14  C   UNL     1      -1.405   1.432  24.115  0.00  0.00    +0.185 A 
ATOM     15  N   UNL     1      -1.268   0.643  23.916  0.00  0.00    -0.227 NA
ATOM     16  C   UNL     1      -0.471   0.566  23.717  0.00  0.00    +0.063 A 
ATOM     17  C   UNL     1      -0.117   1.307  23.793  0.00  0.00    +0.023 A 
ATOM     18  C   UNL     1       0.687   1.398  23.628  0.00  0.00    +0.034 C 
ATOM     19  C   UNL     1       1.135   0.750  23.387  0.00  0.00    +0.010 C 
ATOM     20  C   UNL     1       1.938   0.842  23.223  0.00  0.00    +0.059 C 
ATOM     21  C   UNL     1       1.745   1.616  23.432  0.00  0.00    +0.005 C 
ATOM     24  C   UNL     1       2.387   0.193  22.981  0.00  0.00    +0.154 C 
ATOM     25  O   UNL     1       3.190   0.285  22.816  0.00  0.00    -0.223 OA
ATOM     26  C   UNL     1       2.032  -0.548  22.905  0.00  0.00    +0.033 C 
ATOM     27  C   UNL     1       1.229  -0.640  23.070  0.00  0.00    +0.003 C 
ATOM     28  C   UNL     1       0.781   0.009  23.311  0.00  0.00    +0.006 C 
ATOM     29  C   UNL     1       0.426  -0.732  23.234  0.00  0.00    +0.000 C 
ATOM     30  C   UNL     1      -0.022  -0.084  23.475  0.00  0.00    +0.050 C 
ATOM     41  S   UNL     1      -0.695   1.842  24.040  0.00  0.00    -0.054 S 
ENDROOT
BRANCH  11   8
ATOM      5  C   UNL     1      -4.351   3.520  25.236  0.00  0.00    -0.023 A 
ATOM      6  C   UNL     1      -4.296   3.103  24.527  0.00  0.00    -0.004 A 
ATOM      7  C   UNL     1      -3.573   2.781  24.293  0.00  0.00    +0.004 A 
ATOM      8  C   UNL     1      -2.906   2.877  24.768  0.00  0.00    +0.055 A 
ATOM      9  C   UNL     1      -2.961   3.294  25.477  0.00  0.00    +0.004 A 
ATOM     10  C   UNL     1      -3.684   3.615  25.711  0.00  0.00    -0.004 A 
BRANCH   5   2
ATOM      1  C   UNL     1      -5.797   4.163  25.705  0.00  0.00    +0.004 C 
ATOM      2  C   UNL     1      -5.074   3.841  25.471  0.00  0.00    +0.019 C 
ATOM      3  C   UNL     1      -5.325   3.096  25.720  0.00  0.00    +0.004 C 
ATOM      4  C   UNL     1      -4.824   4.587  25.221  0.00  0.00    +0.004 C 
ENDBRANCH   5   2
ENDBRANCH  11   8
BRANCH  20  22
ATOM     22  C   UNL     1       2.674   1.203  23.130  0.00  0.00    +0.184 C 
ATOM     23  O   UNL     1       2.746   2.020  23.209  0.00  0.00    -0.220 OA
ENDBRANCH  20  22
BRANCH  30  31
ATOM     31  C   UNL     1      -0.376  -0.824  23.399  0.00  0.00    +0.093 C 
BRANCH  31  32
ATOM     32  C   UNL     1      -0.637  -1.228  24.069  0.00  0.00    +0.242 C 
ATOM     33  O   UNL     1      -0.170  -1.243  24.748  0.00  0.00    -0.273 OA
ATOM     34  N   UNL     1      -1.365  -1.616  24.060  0.00  0.00    -0.197 NA
BRANCH  34  35
ATOM     35  C   UNL     1      -1.626  -2.019  24.730  0.00  0.00    +0.179 C 
BRANCH  35  36
ATOM     36  C   UNL     1      -2.400  -2.302  24.766  0.00  0.00    +0.145 A 
ATOM     37  C   UNL     1      -2.991  -2.033  25.277  0.00  0.00    +0.038 A 
ATOM     38  C   UNL     1      -3.676  -2.468  25.125  0.00  0.00    +0.043 A 
ATOM     39  C   UNL     1      -3.508  -3.005  24.521  0.00  0.00    +0.179 A 
ATOM     40  O   UNL     1      -2.720  -2.902  24.300  0.00  0.00    -0.453 OA
ENDBRANCH  35  36
ENDBRANCH  34  35
ENDBRANCH  31  32
ENDBRANCH  30  31
TORSDOF 7
ENDMDL
MODEL 9
REMARK VINA RESULT:      -8.6      1.775      6.083
REMARK  Name = 
REMARK  7 active torsions:
REMARK  status: ('A' for Active; 'I' for Inactive)
REMARK    1  A    between atoms: C_2  and  C_5
REMARK    2  A    between atoms: C_8  and  C_11
REMARK    3  A    between atoms: C_20  and  C_22
REMARK    4  A    between atoms: C_30  and  C_31
REMARK    5  A    between atoms: C_31  and  C_32
REMARK    6  A    between atoms: N_34  and  C_35
REMARK    7  A    between atoms: C_35  and  C_36
REMARK                            x       y       z     vdW  Elec       q    Type
REMARK                         _______ _______ _______ _____ _____    ______ ____
ROOT
ATOM     11  C   UNL     1      -4.622   1.698  25.025  0.00  0.00    +0.271 C 
ATOM     12  O   UNL     1      -5.114   1.106  24.729  0.00  0.00    -0.268 OA
ATOM     13  N   UNL     1      -3.832   1.531  25.192  0.00  0.00    -0.151 NA
ATOM     14  C   UNL     1      -3.533   0.773  25.063  0.00  0.00    +0.185 A 
ATOM     15  N   UNL     1      -2.759   0.527  25.203  0.00  0.00    -0.227 NA
ATOM     16  C   UNL     1      -2.704  -0.270  24.997  0.00  0.00    +0.063 A 
ATOM     17  C   UNL     1      -3.445  -0.516  24.730  0.00  0.00    +0.023 A 
ATOM     18  C   UNL     1      -3.556  -1.296  24.484  0.00  0.00    +0.034 C 
ATOM     19  C   UNL     1      -2.928  -1.829  24.506  0.00  0.00    +0.010 C 
ATOM     20  C   UNL     1      -3.040  -2.608  24.260  0.00  0.00    +0.059 C 
ATOM     21  C   UNL     1      -3.799  -2.309  24.138  0.00  0.00    +0.005 C 
ATOM     24  C   UNL     1      -2.411  -3.142  24.281  0.00  0.00    +0.154 C 
ATOM     25  O   UNL     1      -2.523  -3.922  24.035  0.00  0.00    -0.223 OA
ATOM     26  C   UNL     1      -1.671  -2.897  24.549  0.00  0.00    +0.033 C 
ATOM     27  C   UNL     1      -1.558  -2.117  24.795  0.00  0.00    +0.003 C 
ATOM     28  C   UNL     1      -2.187  -1.583  24.773  0.00  0.00    +0.006 C 
ATOM     29  C   UNL     1      -1.446  -1.338  25.041  0.00  0.00    +0.000 C 
ATOM     30  C   UNL     1      -2.074  -0.804  25.019  0.00  0.00    +0.050 C 
ATOM     41  S   UNL     1      -3.957   0.130  24.770  0.00  0.00    -0.054 S 
ENDROOT
BRANCH  11   8
ATOM      5  C   UNL     1      -5.517   3.973  25.414  0.00  0.00    -0.023 A 
ATOM      6  C   UNL     1      -5.881   3.321  25.763  0.00  0.00    -0.004 A 
ATOM      7  C   UNL     1      -5.583   2.562  25.633  0.00  0.00    +0.004 A 
ATOM      8  C   UNL     1      -4.920   2.457  25.155  0.00  0.00    +0.055 A 
ATOM      9  C   UNL     1      -4.555   3.108  24.806  0.00  0.00    +0.004 A 
ATOM     10  C   UNL     1      -4.853   3.866  24.935  0.00  0.00    -0.004 A 
BRANCH   5   2
ATOM      1  C   UNL     1      -6.113   5.490  25.673  0.00  0.00    +0.004 C 
ATOM      2  C   UNL     1      -5.815   4.731  25.543  0.00  0.00    +0.019 C 
ATOM      3  C   UNL     1      -5.049   5.011  25.670  0.00  0.00    +0.004 C 
ATOM      4  C   UNL     1      -6.581   4.452  25.416  0.00  0.00    +0.004 C 
ENDBRANCH   5   2
ENDBRANCH  11   8
BRANCH  20  22
ATOM     22  C   UNL     1      -3.415  -3.284  23.972  0.00  0.00    +0.184 C 
ATOM     23  O   UNL     1      -4.230  -3.283  23.848  0.00  0.00    -0.220 OA
ENDBRANCH  20  22
BRANCH  30  31
ATOM     31  C   UNL     1      -1.335  -0.559  25.286  0.00  0.00    +0.093 C 
BRANCH  31  32
ATOM     32  C   UNL     1      -0.867  -0.068  24.816  0.00  0.00    +0.242 C 
ATOM     33  O   UNL     1      -0.662  -0.304  24.052  0.00  0.00    -0.273 OA
ATOM     34  N   UNL     1      -0.606   0.657  25.108  0.00  0.00    -0.197 NA
BRANCH  34  35
ATOM     35  C   UNL     1      -0.139   1.147  24.637  0.00  0.00    +0.179 C 
BRANCH  35  36
ATOM     36  C   UNL     1      -0.131   1.961  24.769  0.00  0.00    +0.145 A 
ATOM     37  C   UNL     1       0.079   2.336  25.474  0.00  0.00    +0.038 A 
ATOM     38  C   UNL     1       0.008   3.150  25.361  0.00  0.00    +0.043 A 
ATOM     39  C   UNL     1      -0.246   3.279  24.586  0.00  0.00    +0.179 A 
ATOM     40  O   UNL     1      -0.331   2.544  24.221  0.00  0.00    -0.453 OA
ENDBRANCH  35  36
ENDBRANCH  34  35
ENDBRANCH  31  32
ENDBRANCH  30  31
TORSDOF 7
ENDMDL
MODEL 10
REMARK VINA RESULT:      -8.4     13.716     15.755
REMARK  Name = 
REMARK  7 active torsions:
REMARK  status: ('A' for Active; 'I' for Inactive)
REMARK    1  A    between atoms: C_2  and  C_5
REMARK    2  A    between atoms: C_8  and  C_11
REMARK    3  A    between atoms: C_20  and  C_22
REMARK    4  A    between atoms: C_30  and  C_31
REMARK    5  A    between atoms: C_31  and  C_32
REMARK    6  A    between atoms: N_34  and  C_35
REMARK    7  A    between atoms: C_35  and  C_36
REMARK                            x       y       z     vdW  Elec       q    Type
REMARK                         _______ _______ _______ _____ _____    ______ ____
ROOT
ATOM     11  C   UNL     1      -6.193  -9.746  12.583  0.00  0.00    +0.271 C 
ATOM     12  O   UNL     1      -5.377  -9.835  12.665  0.00  0.00    -0.268 OA
ATOM     13  N   UNL     1      -6.681  -9.797  13.246  0.00  0.00    -0.151 NA
ATOM     14  C   UNL     1      -6.353  -9.937  13.990  0.00  0.00    +0.185 A 
ATOM     15  N   UNL     1      -6.771 -10.001  14.698  0.00  0.00    -0.227 NA
ATOM     16  C   UNL     1      -6.227 -10.141  15.303  0.00  0.00    +0.063 A 
ATOM     17  C   UNL     1      -5.473 -10.163  14.967  0.00  0.00    +0.023 A 
ATOM     18  C   UNL     1      -4.813 -10.296  15.444  0.00  0.00    +0.034 C 
ATOM     19  C   UNL     1      -4.906 -10.406  16.256  0.00  0.00    +0.010 C 
ATOM     20  C   UNL     1      -4.247 -10.538  16.732  0.00  0.00    +0.059 C 
ATOM     21  C   UNL     1      -3.880 -10.465  15.997  0.00  0.00    +0.005 C 
ATOM     24  C   UNL     1      -4.339 -10.649  17.545  0.00  0.00    +0.154 C 
ATOM     25  O   UNL     1      -3.679 -10.781  18.022  0.00  0.00    -0.223 OA
ATOM     26  C   UNL     1      -5.092 -10.626  17.881  0.00  0.00    +0.033 C 
ATOM     27  C   UNL     1      -5.753 -10.494  17.404  0.00  0.00    +0.003 C 
ATOM     28  C   UNL     1      -5.659 -10.384  16.592  0.00  0.00    +0.006 C 
ATOM     29  C   UNL     1      -6.413 -10.361  16.927  0.00  0.00    +0.000 C 
ATOM     30  C   UNL     1      -6.320 -10.251  16.116  0.00  0.00    +0.050 C 
ATOM     41  S   UNL     1      -5.552 -10.037  14.155  0.00  0.00    -0.054 S 
ENDROOT
BRANCH  11   8
ATOM      5  C   UNL     1      -7.175  -9.325  10.350  0.00  0.00    -0.023 A 
ATOM      6  C   UNL     1      -7.191 -10.085  10.672  0.00  0.00    -0.004 A 
ATOM      7  C   UNL     1      -6.863 -10.225  11.416  0.00  0.00    +0.004 A 
ATOM      8  C   UNL     1      -6.520  -9.606  11.839  0.00  0.00    +0.055 A 
ATOM      9  C   UNL     1      -6.504  -8.846  11.518  0.00  0.00    +0.004 A 
ATOM     10  C   UNL     1      -6.832  -8.706  10.774  0.00  0.00    -0.004 A 
BRANCH   5   2
ATOM      1  C   UNL     1      -7.830  -9.045   8.862  0.00  0.00    +0.004 C 
ATOM      2  C   UNL     1      -7.503  -9.185   9.606  0.00  0.00    +0.019 C 
ATOM      3  C   UNL     1      -7.994  -8.607   9.931  0.00  0.00    +0.004 C 
ATOM      4  C   UNL     1      -7.011  -9.763   9.281  0.00  0.00    +0.004 C 
ENDBRANCH   5   2
ENDBRANCH  11   8
BRANCH  20  22
ATOM     22  C   UNL     1      -3.459 -10.646  16.954  0.00  0.00    +0.184 C 
ATOM     23  O   UNL     1      -2.853 -10.481  16.419  0.00  0.00    -0.220 OA
ENDBRANCH  20  22
BRANCH  30  31
ATOM     31  C   UNL     1      -7.072 -10.229  16.451  0.00  0.00    +0.093 C 
BRANCH  31  32
ATOM     32  C   UNL     1      -7.431  -9.504  16.613  0.00  0.00    +0.242 C 
ATOM     33  O   UNL     1      -6.967  -8.831  16.722  0.00  0.00    -0.273 OA
ATOM     34  N   UNL     1      -8.253  -9.453  16.666  0.00  0.00    -0.197 NA
BRANCH  34  35
ATOM     35  C   UNL     1      -8.610  -8.728  16.828  0.00  0.00    +0.179 C 
BRANCH  35  36
ATOM     36  C   UNL     1      -9.413  -8.697  17.014  0.00  0.00    +0.145 A 
ATOM     37  C   UNL     1      -9.938  -8.096  16.801  0.00  0.00    +0.038 A 
ATOM     38  C   UNL     1     -10.682  -8.289  17.102  0.00  0.00    +0.043 A 
ATOM     39  C   UNL     1     -10.617  -9.008  17.500  0.00  0.00    +0.179 A 
ATOM     40  O   UNL     1      -9.833  -9.260  17.446  0.00  0.00    -0.453 OA
ENDBRANCH  35  36
ENDBRANCH  34  35
ENDBRANCH  31  32
ENDBRANCH  30  31
TORSDOF 7
ENDMDL
