REMARK  Name = 
REMARK  6 active torsions:
REMARK  status: ('A' for Active; 'I' for Inactive)
REMARK    1  A    between atoms: C_2  and  N_4
REMARK    2  A    between atoms: N_7  and  C_8
REMARK    3  A    between atoms: C_10  and  C_11
REMARK    4  A    between atoms: C_11  and  C_12
REMARK    5  A    between atoms: C_15  and  C_16
REMARK    6  A    between atoms: C_16  and  C_17
REMARK                            x       y       z     vdW  Elec       q    Type
REMARK                         _______ _______ _______ _____ _____    ______ ____
ROOT
ATOM      8  C   UNL     1       1.001  -4.943   0.000  0.00  0.00    +0.097 C 
ATOM      9  C   UNL     1       1.798  -4.729   0.000  0.00  0.00    +0.022 C 
ATOM     10  C   UNL     1       2.011  -5.526   0.000  0.00  0.00    +0.009 C 
ATOM     20  C   UNL     1       1.215  -5.740   0.000  0.00  0.00    +0.019 C 
ATOM     21  C   UNL     1       1.236  -6.565   0.000  0.00  0.00    +0.002 C 
ATOM     22  C   UNL     1       0.490  -6.134   0.000  0.00  0.00    +0.002 C 
ENDROOT
BRANCH   8   7
ATOM      4  N   UNL     1      -1.142  -4.530   0.000  0.00  0.00    -0.189 NA
ATOM      5  C   UNL     1      -0.428  -4.943   0.000  0.00  0.00    +0.339 C 
ATOM      6  O   UNL     1      -0.428  -5.768   0.000  0.00  0.00    -0.249 OA
ATOM      7  N   UNL     1       0.287  -4.530   0.000  0.00  0.00    -0.189 NA
BRANCH   4   2
ATOM      1  C   UNL     1      -2.571  -4.530   0.000  0.00  0.00    +0.023 C 
ATOM      2  C   UNL     1      -1.857  -4.943   0.000  0.00  0.00    +0.097 C 
ATOM      3  C   UNL     1      -1.857  -5.768   0.000  0.00  0.00    +0.023 C 
ENDBRANCH   4   2
ENDBRANCH   8   7
BRANCH  10  11
ATOM     11  C   UNL     1       2.726  -5.939   0.000  0.00  0.00    +0.049 C 
BRANCH  11  12
ATOM     12  C   UNL     1       3.441  -5.526   0.000  0.00  0.00    +0.100 A 
ATOM     13  N   UNL     1       3.527  -4.706   0.000  0.00  0.00    -0.082 NA
ATOM     14  O   UNL     1       4.334  -4.534   0.000  0.00  0.00    -0.358 OA
ATOM     15  C   UNL     1       4.746  -5.249   0.000  0.00  0.00    +0.157 A 
ATOM     19  C   UNL     1       4.194  -5.862   0.000  0.00  0.00    +0.054 A 
BRANCH  15  16
ATOM     16  C   UNL     1       5.567  -5.335   0.000  0.00  0.00    +0.103 C 
BRANCH  16  17
ATOM     17  C   UNL     1       5.902  -6.089   0.000  0.00  0.00    +0.190 C 
ATOM     18  O   UNL     1       6.723  -6.175   0.000  0.00  0.00    -0.220 OA
ENDBRANCH  16  17
ENDBRANCH  15  16
ENDBRANCH  11  12
ENDBRANCH  10  11
TORSDOF 6
