REMARK  Name = 
REMARK  3 active torsions:
REMARK  status: ('A' for Active; 'I' for Inactive)
REMARK    1  A    between atoms: C_5  and  C_8
REMARK    2  A    between atoms: C_11  and  C_13
REMARK    3  A    between atoms: N_16  and  C_18
REMARK                            x       y       z     vdW  Elec       q    Type
REMARK                         _______ _______ _______ _____ _____    ______ ____
ROOT
ATOM      8  C   UNL     1       2.054   9.349   0.000  0.00  0.00    +0.250 A 
ATOM      9  N   UNL     1       2.721   9.834   0.000  0.00  0.00    -0.107 NA
ATOM     10  N   UNL     1       3.389   9.349   0.000  0.00  0.00    -0.111 NA
ATOM     11  C   UNL     1       3.134   8.565   0.000  0.00  0.00    +0.227 A 
ATOM     12  O   UNL     1       2.309   8.565   0.000  0.00  0.00    -0.419 OA
ENDROOT
BRANCH   8   5
ATOM      1 CL   UNL     1      -1.085  10.369   0.000  0.00  0.00    -0.082 Cl
ATOM      2  C   UNL     1      -0.300  10.114   0.000  0.00  0.00    +0.058 A 
ATOM      3  C   UNL     1       0.313  10.666   0.000  0.00  0.00    +0.012 A 
ATOM      4  C   UNL     1       1.098  10.411   0.000  0.00  0.00    +0.006 A 
ATOM      5  C   UNL     1       1.269   9.604   0.000  0.00  0.00    +0.055 A 
ATOM      6  C   UNL     1       0.656   9.052   0.000  0.00  0.00    +0.006 A 
ATOM      7  C   UNL     1      -0.128   9.307   0.000  0.00  0.00    +0.012 A 
ENDBRANCH   8   5
BRANCH  11  13
ATOM     13  C   UNL     1       3.619   7.897   0.000  0.00  0.00    +0.096 C 
ATOM     14  C   UNL     1       4.444   7.897   0.000  0.00  0.00    +0.028 C 
ATOM     15  C   UNL     1       4.699   7.113   0.000  0.00  0.00    +0.073 C 
ATOM     16  N   UNL     1       4.031   6.628   0.000  0.00  0.00    -0.274 NA
ATOM     17  C   UNL     1       3.364   7.113   0.000  0.00  0.00    +0.081 C 
BRANCH  16  18
ATOM     18  C   UNL     1       4.031   5.803   0.000  0.00  0.00    +0.058 C 
ATOM     19  C   UNL     1       4.615   5.219   0.000  0.00  0.00    +0.016 C 
ATOM     20  C   UNL     1       4.031   4.636   0.000  0.00  0.00    +0.003 C 
ATOM     21  C   UNL     1       3.448   5.219   0.000  0.00  0.00    +0.016 C 
ENDBRANCH  16  18
ENDBRANCH  11  13
TORSDOF 3
