MODEL 1
REMARK VINA RESULT:     -13.2      0.000      0.000
REMARK  Name = 
REMARK  5 active torsions:
REMARK  status: ('A' for Active; 'I' for Inactive)
REMARK    1  A    between atoms: C_5  and  C_8
REMARK    2  A    between atoms: C_10  and  C_11
REMARK    3  A    between atoms: C_11  and  C_12
REMARK    4  A    between atoms: C_17  and  C_18
REMARK    5  A    between atoms: C_18  and  C_19
REMARK                            x       y       z     vdW  Elec       q    Type
REMARK                         _______ _______ _______ _____ _____    ______ ____
ROOT
ATOM     12  C   UNL     1      -4.751   2.139  24.787  0.00  0.00    +0.024 C 
ATOM     13  C   UNL     1      -5.407   2.012  25.272  0.00  0.00    +0.089 C 
ATOM     14  N   UNL     1      -5.712   2.630  25.724  0.00  0.00    -0.218 NA
ATOM     15  C   UNL     1      -5.363   3.376  25.692  0.00  0.00    +0.089 C 
ATOM     16  C   UNL     1      -4.707   3.505  25.207  0.00  0.00    +0.019 C 
ATOM     17  C   UNL     1      -4.402   2.886  24.755  0.00  0.00    +0.012 C 
ENDROOT
BRANCH  12  11
ATOM     11  C   UNL     1      -4.446   1.521  24.335  0.00  0.00    +0.051 C 
BRANCH  11  10
ATOM      8  C   UNL     1      -4.137  -0.539  24.804  0.00  0.00    +0.177 A 
ATOM      9  C   UNL     1      -4.159   0.081  24.259  0.00  0.00    +0.058 A 
ATOM     10  C   UNL     1      -4.362   0.770  24.666  0.00  0.00    +0.101 A 
ATOM     27  N   UNL     1      -4.464   0.576  25.461  0.00  0.00    -0.081 NA
ATOM     28  O   UNL     1      -4.326  -0.233  25.546  0.00  0.00    -0.354 OA
BRANCH   8   5
ATOM      1  F   UNL     1      -3.420  -3.688  24.128  0.00  0.00    -0.204 F 
ATOM      2  C   UNL     1      -3.599  -2.901  24.297  0.00  0.00    +0.140 A 
ATOM      3  C   UNL     1      -3.264  -2.533  24.956  0.00  0.00    +0.030 A 
ATOM      4  C   UNL     1      -3.444  -1.746  25.125  0.00  0.00    +0.005 A 
ATOM      5  C   UNL     1      -3.958  -1.326  24.635  0.00  0.00    +0.037 A 
ATOM      6  C   UNL     1      -4.293  -1.693  23.977  0.00  0.00    +0.005 A 
ATOM      7  C   UNL     1      -4.113  -2.480  23.808  0.00  0.00    +0.030 A 
ENDBRANCH   8   5
ENDBRANCH  11  10
ENDBRANCH  12  11
BRANCH  17  18
ATOM     18  C   UNL     1      -3.747   3.014  24.270  0.00  0.00    +0.087 C 
BRANCH  18  19
ATOM     19  C   UNL     1      -3.175   3.568  24.489  0.00  0.00    +0.247 C 
ATOM     20  O   UNL     1      -3.383   4.359  24.589  0.00  0.00    -0.273 OA
ATOM     21  N   UNL     1      -2.393   3.329  24.607  0.00  0.00    -0.154 NA
ATOM     22  C   UNL     1      -1.822   3.882  24.826  0.00  0.00    +0.186 A 
ATOM     23  N   UNL     1      -1.024   3.725  24.962  0.00  0.00    -0.221 NA
ATOM     24  C   UNL     1      -0.656   4.436  25.167  0.00  0.00    +0.108 A 
ATOM     25  C   UNL     1      -1.227   5.031  25.157  0.00  0.00    +0.059 A 
ATOM     26  S   UNL     1      -1.948   4.688  24.946  0.00  0.00    -0.049 S 
ENDBRANCH  18  19
ENDBRANCH  17  18
TORSDOF 5
ENDMDL
MODEL 2
REMARK VINA RESULT:     -12.6      3.369      6.245
REMARK  Name = 
REMARK  5 active torsions:
REMARK  status: ('A' for Active; 'I' for Inactive)
REMARK    1  A    between atoms: C_5  and  C_8
REMARK    2  A    between atoms: C_10  and  C_11
REMARK    3  A    between atoms: C_11  and  C_12
REMARK    4  A    between atoms: C_17  and  C_18
REMARK    5  A    between atoms: C_18  and  C_19
REMARK                            x       y       z     vdW  Elec       q    Type
REMARK                         _______ _______ _______ _____ _____    ______ ____
ROOT
ATOM     12  C   UNL     1      -0.722   0.360  24.932  0.00  0.00    +0.024 C 
ATOM     13  C   UNL     1      -0.146   0.693  24.444  0.00  0.00    +0.089 C 
ATOM     14  N   UNL     1       0.235   0.228  23.879  0.00  0.00    -0.218 NA
ATOM     15  C   UNL     1       0.040  -0.570  23.802  0.00  0.00    +0.089 C 
ATOM     16  C   UNL     1      -0.537  -0.903  24.289  0.00  0.00    +0.019 C 
ATOM     17  C   UNL     1      -0.917  -0.437  24.855  0.00  0.00    +0.012 C 
ENDROOT
BRANCH  12  11
ATOM     11  C   UNL     1      -1.103   0.825  25.497  0.00  0.00    +0.051 C 
BRANCH  11  10
ATOM      8  C   UNL     1      -0.875   2.947  25.557  0.00  0.00    +0.177 A 
ATOM      9  C   UNL     1      -1.295   2.273  25.331  0.00  0.00    +0.058 A 
ATOM     10  C   UNL     1      -0.880   1.612  25.601  0.00  0.00    +0.101 A 
ATOM     27  N   UNL     1      -0.205   1.878  25.993  0.00  0.00    -0.081 NA
ATOM     28  O   UNL     1      -0.202   2.703  25.966  0.00  0.00    -0.354 OA
BRANCH   8   5
ATOM      1  F   UNL     1      -1.739   6.070  24.932  0.00  0.00    -0.204 F 
ATOM      2  C   UNL     1      -1.523   5.289  25.089  0.00  0.00    +0.140 A 
ATOM      3  C   UNL     1      -0.798   5.000  24.819  0.00  0.00    +0.030 A 
ATOM      4  C   UNL     1      -0.582   4.219  24.976  0.00  0.00    +0.005 A 
ATOM      5  C   UNL     1      -1.091   3.728  25.401  0.00  0.00    +0.037 A 
ATOM      6  C   UNL     1      -1.814   4.017  25.670  0.00  0.00    +0.005 A 
ATOM      7  C   UNL     1      -2.031   4.797  25.514  0.00  0.00    +0.030 A 
ENDBRANCH   8   5
ENDBRANCH  11  10
ENDBRANCH  12  11
BRANCH  17  18
ATOM     18  C   UNL     1      -1.494  -0.771  25.342  0.00  0.00    +0.087 C 
BRANCH  18  19
ATOM     19  C   UNL     1      -2.011  -1.338  25.040  0.00  0.00    +0.247 C 
ATOM     20  O   UNL     1      -1.765  -2.121  24.958  0.00  0.00    -0.273 OA
ATOM     21  N   UNL     1      -2.777  -1.122  24.819  0.00  0.00    -0.154 NA
ATOM     22  C   UNL     1      -3.294  -1.688  24.517  0.00  0.00    +0.186 A 
ATOM     23  N   UNL     1      -4.071  -1.554  24.274  0.00  0.00    -0.221 NA
ATOM     24  C   UNL     1      -4.383  -2.272  24.011  0.00  0.00    +0.108 A 
ATOM     25  C   UNL     1      -3.799  -2.849  24.091  0.00  0.00    +0.059 A 
ATOM     26  S   UNL     1      -3.126  -2.488  24.404  0.00  0.00    -0.049 S 
ENDBRANCH  18  19
ENDBRANCH  17  18
TORSDOF 5
ENDMDL
MODEL 3
REMARK VINA RESULT:     -12.5      2.269      3.236
REMARK  Name = 
REMARK  5 active torsions:
REMARK  status: ('A' for Active; 'I' for Inactive)
REMARK    1  A    between atoms: C_5  and  C_8
REMARK    2  A    between atoms: C_10  and  C_11
REMARK    3  A    between atoms: C_11  and  C_12
REMARK    4  A    between atoms: C_17  and  C_18
REMARK    5  A    between atoms: C_18  and  C_19
REMARK                            x       y       z     vdW  Elec       q    Type
REMARK                         _______ _______ _______ _____ _____    ______ ____
ROOT
ATOM     12  C   UNL     1      -0.542   0.664  24.921  0.00  0.00    +0.024 C 
ATOM     13  C   UNL     1      -0.218   0.210  24.312  0.00  0.00    +0.089 C 
ATOM     14  N   UNL     1       0.290   0.559  23.764  0.00  0.00    -0.218 NA
ATOM     15  C   UNL     1       0.475   1.360  23.824  0.00  0.00    +0.089 C 
ATOM     16  C   UNL     1       0.152   1.814  24.432  0.00  0.00    +0.019 C 
ATOM     17  C   UNL     1      -0.357   1.465  24.981  0.00  0.00    +0.012 C 
ENDROOT
BRANCH  12  11
ATOM     11  C   UNL     1      -1.050   0.316  25.469  0.00  0.00    +0.051 C 
BRANCH  11  10
ATOM      8  C   UNL     1      -2.276  -1.335  24.895  0.00  0.00    +0.177 A 
ATOM      9  C   UNL     1      -2.145  -0.523  24.961  0.00  0.00    +0.058 A 
ATOM     10  C   UNL     1      -1.402  -0.411  25.302  0.00  0.00    +0.101 A 
ATOM     27  N   UNL     1      -1.073  -1.154  25.445  0.00  0.00    -0.081 NA
ATOM     28  O   UNL     1      -1.613  -1.725  25.194  0.00  0.00    -0.354 OA
BRANCH   8   5
ATOM      1  F   UNL     1      -4.974  -2.771  23.651  0.00  0.00    -0.204 F 
ATOM      2  C   UNL     1      -4.300  -2.412  23.962  0.00  0.00    +0.140 A 
ATOM      3  C   UNL     1      -4.215  -1.591  23.927  0.00  0.00    +0.030 A 
ATOM      4  C   UNL     1      -3.540  -1.232  24.238  0.00  0.00    +0.005 A 
ATOM      5  C   UNL     1      -2.950  -1.694  24.584  0.00  0.00    +0.037 A 
ATOM      6  C   UNL     1      -3.034  -2.514  24.619  0.00  0.00    +0.005 A 
ATOM      7  C   UNL     1      -3.709  -2.872  24.308  0.00  0.00    +0.030 A 
ENDBRANCH   8   5
ENDBRANCH  11  10
ENDBRANCH  12  11
BRANCH  17  18
ATOM     18  C   UNL     1      -0.680   1.919  25.589  0.00  0.00    +0.087 C 
BRANCH  18  19
ATOM     19  C   UNL     1      -0.794   2.730  25.482  0.00  0.00    +0.247 C 
ATOM     20  O   UNL     1      -0.146   3.227  25.371  0.00  0.00    -0.273 OA
ATOM     21  N   UNL     1      -1.558   3.042  25.486  0.00  0.00    -0.154 NA
ATOM     22  C   UNL     1      -1.673   3.852  25.380  0.00  0.00    +0.186 A 
ATOM     23  N   UNL     1      -2.401   4.241  25.371  0.00  0.00    -0.221 NA
ATOM     24  C   UNL     1      -2.258   5.045  25.248  0.00  0.00    +0.108 A 
ATOM     25  C   UNL     1      -1.443   5.152  25.181  0.00  0.00    +0.059 A 
ATOM     26  S   UNL     1      -1.081   4.414  25.263  0.00  0.00    -0.049 S 
ENDBRANCH  18  19
ENDBRANCH  17  18
TORSDOF 5
ENDMDL
MODEL 4
REMARK VINA RESULT:     -12.3      2.401      5.318
REMARK  Name = 
REMARK  5 active torsions:
REMARK  status: ('A' for Active; 'I' for Inactive)
REMARK    1  A    between atoms: C_5  and  C_8
REMARK    2  A    between atoms: C_10  and  C_11
REMARK    3  A    between atoms: C_11  and  C_12
REMARK    4  A    between atoms: C_17  and  C_18
REMARK    5  A    between atoms: C_18  and  C_19
REMARK                            x       y       z     vdW  Elec       q    Type
REMARK                         _______ _______ _______ _____ _____    ______ ____
ROOT
ATOM     12  C   UNL     1      -4.870   1.945  24.795  0.00  0.00    +0.024 C 
ATOM     13  C   UNL     1      -5.402   2.370  25.263  0.00  0.00    +0.089 C 
ATOM     14  N   UNL     1      -5.898   1.972  25.788  0.00  0.00    -0.218 NA
ATOM     15  C   UNL     1      -5.863   1.150  25.846  0.00  0.00    +0.089 C 
ATOM     16  C   UNL     1      -5.332   0.725  25.379  0.00  0.00    +0.019 C 
ATOM     17  C   UNL     1      -4.835   1.123  24.854  0.00  0.00    +0.012 C 
ENDROOT
BRANCH  12  11
ATOM     11  C   UNL     1      -4.374   2.343  24.271  0.00  0.00    +0.051 C 
BRANCH  11  10
ATOM      8  C   UNL     1      -2.996   3.888  24.794  0.00  0.00    +0.177 A 
ATOM      9  C   UNL     1      -3.155   3.133  24.501  0.00  0.00    +0.058 A 
ATOM     10  C   UNL     1      -3.973   3.021  24.515  0.00  0.00    +0.101 A 
ATOM     27  N   UNL     1      -4.319   3.707  24.816  0.00  0.00    -0.081 NA
ATOM     28  O   UNL     1      -3.715   4.242  24.989  0.00  0.00    -0.354 OA
BRANCH   8   5
ATOM      1  F   UNL     1      -0.008   5.249  25.126  0.00  0.00    -0.204 F 
ATOM      2  C   UNL     1      -0.755   4.908  25.043  0.00  0.00    +0.140 A 
ATOM      3  C   UNL     1      -0.830   4.090  24.965  0.00  0.00    +0.030 A 
ATOM      4  C   UNL     1      -1.577   3.750  24.882  0.00  0.00    +0.005 A 
ATOM      5  C   UNL     1      -2.249   4.228  24.877  0.00  0.00    +0.037 A 
ATOM      6  C   UNL     1      -2.175   5.045  24.954  0.00  0.00    +0.005 A 
ATOM      7  C   UNL     1      -1.428   5.386  25.037  0.00  0.00    +0.030 A 
ENDBRANCH   8   5
ENDBRANCH  11  10
ENDBRANCH  12  11
BRANCH  17  18
ATOM     18  C   UNL     1      -4.304   0.698  24.387  0.00  0.00    +0.087 C 
BRANCH  18  19
ATOM     19  C   UNL     1      -4.076  -0.063  24.611  0.00  0.00    +0.247 C 
ATOM     20  O   UNL     1      -3.745  -0.193  25.355  0.00  0.00    -0.273 OA
ATOM     21  N   UNL     1      -4.180  -0.695  24.090  0.00  0.00    -0.154 NA
ATOM     22  C   UNL     1      -3.953  -1.455  24.314  0.00  0.00    +0.186 A 
ATOM     23  N   UNL     1      -4.022  -2.137  23.854  0.00  0.00    -0.221 NA
ATOM     24  C   UNL     1      -3.728  -2.771  24.293  0.00  0.00    +0.108 A 
ATOM     25  C   UNL     1      -3.477  -2.482  25.023  0.00  0.00    +0.059 A 
ATOM     26  S   UNL     1      -3.616  -1.668  25.036  0.00  0.00    -0.049 S 
ENDBRANCH  18  19
ENDBRANCH  17  18
TORSDOF 5
ENDMDL
MODEL 5
REMARK VINA RESULT:     -11.8      1.847      3.066
REMARK  Name = 
REMARK  5 active torsions:
REMARK  status: ('A' for Active; 'I' for Inactive)
REMARK    1  A    between atoms: C_5  and  C_8
REMARK    2  A    between atoms: C_10  and  C_11
REMARK    3  A    between atoms: C_11  and  C_12
REMARK    4  A    between atoms: C_17  and  C_18
REMARK    5  A    between atoms: C_18  and  C_19
REMARK                            x       y       z     vdW  Elec       q    Type
REMARK                         _______ _______ _______ _____ _____    ______ ____
ROOT
ATOM     12  C   UNL     1      -1.066   1.802  24.924  0.00  0.00    +0.024 C 
ATOM     13  C   UNL     1      -0.439   1.649  25.439  0.00  0.00    +0.089 C 
ATOM     14  N   UNL     1      -0.281   2.167  26.060  0.00  0.00    -0.218 NA
ATOM     15  C   UNL     1      -0.748   2.838  26.168  0.00  0.00    +0.089 C 
ATOM     16  C   UNL     1      -1.375   2.991  25.654  0.00  0.00    +0.019 C 
ATOM     17  C   UNL     1      -1.534   2.472  25.032  0.00  0.00    +0.012 C 
ENDROOT
BRANCH  12  11
ATOM     11  C   UNL     1      -1.225   1.283  24.303  0.00  0.00    +0.051 C 
BRANCH  11  10
ATOM      8  C   UNL     1      -1.716  -0.767  24.638  0.00  0.00    +0.177 A 
ATOM      9  C   UNL     1      -1.942   0.015  24.497  0.00  0.00    +0.058 A 
ATOM     10  C   UNL     1      -1.256   0.471  24.441  0.00  0.00    +0.101 A 
ATOM     27  N   UNL     1      -0.608  -0.029  24.546  0.00  0.00    -0.081 NA
ATOM     28  O   UNL     1      -0.893  -0.794  24.668  0.00  0.00    -0.354 OA
BRANCH   8   5
ATOM      1  F   UNL     1      -3.755  -3.335  25.013  0.00  0.00    -0.204 F 
ATOM      2  C   UNL     1      -3.246  -2.693  24.919  0.00  0.00    +0.140 A 
ATOM      3  C   UNL     1      -3.466  -1.946  25.195  0.00  0.00    +0.030 A 
ATOM      4  C   UNL     1      -2.956  -1.305  25.101  0.00  0.00    +0.005 A 
ATOM      5  C   UNL     1      -2.226  -1.409  24.731  0.00  0.00    +0.037 A 
ATOM      6  C   UNL     1      -2.006  -2.154  24.456  0.00  0.00    +0.005 A 
ATOM      7  C   UNL     1      -2.515  -2.796  24.550  0.00  0.00    +0.030 A 
ENDBRANCH   8   5
ENDBRANCH  11  10
ENDBRANCH  12  11
BRANCH  17  18
ATOM     18  C   UNL     1      -2.161   2.625  24.518  0.00  0.00    +0.087 C 
BRANCH  18  19
ATOM     19  C   UNL     1      -2.847   2.988  24.802  0.00  0.00    +0.247 C 
ATOM     20  O   UNL     1      -2.827   3.775  25.045  0.00  0.00    -0.273 OA
ATOM     21  N   UNL     1      -3.553   2.562  24.841  0.00  0.00    -0.154 NA
ATOM     22  C   UNL     1      -4.237   2.924  25.123  0.00  0.00    +0.186 A 
ATOM     23  N   UNL     1      -4.979   2.569  25.194  0.00  0.00    -0.221 NA
ATOM     24  C   UNL     1      -5.502   3.131  25.500  0.00  0.00    +0.108 A 
ATOM     25  C   UNL     1      -5.083   3.831  25.618  0.00  0.00    +0.059 A 
ATOM     26  S   UNL     1      -4.301   3.703  25.385  0.00  0.00    -0.049 S 
ENDBRANCH  18  19
ENDBRANCH  17  18
TORSDOF 5
ENDMDL
MODEL 6
REMARK VINA RESULT:     -11.3      2.838      4.766
REMARK  Name = 
REMARK  5 active torsions:
REMARK  status: ('A' for Active; 'I' for Inactive)
REMARK    1  A    between atoms: C_5  and  C_8
REMARK    2  A    between atoms: C_10  and  C_11
REMARK    3  A    between atoms: C_11  and  C_12
REMARK    4  A    between atoms: C_17  and  C_18
REMARK    5  A    between atoms: C_18  and  C_19
REMARK                            x       y       z     vdW  Elec       q    Type
REMARK                         _______ _______ _______ _____ _____    ______ ____
ROOT
ATOM     12  C   UNL     1      -3.341  -1.390  25.048  0.00  0.00    +0.024 C 
ATOM     13  C   UNL     1      -3.952  -1.845  24.728  0.00  0.00    +0.089 C 
ATOM     14  N   UNL     1      -3.776  -2.502  24.262  0.00  0.00    -0.218 NA
ATOM     15  C   UNL     1      -2.991  -2.706  24.116  0.00  0.00    +0.089 C 
ATOM     16  C   UNL     1      -2.380  -2.252  24.435  0.00  0.00    +0.019 C 
ATOM     17  C   UNL     1      -2.556  -1.594  24.901  0.00  0.00    +0.012 C 
ENDROOT
BRANCH  12  11
ATOM     11  C   UNL     1      -3.517  -0.733  25.514  0.00  0.00    +0.051 C 
BRANCH  11  10
ATOM      8  C   UNL     1      -4.683   1.002  25.082  0.00  0.00    +0.177 A 
ATOM      9  C   UNL     1      -4.102   0.616  25.522  0.00  0.00    +0.058 A 
ATOM     10  C   UNL     1      -4.033  -0.154  25.233  0.00  0.00    +0.101 A 
ATOM     27  N   UNL     1      -4.572  -0.244  24.615  0.00  0.00    -0.081 NA
ATOM     28  O   UNL     1      -4.974   0.472  24.521  0.00  0.00    -0.354 OA
BRANCH   8   5
ATOM      1  F   UNL     1      -5.671   4.124  25.492  0.00  0.00    -0.204 F 
ATOM      2  C   UNL     1      -5.424   3.344  25.389  0.00  0.00    +0.140 A 
ATOM      3  C   UNL     1      -5.877   2.724  25.693  0.00  0.00    +0.030 A 
ATOM      4  C   UNL     1      -5.630   1.944  25.590  0.00  0.00    +0.005 A 
ATOM      5  C   UNL     1      -4.930   1.783  25.184  0.00  0.00    +0.037 A 
ATOM      6  C   UNL     1      -4.477   2.402  24.881  0.00  0.00    +0.005 A 
ATOM      7  C   UNL     1      -4.724   3.182  24.984  0.00  0.00    +0.030 A 
ENDBRANCH   8   5
ENDBRANCH  11  10
ENDBRANCH  12  11
BRANCH  17  18
ATOM     18  C   UNL     1      -1.945  -1.140  25.220  0.00  0.00    +0.087 C 
BRANCH  18  19
ATOM     19  C   UNL     1      -1.266  -0.991  24.775  0.00  0.00    +0.247 C 
ATOM     20  O   UNL     1      -0.777  -1.615  24.548  0.00  0.00    -0.273 OA
ATOM     21  N   UNL     1      -1.078  -0.218  24.556  0.00  0.00    -0.154 NA
ATOM     22  C   UNL     1      -0.400  -0.069  24.111  0.00  0.00    +0.186 A 
ATOM     23  N   UNL     1      -0.142   0.671  23.853  0.00  0.00    -0.221 NA
ATOM     24  C   UNL     1       0.558   0.563  23.428  0.00  0.00    +0.108 A 
ATOM     25  C   UNL     1       0.731  -0.243  23.423  0.00  0.00    +0.059 A 
ATOM     26  S   UNL     1       0.140  -0.634  23.845  0.00  0.00    -0.049 S 
ENDBRANCH  18  19
ENDBRANCH  17  18
TORSDOF 5
ENDMDL
MODEL 7
REMARK VINA RESULT:     -11.2      2.574      4.734
REMARK  Name = 
REMARK  5 active torsions:
REMARK  status: ('A' for Active; 'I' for Inactive)
REMARK    1  A    between atoms: C_5  and  C_8
REMARK    2  A    between atoms: C_10  and  C_11
REMARK    3  A    between atoms: C_11  and  C_12
REMARK    4  A    between atoms: C_17  and  C_18
REMARK    5  A    between atoms: C_18  and  C_19
REMARK                            x       y       z     vdW  Elec       q    Type
REMARK                         _______ _______ _______ _____ _____    ______ ____
ROOT
ATOM     12  C   UNL     1      -1.239   2.676  24.914  0.00  0.00    +0.024 C 
ATOM     13  C   UNL     1      -1.135   3.231  25.517  0.00  0.00    +0.089 C 
ATOM     14  N   UNL     1      -0.570   3.101  26.104  0.00  0.00    -0.218 NA
ATOM     15  C   UNL     1      -0.108   2.418  26.088  0.00  0.00    +0.089 C 
ATOM     16  C   UNL     1      -0.211   1.864  25.486  0.00  0.00    +0.019 C 
ATOM     17  C   UNL     1      -0.777   1.993  24.899  0.00  0.00    +0.012 C 
ENDROOT
BRANCH  12  11
ATOM     11  C   UNL     1      -1.804   2.805  24.328  0.00  0.00    +0.051 C 
BRANCH  11  10
ATOM      8  C   UNL     1      -3.860   3.005  24.867  0.00  0.00    +0.177 A 
ATOM      9  C   UNL     1      -3.206   2.537  24.679  0.00  0.00    +0.058 A 
ATOM     10  C   UNL     1      -2.567   3.040  24.535  0.00  0.00    +0.101 A 
ATOM     27  N   UNL     1      -2.826   3.817  24.633  0.00  0.00    -0.081 NA
ATOM     28  O   UNL     1      -3.625   3.795  24.839  0.00  0.00    -0.354 OA
BRANCH   8   5
ATOM      1  F   UNL     1      -6.883   1.903  25.603  0.00  0.00    -0.204 F 
ATOM      2  C   UNL     1      -6.127   2.179  25.419  0.00  0.00    +0.140 A 
ATOM      3  C   UNL     1      -5.674   1.791  24.847  0.00  0.00    +0.030 A 
ATOM      4  C   UNL     1      -4.918   2.067  24.664  0.00  0.00    +0.005 A 
ATOM      5  C   UNL     1      -4.616   2.729  25.051  0.00  0.00    +0.037 A 
ATOM      6  C   UNL     1      -5.068   3.116  25.622  0.00  0.00    +0.005 A 
ATOM      7  C   UNL     1      -5.823   2.841  25.806  0.00  0.00    +0.030 A 
ENDBRANCH   8   5
ENDBRANCH  11  10
ENDBRANCH  12  11
BRANCH  17  18
ATOM     18  C   UNL     1      -0.879   1.439  24.297  0.00  0.00    +0.087 C 
BRANCH  18  19
ATOM     19  C   UNL     1      -0.752   0.637  24.449  0.00  0.00    +0.247 C 
ATOM     20  O   UNL     1       0.010   0.361  24.598  0.00  0.00    -0.273 OA
ATOM     21  N   UNL     1      -1.389   0.112  24.451  0.00  0.00    -0.154 NA
ATOM     22  C   UNL     1      -1.262  -0.688  24.603  0.00  0.00    +0.186 A 
ATOM     23  N   UNL     1      -1.842  -1.275  24.623  0.00  0.00    -0.221 NA
ATOM     24  C   UNL     1      -1.472  -1.993  24.794  0.00  0.00    +0.108 A 
ATOM     25  C   UNL     1      -0.664  -1.850  24.879  0.00  0.00    +0.059 A 
ATOM     26  S   UNL     1      -0.535  -1.043  24.761  0.00  0.00    -0.049 S 
ENDBRANCH  18  19
ENDBRANCH  17  18
TORSDOF 5
ENDMDL
MODEL 8
REMARK VINA RESULT:      -9.3     17.056     18.796
REMARK  Name = 
REMARK  5 active torsions:
REMARK  status: ('A' for Active; 'I' for Inactive)
REMARK    1  A    between atoms: C_5  and  C_8
REMARK    2  A    between atoms: C_10  and  C_11
REMARK    3  A    between atoms: C_11  and  C_12
REMARK    4  A    between atoms: C_17  and  C_18
REMARK    5  A    between atoms: C_18  and  C_19
REMARK                            x       y       z     vdW  Elec       q    Type
REMARK                         _______ _______ _______ _____ _____    ______ ____
ROOT
ATOM     12  C   UNL     1      11.926   7.791  20.491  0.00  0.00    +0.024 C 
ATOM     13  C   UNL     1      11.223   7.363  20.553  0.00  0.00    +0.089 C 
ATOM     14  N   UNL     1      11.207   6.655  20.976  0.00  0.00    -0.218 NA
ATOM     15  C   UNL     1      11.894   6.375  21.337  0.00  0.00    +0.089 C 
ATOM     16  C   UNL     1      12.597   6.802  21.276  0.00  0.00    +0.019 C 
ATOM     17  C   UNL     1      12.613   7.511  20.853  0.00  0.00    +0.012 C 
ENDROOT
BRANCH  12  11
ATOM     11  C   UNL     1      11.942   8.499  20.069  0.00  0.00    +0.051 C 
BRANCH  11  10
ATOM      8  C   UNL     1      11.136   8.710  18.103  0.00  0.00    +0.177 A 
ATOM      9  C   UNL     1      11.780   8.632  18.614  0.00  0.00    +0.058 A 
ATOM     10  C   UNL     1      11.489   8.581  19.384  0.00  0.00    +0.101 A 
ATOM     27  N   UNL     1      10.666   8.627  19.350  0.00  0.00    -0.081 NA
ATOM     28  O   UNL     1      10.448   8.706  18.558  0.00  0.00    -0.354 OA
BRANCH   8   5
ATOM      1  F   UNL     1      11.289   8.984  14.818  0.00  0.00    -0.204 F 
ATOM      2  C   UNL     1      11.251   8.915  15.639  0.00  0.00    +0.140 A 
ATOM      3  C   UNL     1      10.544   8.693  16.002  0.00  0.00    +0.030 A 
ATOM      4  C   UNL     1      10.505   8.625  16.824  0.00  0.00    +0.005 A 
ATOM      5  C   UNL     1      11.174   8.778  17.282  0.00  0.00    +0.037 A 
ATOM      6  C   UNL     1      11.881   9.000  16.919  0.00  0.00    +0.005 A 
ATOM      7  C   UNL     1      11.919   9.069  16.098  0.00  0.00    +0.030 A 
ENDBRANCH   8   5
ENDBRANCH  11  10
ENDBRANCH  12  11
BRANCH  17  18
ATOM     18  C   UNL     1      13.316   7.938  20.791  0.00  0.00    +0.087 C 
BRANCH  18  19
ATOM     19  C   UNL     1      14.041   7.548  20.846  0.00  0.00    +0.247 C 
ATOM     20  O   UNL     1      14.282   7.225  21.565  0.00  0.00    -0.273 OA
ATOM     21  N   UNL     1      14.525   7.482  20.181  0.00  0.00    -0.154 NA
ATOM     22  C   UNL     1      15.250   7.092  20.236  0.00  0.00    +0.186 A 
ATOM     23  N   UNL     1      15.789   6.983  19.620  0.00  0.00    -0.221 NA
ATOM     24  C   UNL     1      16.436   6.566  19.920  0.00  0.00    +0.108 A 
ATOM     25  C   UNL     1      16.296   6.418  20.719  0.00  0.00    +0.059 A 
ATOM     26  S   UNL     1      15.563   6.743  20.914  0.00  0.00    -0.049 S 
ENDBRANCH  18  19
ENDBRANCH  17  18
TORSDOF 5
ENDMDL
