MODEL 1
REMARK VINA RESULT:     -12.0      0.000      0.000
REMARK  Name = 
REMARK  7 active torsions:
REMARK  status: ('A' for Active; 'I' for Inactive)
REMARK    1  A    between atoms: O_2  and  C_3
REMARK    2  A    between atoms: C_6  and  C_7
REMARK    3  A    between atoms: C_7  and  N_8
REMARK    4  A    between atoms: N_8  and  C_9
REMARK    5  A    between atoms: C_9  and  C_10
REMARK    6  A    between atoms: C_10  and  C_11
REMARK    7  A    between atoms: C_14  and  C_16
REMARK                            x       y       z     vdW  Elec       q    Type
REMARK                         _______ _______ _______ _____ _____    ______ ____
ROOT
ATOM      9  C   UNL     1      -4.960   1.681  24.946  0.00  0.00    +0.120 C 
ATOM     23  C   UNL     1      -5.543   1.275  25.363  0.00  0.00    +0.161 C 
ATOM     24  O   UNL     1      -6.044   1.928  25.301  0.00  0.00    -0.351 OA
ATOM     25  C   UNL     1      -5.460   2.335  24.883  0.00  0.00    +0.161 C 
ENDROOT
BRANCH   9   8
ATOM      8  N   UNL     1      -4.460   1.028  25.008  0.00  0.00    -0.211 NA
BRANCH   8   7
ATOM      7  C   UNL     1      -4.752   0.269  24.874  0.00  0.00    +0.115 C 
BRANCH   7   6
ATOM      3  C   UNL     1      -3.212  -1.668  24.852  0.00  0.00    +0.139 A 
ATOM      4  C   UNL     1      -3.599  -1.441  24.160  0.00  0.00    +0.037 A 
ATOM      5  C   UNL     1      -4.113  -0.795  24.167  0.00  0.00    +0.000 A 
ATOM      6  C   UNL     1      -4.239  -0.376  24.867  0.00  0.00    -0.005 A 
ATOM     26  C   UNL     1      -3.851  -0.603  25.559  0.00  0.00    +0.000 A 
ATOM     27  C   UNL     1      -3.338  -1.249  25.551  0.00  0.00    +0.037 A 
BRANCH   3   2
ATOM      1  C   UNL     1      -1.927  -2.224  24.567  0.00  0.00    +0.252 C 
ATOM      2  O   UNL     1      -2.699  -2.314  24.844  0.00  0.00    -0.471 OA
ENDBRANCH   3   2
ENDBRANCH   7   6
ENDBRANCH   8   7
ENDBRANCH   9   8
BRANCH   9  10
ATOM     10  C   UNL     1      -4.376   2.088  24.527  0.00  0.00    +0.070 C 
BRANCH  10  11
ATOM     11  C   UNL     1      -3.911   2.651  24.911  0.00  0.00    +0.102 A 
ATOM     12  N   UNL     1      -4.066   2.987  25.648  0.00  0.00    -0.081 NA
ATOM     13  O   UNL     1      -3.459   3.520  25.818  0.00  0.00    -0.354 OA
ATOM     14  C   UNL     1      -2.930   3.514  25.185  0.00  0.00    +0.177 A 
ATOM     15  C   UNL     1      -3.209   2.977  24.625  0.00  0.00    +0.058 A 
BRANCH  14  16
ATOM     16  C   UNL     1      -2.242   3.965  25.123  0.00  0.00    +0.037 A 
ATOM     17  C   UNL     1      -2.284   4.789  25.167  0.00  0.00    +0.005 A 
ATOM     18  C   UNL     1      -1.596   5.240  25.105  0.00  0.00    +0.030 A 
ATOM     19  C   UNL     1      -0.867   4.869  25.000  0.00  0.00    +0.140 A 
ATOM     20  F   UNL     1      -0.179   5.320  24.938  0.00  0.00    -0.204 F 
ATOM     21  C   UNL     1      -0.826   4.046  24.956  0.00  0.00    +0.030 A 
ATOM     22  C   UNL     1      -1.513   3.595  25.018  0.00  0.00    +0.005 A 
ENDBRANCH  14  16
ENDBRANCH  10  11
ENDBRANCH   9  10
TORSDOF 7
ENDMDL
MODEL 2
REMARK VINA RESULT:     -12.0      2.061      5.106
REMARK  Name = 
REMARK  7 active torsions:
REMARK  status: ('A' for Active; 'I' for Inactive)
REMARK    1  A    between atoms: O_2  and  C_3
REMARK    2  A    between atoms: C_6  and  C_7
REMARK    3  A    between atoms: C_7  and  N_8
REMARK    4  A    between atoms: N_8  and  C_9
REMARK    5  A    between atoms: C_9  and  C_10
REMARK    6  A    between atoms: C_10  and  C_11
REMARK    7  A    between atoms: C_14  and  C_16
REMARK                            x       y       z     vdW  Elec       q    Type
REMARK                         _______ _______ _______ _____ _____    ______ ____
ROOT
ATOM      9  C   UNL     1      -5.083   2.151  25.048  0.00  0.00    +0.120 C 
ATOM     23  C   UNL     1      -5.465   2.700  25.530  0.00  0.00    +0.161 C 
ATOM     24  O   UNL     1      -6.188   2.333  25.376  0.00  0.00    -0.351 OA
ATOM     25  C   UNL     1      -5.805   1.783  24.893  0.00  0.00    +0.161 C 
ENDROOT
BRANCH   9   8
ATOM      8  N   UNL     1      -4.360   2.517  25.203  0.00  0.00    -0.211 NA
BRANCH   8   7
ATOM      7  C   UNL     1      -4.294   3.337  25.154  0.00  0.00    +0.115 C 
BRANCH   7   6
ATOM      3  C   UNL     1      -2.071   4.415  25.314  0.00  0.00    +0.139 A 
ATOM      4  C   UNL     1      -2.394   4.242  24.575  0.00  0.00    +0.037 A 
ATOM      5  C   UNL     1      -3.135   3.883  24.521  0.00  0.00    +0.000 A 
ATOM      6  C   UNL     1      -3.553   3.696  25.208  0.00  0.00    -0.005 A 
ATOM     26  C   UNL     1      -3.231   3.869  25.948  0.00  0.00    +0.000 A 
ATOM     27  C   UNL     1      -2.490   4.228  26.000  0.00  0.00    +0.037 A 
BRANCH   3   2
ATOM      1  C   UNL     1      -0.677   4.426  25.003  0.00  0.00    +0.252 C 
ATOM      2  O   UNL     1      -1.331   4.774  25.367  0.00  0.00    -0.471 OA
ENDBRANCH   3   2
ENDBRANCH   7   6
ENDBRANCH   8   7
ENDBRANCH   9   8
BRANCH   9  10
ATOM     10  C   UNL     1      -4.700   1.601  24.565  0.00  0.00    +0.070 C 
BRANCH  10  11
ATOM     11  C   UNL     1      -4.531   0.847  24.854  0.00  0.00    +0.102 A 
ATOM     12  N   UNL     1      -4.539   0.617  25.646  0.00  0.00    -0.081 NA
ATOM     13  O   UNL     1      -4.337  -0.182  25.682  0.00  0.00    -0.354 OA
ATOM     14  C   UNL     1      -4.202  -0.446  24.912  0.00  0.00    +0.177 A 
ATOM     15  C   UNL     1      -4.322   0.190  24.401  0.00  0.00    +0.058 A 
BRANCH  14  16
ATOM     16  C   UNL     1      -3.986  -1.211  24.692  0.00  0.00    +0.037 A 
ATOM     17  C   UNL     1      -3.461  -1.642  25.161  0.00  0.00    +0.005 A 
ATOM     18  C   UNL     1      -3.245  -2.407  24.941  0.00  0.00    +0.030 A 
ATOM     19  C   UNL     1      -3.554  -2.741  24.254  0.00  0.00    +0.140 A 
ATOM     20  F   UNL     1      -3.338  -3.507  24.034  0.00  0.00    -0.204 F 
ATOM     21  C   UNL     1      -4.079  -2.311  23.785  0.00  0.00    +0.030 A 
ATOM     22  C   UNL     1      -4.295  -1.546  24.005  0.00  0.00    +0.005 A 
ENDBRANCH  14  16
ENDBRANCH  10  11
ENDBRANCH   9  10
TORSDOF 7
ENDMDL
MODEL 3
REMARK VINA RESULT:     -10.7      2.540      5.465
REMARK  Name = 
REMARK  7 active torsions:
REMARK  status: ('A' for Active; 'I' for Inactive)
REMARK    1  A    between atoms: O_2  and  C_3
REMARK    2  A    between atoms: C_6  and  C_7
REMARK    3  A    between atoms: C_7  and  N_8
REMARK    4  A    between atoms: N_8  and  C_9
REMARK    5  A    between atoms: C_9  and  C_10
REMARK    6  A    between atoms: C_10  and  C_11
REMARK    7  A    between atoms: C_14  and  C_16
REMARK                            x       y       z     vdW  Elec       q    Type
REMARK                         _______ _______ _______ _____ _____    ______ ____
ROOT
ATOM      9  C   UNL     1      -0.856   1.866  24.860  0.00  0.00    +0.120 C 
ATOM     23  C   UNL     1      -0.647   2.496  24.371  0.00  0.00    +0.161 C 
ATOM     24  O   UNL     1       0.137   2.242  24.376  0.00  0.00    -0.351 OA
ATOM     25  C   UNL     1      -0.071   1.610  24.866  0.00  0.00    +0.161 C 
ENDROOT
BRANCH   9   8
ATOM      8  N   UNL     1      -1.641   2.121  24.855  0.00  0.00    -0.211 NA
BRANCH   8   7
ATOM      7  C   UNL     1      -1.815   2.924  24.916  0.00  0.00    +0.115 C 
BRANCH   7   6
ATOM      3  C   UNL     1      -4.157   3.667  25.216  0.00  0.00    +0.139 A 
ATOM      4  C   UNL     1      -3.919   3.330  24.502  0.00  0.00    +0.037 A 
ATOM      5  C   UNL     1      -3.138   3.082  24.401  0.00  0.00    +0.000 A 
ATOM      6  C   UNL     1      -2.595   3.172  25.017  0.00  0.00    -0.005 A 
ATOM     26  C   UNL     1      -2.833   3.509  25.731  0.00  0.00    +0.000 A 
ATOM     27  C   UNL     1      -3.614   3.756  25.830  0.00  0.00    +0.037 A 
BRANCH   3   2
ATOM      1  C   UNL     1      -5.503   3.386  25.602  0.00  0.00    +0.252 C 
ATOM      2  O   UNL     1      -4.937   3.914  25.315  0.00  0.00    -0.471 OA
ENDBRANCH   3   2
ENDBRANCH   7   6
ENDBRANCH   8   7
ENDBRANCH   9   8
BRANCH   9  10
ATOM     10  C   UNL     1      -1.065   1.235  25.350  0.00  0.00    +0.070 C 
BRANCH  10  11
ATOM     11  C   UNL     1      -1.205   0.491  25.025  0.00  0.00    +0.102 A 
ATOM     12  N   UNL     1      -0.689   0.067  24.541  0.00  0.00    -0.081 NA
ATOM     13  O   UNL     1      -1.053  -0.647  24.343  0.00  0.00    -0.354 OA
ATOM     14  C   UNL     1      -1.794  -0.665  24.706  0.00  0.00    +0.177 A 
ATOM     15  C   UNL     1      -1.888   0.038  25.127  0.00  0.00    +0.058 A 
BRANCH  14  16
ATOM     16  C   UNL     1      -2.344  -1.278  24.656  0.00  0.00    +0.037 A 
ATOM     17  C   UNL     1      -2.090  -2.063  24.683  0.00  0.00    +0.005 A 
ATOM     18  C   UNL     1      -2.640  -2.675  24.633  0.00  0.00    +0.030 A 
ATOM     19  C   UNL     1      -3.443  -2.503  24.556  0.00  0.00    +0.140 A 
ATOM     20  F   UNL     1      -3.994  -3.116  24.506  0.00  0.00    -0.204 F 
ATOM     21  C   UNL     1      -3.697  -1.719  24.529  0.00  0.00    +0.030 A 
ATOM     22  C   UNL     1      -3.147  -1.106  24.579  0.00  0.00    +0.005 A 
ENDBRANCH  14  16
ENDBRANCH  10  11
ENDBRANCH   9  10
TORSDOF 7
ENDMDL
