REMARK  Name = 
REMARK  4 active torsions:
REMARK  status: ('A' for Active; 'I' for Inactive)
REMARK    1  A    between atoms: O_2  and  C_3
REMARK    2  A    between atoms: C_6  and  C_11
REMARK    3  A    between atoms: C_8  and  O_9
REMARK    4  A    between atoms: C_16  and  C_18
REMARK                            x       y       z     vdW  Elec       q    Type
REMARK                         _______ _______ _______ _____ _____    ______ ____
ROOT
ATOM     11  C   UNL     1      -3.390  -1.595   0.000  0.00  0.00    +0.249 C 
ATOM     12  O   UNL     1      -3.304  -2.416   0.000  0.00  0.00    -0.270 OA
ATOM     13  N   UNL     1      -2.723  -1.110   0.000  0.00  0.00    -0.276 N 
ATOM     14  C   UNL     1      -2.723  -0.285   0.000  0.00  0.00    +0.094 C 
ATOM     15  C   UNL     1      -1.938  -0.030   0.000  0.00  0.00    +0.031 C 
ATOM     16  C   UNL     1      -1.453  -0.698   0.000  0.00  0.00    +0.078 C 
ATOM     17  C   UNL     1      -1.938  -1.365   0.000  0.00  0.00    +0.101 C 
ENDROOT
BRANCH  16  18
ATOM     18  C   UNL     1      -0.628  -0.698   0.000  0.00  0.00    +0.122 A 
ATOM     19  N   UNL     1      -0.143  -1.365   0.000  0.00  0.00    -0.231 NA
ATOM     20  C   UNL     1       0.641  -1.110   0.000  0.00  0.00    +0.098 A 
ATOM     21  C   UNL     1       0.641  -0.285   0.000  0.00  0.00    +0.079 A 
ATOM     22  C   UNL     1       1.356   0.127   0.000  0.00  0.00    +0.019 A 
ATOM     23  C   UNL     1       2.070  -0.285   0.000  0.00  0.00    +0.002 A 
ATOM     24  C   UNL     1       2.070  -1.110   0.000  0.00  0.00    +0.002 A 
ATOM     25  C   UNL     1       1.356  -1.523   0.000  0.00  0.00    +0.021 A 
ATOM     26  N   UNL     1      -0.143  -0.030   0.000  0.00  0.00    -0.313 N 
ATOM     27  C   UNL     1      -0.398   0.754   0.000  0.00  0.00    +0.132 C 
ENDBRANCH  16  18
BRANCH  11   6
ATOM      3  C   UNL     1      -5.651  -0.589   0.000  0.00  0.00    +0.172 A 
ATOM      4  C   UNL     1      -4.984  -0.104   0.000  0.00  0.00    +0.040 A 
ATOM      5  C   UNL     1      -4.230  -0.439   0.000  0.00  0.00    +0.008 A 
ATOM      6  C   UNL     1      -4.144  -1.260   0.000  0.00  0.00    +0.057 A 
ATOM      7  C   UNL     1      -4.811  -1.745   0.000  0.00  0.00    +0.045 A 
ATOM      8  C   UNL     1      -5.565  -1.409   0.000  0.00  0.00    +0.173 A 
BRANCH   3   2
ATOM      1  C   UNL     1      -7.073  -0.738   0.000  0.00  0.00    +0.253 C 
ATOM      2  O   UNL     1      -6.405  -0.253   0.000  0.00  0.00    -0.468 OA
ENDBRANCH   3   2
BRANCH   8   9
ATOM      9  O   UNL     1      -6.233  -1.894   0.000  0.00  0.00    -0.468 OA
ATOM     10  C   UNL     1      -6.986  -1.558   0.000  0.00  0.00    +0.253 C 
ENDBRANCH   8   9
ENDBRANCH  11   6
TORSDOF 4
