MODEL 1
REMARK VINA RESULT:     -13.0      0.000      0.000
REMARK  Name = 
REMARK  3 active torsions:
REMARK  status: ('A' for Active; 'I' for Inactive)
REMARK    1  A    between atoms: C_3  and  C_4
REMARK    2  A    between atoms: C_4  and  N_5
REMARK    3  A    between atoms: C_8  and  C_10
REMARK                            x       y       z     vdW  Elec       q    Type
REMARK                         _______ _______ _______ _____ _____    ______ ____
ROOT
ATOM      5  N   UNL     1      -4.198   1.892  24.464  0.00  0.00    -0.266 NA
ATOM      6  C   UNL     1      -4.760   1.759  25.053  0.00  0.00    +0.073 C 
ATOM      7  C   UNL     1      -4.792   0.947  25.197  0.00  0.00    +0.026 C 
ATOM      8  C   UNL     1      -4.249   0.578  24.697  0.00  0.00    +0.076 C 
ATOM      9  C   UNL     1      -3.882   1.162  24.245  0.00  0.00    +0.080 C 
ENDROOT
BRANCH   8  10
ATOM     10  C   UNL     1      -4.100  -0.232  24.657  0.00  0.00    +0.140 A 
ATOM     11  N   UNL     1      -4.352  -0.743  24.060  0.00  0.00    -0.229 NA
ATOM     12  C   UNL     1      -4.079  -1.501  24.241  0.00  0.00    +0.100 A 
ATOM     13  C   UNL     1      -3.659  -1.457  24.949  0.00  0.00    +0.100 A 
ATOM     14  N   UNL     1      -3.671  -0.674  25.206  0.00  0.00    -0.229 NA
ATOM     15  C   UNL     1      -3.318  -2.138  25.269  0.00  0.00    +0.021 A 
ATOM     16  C   UNL     1      -3.399  -2.861  24.879  0.00  0.00    +0.002 A 
ATOM     17  C   UNL     1      -3.820  -2.904  24.171  0.00  0.00    +0.002 A 
ATOM     18  C   UNL     1      -4.160  -2.223  23.852  0.00  0.00    +0.021 A 
ENDBRANCH   8  10
BRANCH   5   4
ATOM      4  C   UNL     1      -3.988   2.626  24.151  0.00  0.00    +0.137 C 
BRANCH   4   3
ATOM      1  C   UNL     1      -3.870   4.362  24.589  0.00  0.00    +0.132 C 
ATOM      2  N   UNL     1      -3.257   3.811  24.623  0.00  0.00    -0.312 N 
ATOM      3  C   UNL     1      -3.312   3.012  24.422  0.00  0.00    +0.137 A 
ATOM     19  N   UNL     1      -2.571   2.669  24.538  0.00  0.00    -0.230 NA
ATOM     20  C   UNL     1      -2.059   3.255  24.811  0.00  0.00    +0.098 A 
ATOM     21  C   UNL     1      -2.483   3.960  24.864  0.00  0.00    +0.079 A 
ATOM     22  C   UNL     1      -2.109   4.648  25.124  0.00  0.00    +0.019 A 
ATOM     23  C   UNL     1      -1.311   4.630  25.332  0.00  0.00    +0.002 A 
ATOM     24  C   UNL     1      -0.887   3.925  25.280  0.00  0.00    +0.002 A 
ATOM     25  C   UNL     1      -1.260   3.237  25.020  0.00  0.00    +0.021 A 
ENDBRANCH   4   3
ENDBRANCH   5   4
TORSDOF 3
ENDMDL
MODEL 2
REMARK VINA RESULT:     -12.3      1.565      5.661
REMARK  Name = 
REMARK  3 active torsions:
REMARK  status: ('A' for Active; 'I' for Inactive)
REMARK    1  A    between atoms: C_3  and  C_4
REMARK    2  A    between atoms: C_4  and  N_5
REMARK    3  A    between atoms: C_8  and  C_10
REMARK                            x       y       z     vdW  Elec       q    Type
REMARK                         _______ _______ _______ _____ _____    ______ ____
ROOT
ATOM      5  N   UNL     1      -1.074   0.294  25.015  0.00  0.00    -0.266 NA
ATOM      6  C   UNL     1      -0.563   0.431  24.381  0.00  0.00    +0.073 C 
ATOM      7  C   UNL     1      -0.513   1.247  24.266  0.00  0.00    +0.026 C 
ATOM      8  C   UNL     1      -0.992   1.614  24.829  0.00  0.00    +0.076 C 
ATOM      9  C   UNL     1      -1.338   1.025  25.291  0.00  0.00    +0.080 C 
ENDROOT
BRANCH   8  10
ATOM     10  C   UNL     1      -1.105   2.426  24.914  0.00  0.00    +0.140 A 
ATOM     11  N   UNL     1      -1.770   2.792  25.239  0.00  0.00    -0.229 NA
ATOM     12  C   UNL     1      -1.648   3.608  25.215  0.00  0.00    +0.100 A 
ATOM     13  C   UNL     1      -0.910   3.746  24.876  0.00  0.00    +0.100 A 
ATOM     14  N   UNL     1      -0.574   3.016  24.690  0.00  0.00    -0.229 NA
ATOM     15  C   UNL     1      -0.638   4.519  24.780  0.00  0.00    +0.021 A 
ATOM     16  C   UNL     1      -1.106   5.154  25.024  0.00  0.00    +0.002 A 
ATOM     17  C   UNL     1      -1.844   5.015  25.363  0.00  0.00    +0.002 A 
ATOM     18  C   UNL     1      -2.116   4.242  25.459  0.00  0.00    +0.021 A 
ENDBRANCH   8  10
BRANCH   5   4
ATOM      4  C   UNL     1      -1.281  -0.444  25.318  0.00  0.00    +0.137 C 
BRANCH   4   3
ATOM      1  C   UNL     1      -1.419  -2.218  25.080  0.00  0.00    +0.132 C 
ATOM      2  N   UNL     1      -2.001  -1.660  24.909  0.00  0.00    -0.312 N 
ATOM      3  C   UNL     1      -1.938  -0.844  25.018  0.00  0.00    +0.137 A 
ATOM     19  N   UNL     1      -2.646  -0.499  24.775  0.00  0.00    -0.230 NA
ATOM     20  C   UNL     1      -3.147  -1.101  24.516  0.00  0.00    +0.098 A 
ATOM     21  C   UNL     1      -2.748  -1.818  24.598  0.00  0.00    +0.079 A 
ATOM     22  C   UNL     1      -3.118  -2.523  24.380  0.00  0.00    +0.019 A 
ATOM     23  C   UNL     1      -3.885  -2.510  24.079  0.00  0.00    +0.002 A 
ATOM     24  C   UNL     1      -4.284  -1.793  23.996  0.00  0.00    +0.002 A 
ATOM     25  C   UNL     1      -3.916  -1.088  24.215  0.00  0.00    +0.021 A 
ENDBRANCH   4   3
ENDBRANCH   5   4
TORSDOF 3
ENDMDL
MODEL 3
REMARK VINA RESULT:     -12.1      1.626      2.217
REMARK  Name = 
REMARK  3 active torsions:
REMARK  status: ('A' for Active; 'I' for Inactive)
REMARK    1  A    between atoms: C_3  and  C_4
REMARK    2  A    between atoms: C_4  and  N_5
REMARK    3  A    between atoms: C_8  and  C_10
REMARK                            x       y       z     vdW  Elec       q    Type
REMARK                         _______ _______ _______ _____ _____    ______ ____
ROOT
ATOM      5  N   UNL     1      -0.938   0.942  24.973  0.00  0.00    -0.266 NA
ATOM      6  C   UNL     1      -0.832   0.554  25.694  0.00  0.00    +0.073 C 
ATOM      7  C   UNL     1      -1.332  -0.102  25.707  0.00  0.00    +0.026 C 
ATOM      8  C   UNL     1      -1.747  -0.120  24.994  0.00  0.00    +0.076 C 
ATOM      9  C   UNL     1      -1.503   0.524  24.541  0.00  0.00    +0.080 C 
ENDROOT
BRANCH   8  10
ATOM     10  C   UNL     1      -2.307  -0.684  24.773  0.00  0.00    +0.140 A 
ATOM     11  N   UNL     1      -3.041  -0.529  24.427  0.00  0.00    -0.229 NA
ATOM     12  C   UNL     1      -3.419  -1.252  24.300  0.00  0.00    +0.100 A 
ATOM     13  C   UNL     1      -2.919  -1.852  24.566  0.00  0.00    +0.100 A 
ATOM     14  N   UNL     1      -2.232  -1.501  24.858  0.00  0.00    -0.229 NA
ATOM     15  C   UNL     1      -3.154  -2.641  24.508  0.00  0.00    +0.021 A 
ATOM     16  C   UNL     1      -3.889  -2.829  24.183  0.00  0.00    +0.002 A 
ATOM     17  C   UNL     1      -4.388  -2.229  23.917  0.00  0.00    +0.002 A 
ATOM     18  C   UNL     1      -4.153  -1.440  23.975  0.00  0.00    +0.021 A 
ENDBRANCH   8  10
BRANCH   5   4
ATOM      4  C   UNL     1      -0.547   1.625  24.728  0.00  0.00    +0.137 C 
BRANCH   4   3
ATOM      1  C   UNL     1       0.104   3.205  24.179  0.00  0.00    +0.132 C 
ATOM      2  N   UNL     1      -0.565   3.093  24.648  0.00  0.00    -0.312 N 
ATOM      3  C   UNL     1      -0.864   2.367  24.901  0.00  0.00    +0.137 A 
ATOM     19  N   UNL     1      -1.536   2.513  25.356  0.00  0.00    -0.230 NA
ATOM     20  C   UNL     1      -1.653   3.329  25.384  0.00  0.00    +0.098 A 
ATOM     21  C   UNL     1      -1.052   3.687  24.947  0.00  0.00    +0.079 A 
ATOM     22  C   UNL     1      -1.027   4.509  24.878  0.00  0.00    +0.019 A 
ATOM     23  C   UNL     1      -1.602   4.972  25.245  0.00  0.00    +0.002 A 
ATOM     24  C   UNL     1      -2.203   4.613  25.683  0.00  0.00    +0.002 A 
ATOM     25  C   UNL     1      -2.228   3.792  25.753  0.00  0.00    +0.021 A 
ENDBRANCH   4   3
ENDBRANCH   5   4
TORSDOF 3
ENDMDL
MODEL 4
REMARK VINA RESULT:     -11.9      0.649      5.275
REMARK  Name = 
REMARK  3 active torsions:
REMARK  status: ('A' for Active; 'I' for Inactive)
REMARK    1  A    between atoms: C_3  and  C_4
REMARK    2  A    between atoms: C_4  and  N_5
REMARK    3  A    between atoms: C_8  and  C_10
REMARK                            x       y       z     vdW  Elec       q    Type
REMARK                         _______ _______ _______ _____ _____    ______ ____
ROOT
ATOM      5  N   UNL     1      -4.061   1.119  25.059  0.00  0.00    -0.266 NA
ATOM      6  C   UNL     1      -4.357   1.449  24.363  0.00  0.00    +0.073 C 
ATOM      7  C   UNL     1      -3.913   2.123  24.192  0.00  0.00    +0.026 C 
ATOM      8  C   UNL     1      -3.342   2.209  24.782  0.00  0.00    +0.076 C 
ATOM      9  C   UNL     1      -3.435   1.589  25.317  0.00  0.00    +0.080 C 
ENDROOT
BRANCH   8  10
ATOM     10  C   UNL     1      -2.780   2.810  24.828  0.00  0.00    +0.140 A 
ATOM     11  N   UNL     1      -2.917   3.586  25.074  0.00  0.00    -0.229 NA
ATOM     12  C   UNL     1      -2.202   3.996  25.034  0.00  0.00    +0.100 A 
ATOM     13  C   UNL     1      -1.623   3.473  24.765  0.00  0.00    +0.100 A 
ATOM     14  N   UNL     1      -1.980   2.741  24.638  0.00  0.00    -0.229 NA
ATOM     15  C   UNL     1      -0.845   3.733  24.670  0.00  0.00    +0.021 A 
ATOM     16  C   UNL     1      -0.647   4.515  24.846  0.00  0.00    +0.002 A 
ATOM     17  C   UNL     1      -1.226   5.036  25.115  0.00  0.00    +0.002 A 
ATOM     18  C   UNL     1      -2.004   4.777  25.209  0.00  0.00    +0.021 A 
ENDBRANCH   8  10
BRANCH   5   4
ATOM      4  C   UNL     1      -4.344   0.439  25.430  0.00  0.00    +0.137 C 
BRANCH   4   3
ATOM      1  C   UNL     1      -3.475  -0.898  26.255  0.00  0.00    +0.132 C 
ATOM      2  N   UNL     1      -3.782  -0.919  25.490  0.00  0.00    -0.312 N 
ATOM      3  C   UNL     1      -4.181  -0.304  25.110  0.00  0.00    +0.137 A 
ATOM     19  N   UNL     1      -4.390  -0.563  24.356  0.00  0.00    -0.230 NA
ATOM     20  C   UNL     1      -4.119  -1.337  24.268  0.00  0.00    +0.098 A 
ATOM     21  C   UNL     1      -3.743  -1.557  24.969  0.00  0.00    +0.079 A 
ATOM     22  C   UNL     1      -3.415  -2.310  25.042  0.00  0.00    +0.019 A 
ATOM     23  C   UNL     1      -3.462  -2.844  24.415  0.00  0.00    +0.002 A 
ATOM     24  C   UNL     1      -3.838  -2.624  23.714  0.00  0.00    +0.002 A 
ATOM     25  C   UNL     1      -4.166  -1.871  23.640  0.00  0.00    +0.021 A 
ENDBRANCH   4   3
ENDBRANCH   5   4
TORSDOF 3
ENDMDL
MODEL 5
REMARK VINA RESULT:     -10.5      1.563      5.139
REMARK  Name = 
REMARK  3 active torsions:
REMARK  status: ('A' for Active; 'I' for Inactive)
REMARK    1  A    between atoms: C_3  and  C_4
REMARK    2  A    between atoms: C_4  and  N_5
REMARK    3  A    between atoms: C_8  and  C_10
REMARK                            x       y       z     vdW  Elec       q    Type
REMARK                         _______ _______ _______ _____ _____    ______ ____
ROOT
ATOM      5  N   UNL     1      -2.254   0.731  24.324  0.00  0.00    -0.266 NA
ATOM      6  C   UNL     1      -2.190   1.179  23.634  0.00  0.00    +0.073 C 
ATOM      7  C   UNL     1      -2.714   1.814  23.693  0.00  0.00    +0.026 C 
ATOM      8  C   UNL     1      -3.101   1.759  24.419  0.00  0.00    +0.076 C 
ATOM      9  C   UNL     1      -2.817   1.090  24.809  0.00  0.00    +0.080 C 
ENDROOT
BRANCH   8  10
ATOM     10  C   UNL     1      -3.672   2.280  24.705  0.00  0.00    +0.140 A 
ATOM     11  N   UNL     1      -4.462   2.098  24.860  0.00  0.00    -0.229 NA
ATOM     12  C   UNL     1      -4.831   2.782  25.138  0.00  0.00    +0.100 A 
ATOM     13  C   UNL     1      -4.270   3.386  25.155  0.00  0.00    +0.100 A 
ATOM     14  N   UNL     1      -3.554   3.076  24.888  0.00  0.00    -0.229 NA
ATOM     15  C   UNL     1      -4.484   4.140  25.412  0.00  0.00    +0.021 A 
ATOM     16  C   UNL     1      -5.259   4.290  25.651  0.00  0.00    +0.002 A 
ATOM     17  C   UNL     1      -5.820   3.686  25.634  0.00  0.00    +0.002 A 
ATOM     18  C   UNL     1      -5.606   2.931  25.377  0.00  0.00    +0.021 A 
ENDBRANCH   8  10
BRANCH   5   4
ATOM      4  C   UNL     1      -1.829   0.046  24.497  0.00  0.00    +0.137 C 
BRANCH   4   3
ATOM      1  C   UNL     1      -1.090  -1.528  24.943  0.00  0.00    +0.132 C 
ATOM      2  N   UNL     1      -1.865  -1.412  24.689  0.00  0.00    -0.312 N 
ATOM      3  C   UNL     1      -2.206  -0.688  24.484  0.00  0.00    +0.137 A 
ATOM     19  N   UNL     1      -2.988  -0.828  24.263  0.00  0.00    -0.230 NA
ATOM     20  C   UNL     1      -3.131  -1.637  24.331  0.00  0.00    +0.098 A 
ATOM     21  C   UNL     1      -2.437  -1.998  24.595  0.00  0.00    +0.079 A 
ATOM     22  C   UNL     1      -2.417  -2.814  24.714  0.00  0.00    +0.019 A 
ATOM     23  C   UNL     1      -3.090  -3.269  24.571  0.00  0.00    +0.002 A 
ATOM     24  C   UNL     1      -3.783  -2.908  24.308  0.00  0.00    +0.002 A 
ATOM     25  C   UNL     1      -3.805  -2.092  24.188  0.00  0.00    +0.021 A 
ENDBRANCH   4   3
ENDBRANCH   5   4
TORSDOF 3
ENDMDL
MODEL 6
REMARK VINA RESULT:     -10.2      1.379      2.302
REMARK  Name = 
REMARK  3 active torsions:
REMARK  status: ('A' for Active; 'I' for Inactive)
REMARK    1  A    between atoms: C_3  and  C_4
REMARK    2  A    between atoms: C_4  and  N_5
REMARK    3  A    between atoms: C_8  and  C_10
REMARK                            x       y       z     vdW  Elec       q    Type
REMARK                         _______ _______ _______ _____ _____    ______ ____
ROOT
ATOM      5  N   UNL     1      -1.948   1.592  24.925  0.00  0.00    -0.266 NA
ATOM      6  C   UNL     1      -1.322   1.354  25.408  0.00  0.00    +0.073 C 
ATOM      7  C   UNL     1      -1.341   0.531  25.461  0.00  0.00    +0.026 C 
ATOM      8  C   UNL     1      -1.977   0.260  25.012  0.00  0.00    +0.076 C 
ATOM      9  C   UNL     1      -2.352   0.916  24.680  0.00  0.00    +0.080 C 
ENDROOT
BRANCH   8  10
ATOM     10  C   UNL     1      -2.200  -0.527  24.911  0.00  0.00    +0.140 A 
ATOM     11  N   UNL     1      -1.727  -1.130  24.602  0.00  0.00    -0.229 NA
ATOM     12  C   UNL     1      -2.171  -1.826  24.602  0.00  0.00    +0.100 A 
ATOM     13  C   UNL     1      -2.916  -1.653  24.910  0.00  0.00    +0.100 A 
ATOM     14  N   UNL     1      -2.935  -0.852  25.101  0.00  0.00    -0.229 NA
ATOM     15  C   UNL     1      -3.483  -2.250  24.977  0.00  0.00    +0.021 A 
ATOM     16  C   UNL     1      -3.303  -3.019  24.735  0.00  0.00    +0.002 A 
ATOM     17  C   UNL     1      -2.557  -3.190  24.428  0.00  0.00    +0.002 A 
ATOM     18  C   UNL     1      -1.991  -2.594  24.361  0.00  0.00    +0.021 A 
ENDBRANCH   8  10
BRANCH   5   4
ATOM      4  C   UNL     1      -2.134   2.370  24.723  0.00  0.00    +0.137 C 
BRANCH   4   3
ATOM      1  C   UNL     1      -2.448   4.018  25.362  0.00  0.00    +0.132 C 
ATOM      2  N   UNL     1      -3.017   3.439  25.212  0.00  0.00    -0.312 N 
ATOM      3  C   UNL     1      -2.873   2.682  24.919  0.00  0.00    +0.137 A 
ATOM     19  N   UNL     1      -3.596   2.291  24.855  0.00  0.00    -0.230 NA
ATOM     20  C   UNL     1      -4.187   2.807  25.109  0.00  0.00    +0.098 A 
ATOM     21  C   UNL     1      -3.829   3.516  25.330  0.00  0.00    +0.079 A 
ATOM     22  C   UNL     1      -4.290   4.141  25.610  0.00  0.00    +0.019 A 
ATOM     23  C   UNL     1      -5.108   4.056  25.669  0.00  0.00    +0.002 A 
ATOM     24  C   UNL     1      -5.466   3.346  25.448  0.00  0.00    +0.002 A 
ATOM     25  C   UNL     1      -5.007   2.721  25.168  0.00  0.00    +0.021 A 
ENDBRANCH   4   3
ENDBRANCH   5   4
TORSDOF 3
ENDMDL
MODEL 7
REMARK VINA RESULT:     -10.0      2.157      4.615
REMARK  Name = 
REMARK  3 active torsions:
REMARK  status: ('A' for Active; 'I' for Inactive)
REMARK    1  A    between atoms: C_3  and  C_4
REMARK    2  A    between atoms: C_4  and  N_5
REMARK    3  A    between atoms: C_8  and  C_10
REMARK                            x       y       z     vdW  Elec       q    Type
REMARK                         _______ _______ _______ _____ _____    ______ ____
ROOT
ATOM      5  N   UNL     1      -1.887   1.620  23.619  0.00  0.00    -0.266 NA
ATOM      6  C   UNL     1      -2.270   1.786  22.907  0.00  0.00    +0.073 C 
ATOM      7  C   UNL     1      -3.002   2.124  23.083  0.00  0.00    +0.026 C 
ATOM      8  C   UNL     1      -3.071   2.167  23.904  0.00  0.00    +0.076 C 
ATOM      9  C   UNL     1      -2.383   1.855  24.235  0.00  0.00    +0.080 C 
ENDROOT
BRANCH   8  10
ATOM     10  C   UNL     1      -3.715   2.468  24.321  0.00  0.00    +0.140 A 
ATOM     11  N   UNL     1      -4.401   2.053  24.522  0.00  0.00    -0.229 NA
ATOM     12  C   UNL     1      -4.897   2.567  24.936  0.00  0.00    +0.100 A 
ATOM     13  C   UNL     1      -4.518   3.298  24.991  0.00  0.00    +0.100 A 
ATOM     14  N   UNL     1      -3.789   3.237  24.612  0.00  0.00    -0.229 NA
ATOM     15  C   UNL     1      -4.887   3.925  25.381  0.00  0.00    +0.021 A 
ATOM     16  C   UNL     1      -5.635   3.820  25.714  0.00  0.00    +0.002 A 
ATOM     17  C   UNL     1      -6.013   3.090  25.659  0.00  0.00    +0.002 A 
ATOM     18  C   UNL     1      -5.644   2.462  25.270  0.00  0.00    +0.021 A 
ENDBRANCH   8  10
BRANCH   5   4
ATOM      4  C   UNL     1      -1.141   1.278  23.699  0.00  0.00    +0.137 C 
BRANCH   4   3
ATOM      1  C   UNL     1       0.359   0.293  23.728  0.00  0.00    +0.132 C 
ATOM      2  N   UNL     1      -0.375   0.065  24.024  0.00  0.00    -0.312 N 
ATOM      3  C   UNL     1      -1.066   0.518  24.011  0.00  0.00    +0.137 A 
ATOM     19  N   UNL     1      -1.666   0.077  24.364  0.00  0.00    -0.230 NA
ATOM     20  C   UNL     1      -1.348  -0.648  24.595  0.00  0.00    +0.098 A 
ATOM     21  C   UNL     1      -0.551  -0.655  24.385  0.00  0.00    +0.079 A 
ATOM     22  C   UNL     1      -0.087  -1.317  24.550  0.00  0.00    +0.019 A 
ATOM     23  C   UNL     1      -0.420  -1.971  24.925  0.00  0.00    +0.002 A 
ATOM     24  C   UNL     1      -1.218  -1.964  25.135  0.00  0.00    +0.002 A 
ATOM     25  C   UNL     1      -1.682  -1.303  24.971  0.00  0.00    +0.021 A 
ENDBRANCH   4   3
ENDBRANCH   5   4
TORSDOF 3
ENDMDL
MODEL 8
REMARK VINA RESULT:      -9.7      2.282      4.364
REMARK  Name = 
REMARK  3 active torsions:
REMARK  status: ('A' for Active; 'I' for Inactive)
REMARK    1  A    between atoms: C_3  and  C_4
REMARK    2  A    between atoms: C_4  and  N_5
REMARK    3  A    between atoms: C_8  and  C_10
REMARK                            x       y       z     vdW  Elec       q    Type
REMARK                         _______ _______ _______ _____ _____    ______ ____
ROOT
ATOM      5  N   UNL     1      -3.000  -0.391  24.820  0.00  0.00    -0.266 NA
ATOM      6  C   UNL     1      -3.586  -0.612  24.282  0.00  0.00    +0.073 C 
ATOM      7  C   UNL     1      -4.170  -0.029  24.288  0.00  0.00    +0.026 C 
ATOM      8  C   UNL     1      -3.945   0.552  24.829  0.00  0.00    +0.076 C 
ATOM      9  C   UNL     1      -3.222   0.328  25.157  0.00  0.00    +0.080 C 
ENDROOT
BRANCH   8  10
ATOM     10  C   UNL     1      -4.368   1.236  25.010  0.00  0.00    +0.140 A 
ATOM     11  N   UNL     1      -4.121   2.011  24.867  0.00  0.00    -0.229 NA
ATOM     12  C   UNL     1      -4.714   2.520  25.135  0.00  0.00    +0.100 A 
ATOM     13  C   UNL     1      -5.326   2.059  25.441  0.00  0.00    +0.100 A 
ATOM     14  N   UNL     1      -5.112   1.267  25.364  0.00  0.00    -0.229 NA
ATOM     15  C   UNL     1      -5.999   2.422  25.752  0.00  0.00    +0.021 A 
ATOM     16  C   UNL     1      -6.059   3.245  25.754  0.00  0.00    +0.002 A 
ATOM     17  C   UNL     1      -5.448   3.705  25.448  0.00  0.00    +0.002 A 
ATOM     18  C   UNL     1      -4.774   3.342  25.137  0.00  0.00    +0.021 A 
ENDBRANCH   8  10
BRANCH   5   4
ATOM      4  C   UNL     1      -2.313  -0.815  24.989  0.00  0.00    +0.137 C 
BRANCH   4   3
ATOM      1  C   UNL     1      -0.947  -1.923  24.631  0.00  0.00    +0.132 C 
ATOM      2  N   UNL     1      -0.971  -1.116  24.467  0.00  0.00    -0.312 N 
ATOM      3  C   UNL     1      -1.599  -0.606  24.632  0.00  0.00    +0.137 A 
ATOM     19  N   UNL     1      -1.388   0.149  24.376  0.00  0.00    -0.230 NA
ATOM     20  C   UNL     1      -0.631   0.106  24.053  0.00  0.00    +0.098 A 
ATOM     21  C   UNL     1      -0.373  -0.675  24.110  0.00  0.00    +0.079 A 
ATOM     22  C   UNL     1       0.374  -0.885  23.828  0.00  0.00    +0.019 A 
ATOM     23  C   UNL     1       0.863  -0.313  23.491  0.00  0.00    +0.002 A 
ATOM     24  C   UNL     1       0.605   0.469  23.434  0.00  0.00    +0.002 A 
ATOM     25  C   UNL     1      -0.141   0.679  23.715  0.00  0.00    +0.021 A 
ENDBRANCH   4   3
ENDBRANCH   5   4
TORSDOF 3
ENDMDL
MODEL 9
REMARK VINA RESULT:      -9.7      2.219      3.369
REMARK  Name = 
REMARK  3 active torsions:
REMARK  status: ('A' for Active; 'I' for Inactive)
REMARK    1  A    between atoms: C_3  and  C_4
REMARK    2  A    between atoms: C_4  and  N_5
REMARK    3  A    between atoms: C_8  and  C_10
REMARK                            x       y       z     vdW  Elec       q    Type
REMARK                         _______ _______ _______ _____ _____    ______ ____
ROOT
ATOM      5  N   UNL     1      -2.883   2.538  23.800  0.00  0.00    -0.266 NA
ATOM      6  C   UNL     1      -2.735   2.420  22.996  0.00  0.00    +0.073 C 
ATOM      7  C   UNL     1      -2.215   1.784  22.924  0.00  0.00    +0.026 C 
ATOM      8  C   UNL     1      -2.040   1.509  23.682  0.00  0.00    +0.076 C 
ATOM      9  C   UNL     1      -2.453   1.975  24.223  0.00  0.00    +0.080 C 
ENDROOT
BRANCH   8  10
ATOM     10  C   UNL     1      -1.540   0.880  23.866  0.00  0.00    +0.140 A 
ATOM     11  N   UNL     1      -1.724   0.243  24.359  0.00  0.00    -0.229 NA
ATOM     12  C   UNL     1      -1.065  -0.254  24.387  0.00  0.00    +0.100 A 
ATOM     13  C   UNL     1      -0.476   0.076  23.914  0.00  0.00    +0.100 A 
ATOM     14  N   UNL     1      -0.769   0.776  23.592  0.00  0.00    -0.229 NA
ATOM     15  C   UNL     1       0.252  -0.305  23.836  0.00  0.00    +0.021 A 
ATOM     16  C   UNL     1       0.390  -1.016  24.234  0.00  0.00    +0.002 A 
ATOM     17  C   UNL     1      -0.199  -1.344  24.707  0.00  0.00    +0.002 A 
ATOM     18  C   UNL     1      -0.928  -0.964  24.784  0.00  0.00    +0.021 A 
ENDBRANCH   8  10
BRANCH   5   4
ATOM      4  C   UNL     1      -3.374   3.117  24.122  0.00  0.00    +0.137 C 
BRANCH   4   3
ATOM      1  C   UNL     1      -3.971   3.803  25.670  0.00  0.00    +0.132 C 
ATOM      2  N   UNL     1      -4.342   3.215  25.225  0.00  0.00    -0.312 N 
ATOM      3  C   UNL     1      -4.067   2.900  24.513  0.00  0.00    +0.137 A 
ATOM     19  N   UNL     1      -4.608   2.329  24.263  0.00  0.00    -0.230 NA
ATOM     20  C   UNL     1      -5.215   2.292  24.818  0.00  0.00    +0.098 A 
ATOM     21  C   UNL     1      -5.051   2.840  25.413  0.00  0.00    +0.079 A 
ATOM     22  C   UNL     1      -5.570   2.925  26.049  0.00  0.00    +0.019 A 
ATOM     23  C   UNL     1      -6.251   2.463  26.091  0.00  0.00    +0.002 A 
ATOM     24  C   UNL     1      -6.416   1.916  25.496  0.00  0.00    +0.002 A 
ATOM     25  C   UNL     1      -5.898   1.830  24.860  0.00  0.00    +0.021 A 
ENDBRANCH   4   3
ENDBRANCH   5   4
TORSDOF 3
ENDMDL
MODEL 10
REMARK VINA RESULT:      -9.7      1.601      2.473
REMARK  Name = 
REMARK  3 active torsions:
REMARK  status: ('A' for Active; 'I' for Inactive)
REMARK    1  A    between atoms: C_3  and  C_4
REMARK    2  A    between atoms: C_4  and  N_5
REMARK    3  A    between atoms: C_8  and  C_10
REMARK                            x       y       z     vdW  Elec       q    Type
REMARK                         _______ _______ _______ _____ _____    ______ ____
ROOT
ATOM      5  N   UNL     1      -4.607   0.201  24.803  0.00  0.00    -0.266 NA
ATOM      6  C   UNL     1      -4.768  -0.313  24.177  0.00  0.00    +0.073 C 
ATOM      7  C   UNL     1      -4.122  -0.819  24.091  0.00  0.00    +0.026 C 
ATOM      8  C   UNL     1      -3.562  -0.618  24.663  0.00  0.00    +0.076 C 
ATOM      9  C   UNL     1      -3.862   0.013  25.102  0.00  0.00    +0.080 C 
ENDROOT
BRANCH   8  10
ATOM     10  C   UNL     1      -2.831  -0.982  24.776  0.00  0.00    +0.140 A 
ATOM     11  N   UNL     1      -2.626  -1.744  24.533  0.00  0.00    -0.229 NA
ATOM     12  C   UNL     1      -1.844  -1.881  24.759  0.00  0.00    +0.100 A 
ATOM     13  C   UNL     1      -1.567  -1.205  25.141  0.00  0.00    +0.100 A 
ATOM     14  N   UNL     1      -2.176  -0.649  25.151  0.00  0.00    -0.229 NA
ATOM     15  C   UNL     1      -0.794  -1.182  25.430  0.00  0.00    +0.021 A 
ATOM     16  C   UNL     1      -0.299  -1.837  25.336  0.00  0.00    +0.002 A 
ATOM     17  C   UNL     1      -0.577  -2.512  24.955  0.00  0.00    +0.002 A 
ATOM     18  C   UNL     1      -1.350  -2.535  24.666  0.00  0.00    +0.021 A 
ENDBRANCH   8  10
BRANCH   5   4
ATOM      4  C   UNL     1      -5.105   0.799  25.078  0.00  0.00    +0.137 C 
BRANCH   4   3
ATOM      1  C   UNL     1      -5.730   2.175  26.045  0.00  0.00    +0.132 C 
ATOM      2  N   UNL     1      -5.175   2.223  25.437  0.00  0.00    -0.312 N 
ATOM      3  C   UNL     1      -4.888   1.590  24.992  0.00  0.00    +0.137 A 
ATOM     19  N   UNL     1      -4.345   1.888  24.447  0.00  0.00    -0.230 NA
ATOM     20  C   UNL     1      -4.297   2.703  24.555  0.00  0.00    +0.098 A 
ATOM     21  C   UNL     1      -4.810   2.911  25.167  0.00  0.00    +0.079 A 
ATOM     22  C   UNL     1      -4.878   3.700  25.398  0.00  0.00    +0.019 A 
ATOM     23  C   UNL     1      -4.434   4.281  25.018  0.00  0.00    +0.002 A 
ATOM     24  C   UNL     1      -3.921   4.074  24.407  0.00  0.00    +0.002 A 
ATOM     25  C   UNL     1      -3.852   3.286  24.174  0.00  0.00    +0.021 A 
ENDBRANCH   4   3
ENDBRANCH   5   4
TORSDOF 3
ENDMDL
