MODEL 1
REMARK VINA RESULT:     -10.4      0.000      0.000
REMARK  Name = 
REMARK  8 active torsions:
REMARK  status: ('A' for Active; 'I' for Inactive)
REMARK    1  A    between atoms: C_2  and  C_5
REMARK    2  A    between atoms: C_5  and  C_6
REMARK    3  A    between atoms: N_8  and  C_9
REMARK    4  A    between atoms: C_9  and  C_10
REMARK    5  A    between atoms: C_13  and  N_14
REMARK    6  A    between atoms: N_14  and  C_15
REMARK    7  A    between atoms: C_15  and  C_16
REMARK    8  A    between atoms: C_19  and  C_22
REMARK                            x       y       z     vdW  Elec       q    Type
REMARK                         _______ _______ _______ _____ _____    ______ ____
ROOT
ATOM     10  C   UNL     1      -4.008   2.671  24.794  0.00  0.00    +0.169 C 
ATOM     11  O   UNL     1      -4.593   2.517  25.355  0.00  0.00    -0.350 OA
ATOM     12  C   UNL     1      -4.809   1.725  25.286  0.00  0.00    +0.162 C 
ATOM     13  C   UNL     1      -4.358   1.388  24.682  0.00  0.00    +0.135 C 
ATOM     25  C   UNL     1      -3.863   1.973  24.378  0.00  0.00    +0.199 C 
ATOM     26  O   UNL     1      -3.319   1.878  23.766  0.00  0.00    -0.219 OA
ENDROOT
BRANCH  10   9
ATOM      9  C   UNL     1      -3.634   3.396  24.670  0.00  0.00    +0.147 C 
BRANCH   9   8
ATOM      6  C   UNL     1      -2.593   4.320  24.992  0.00  0.00    +0.241 C 
ATOM      7  O   UNL     1      -2.809   4.789  24.349  0.00  0.00    -0.273 OA
ATOM      8  N   UNL     1      -3.006   3.623  25.153  0.00  0.00    -0.203 NA
BRANCH   6   5
ATOM      5  C   UNL     1      -1.964   4.547  25.476  0.00  0.00    +0.087 C 
BRANCH   5   2
ATOM      1  C   UNL     1      -0.573   5.124  24.802  0.00  0.00    +0.000 C 
ATOM      2  C   UNL     1      -1.268   4.836  25.139  0.00  0.00    +0.009 C 
ATOM      3  C   UNL     1      -1.606   5.587  25.086  0.00  0.00    +0.000 C 
ATOM      4  C   UNL     1      -0.931   4.085  25.193  0.00  0.00    +0.000 C 
ENDBRANCH   5   2
ENDBRANCH   6   5
ENDBRANCH   9   8
ENDBRANCH  10   9
BRANCH  13  14
ATOM     14  N   UNL     1      -4.396   0.604  24.428  0.00  0.00    -0.209 NA
BRANCH  14  15
ATOM     15  C   UNL     1      -4.493  -0.004  24.978  0.00  0.00    +0.115 C 
BRANCH  15  16
ATOM     16  C   UNL     1      -4.171  -0.749  24.829  0.00  0.00    -0.005 A 
ATOM     17  C   UNL     1      -3.673  -1.102  25.385  0.00  0.00    -0.003 A 
ATOM     18  C   UNL     1      -3.352  -1.846  25.236  0.00  0.00    +0.006 A 
ATOM     19  C   UNL     1      -3.527  -2.239  24.532  0.00  0.00    +0.080 A 
ATOM     20  C   UNL     1      -4.025  -1.886  23.977  0.00  0.00    +0.006 A 
ATOM     21  C   UNL     1      -4.347  -1.141  24.125  0.00  0.00    -0.003 A 
BRANCH  19  22
ATOM     22  C   UNL     1      -3.206  -2.984  24.383  0.00  0.00    +0.388 C 
ATOM     23  O   UNL     1      -3.680  -3.657  24.444  0.00  0.00    -0.241 OA
ATOM     24  O   UNL     1      -2.412  -3.056  24.174  0.00  0.00    -0.241 OA
ENDBRANCH  19  22
ENDBRANCH  15  16
ENDBRANCH  14  15
ENDBRANCH  13  14
TORSDOF 8
ENDMDL
MODEL 2
REMARK VINA RESULT:      -9.6      1.998      6.406
REMARK  Name = 
REMARK  8 active torsions:
REMARK  status: ('A' for Active; 'I' for Inactive)
REMARK    1  A    between atoms: C_2  and  C_5
REMARK    2  A    between atoms: C_5  and  C_6
REMARK    3  A    between atoms: N_8  and  C_9
REMARK    4  A    between atoms: C_9  and  C_10
REMARK    5  A    between atoms: C_13  and  N_14
REMARK    6  A    between atoms: N_14  and  C_15
REMARK    7  A    between atoms: C_15  and  C_16
REMARK    8  A    between atoms: C_19  and  C_22
REMARK                            x       y       z     vdW  Elec       q    Type
REMARK                         _______ _______ _______ _____ _____    ______ ____
ROOT
ATOM     10  C   UNL     1      -1.281  -0.427  25.156  0.00  0.00    +0.169 C 
ATOM     11  O   UNL     1      -1.047  -0.322  25.940  0.00  0.00    -0.350 OA
ATOM     12  C   UNL     1      -0.804   0.461  26.030  0.00  0.00    +0.162 C 
ATOM     13  C   UNL     1      -0.887   0.839  25.302  0.00  0.00    +0.135 C 
ATOM     25  C   UNL     1      -1.181   0.291  24.761  0.00  0.00    +0.199 C 
ATOM     26  O   UNL     1      -1.347   0.434  23.966  0.00  0.00    -0.219 OA
ENDROOT
BRANCH  10   9
ATOM      9  C   UNL     1      -1.564  -1.128  24.824  0.00  0.00    +0.147 C 
BRANCH   9   8
ATOM      6  C   UNL     1      -2.605  -2.094  24.675  0.00  0.00    +0.241 C 
ATOM      7  O   UNL     1      -2.120  -2.542  24.181  0.00  0.00    -0.273 OA
ATOM      8  N   UNL     1      -2.327  -1.387  24.997  0.00  0.00    -0.203 NA
BRANCH   6   5
ATOM      5  C   UNL     1      -3.370  -2.353  24.849  0.00  0.00    +0.087 C 
BRANCH   5   2
ATOM      1  C   UNL     1      -4.394  -2.775  23.627  0.00  0.00    +0.000 C 
ATOM      2  C   UNL     1      -3.882  -2.564  24.238  0.00  0.00    +0.009 C 
ATOM      3  C   UNL     1      -3.604  -3.340  24.273  0.00  0.00    +0.000 C 
ATOM      4  C   UNL     1      -4.160  -1.788  24.203  0.00  0.00    +0.000 C 
ENDBRANCH   5   2
ENDBRANCH   6   5
ENDBRANCH   9   8
ENDBRANCH  10   9
BRANCH  13  14
ATOM     14  N   UNL     1      -0.706   1.629  25.142  0.00  0.00    -0.209 NA
BRANCH  14  15
ATOM     15  C   UNL     1      -0.751   2.192  25.744  0.00  0.00    +0.115 C 
BRANCH  15  16
ATOM     16  C   UNL     1      -0.880   2.985  25.557  0.00  0.00    -0.005 A 
ATOM     17  C   UNL     1      -0.312   3.406  25.130  0.00  0.00    -0.003 A 
ATOM     18  C   UNL     1      -0.440   4.198  24.943  0.00  0.00    +0.006 A 
ATOM     19  C   UNL     1      -1.137   4.572  25.182  0.00  0.00    +0.080 A 
ATOM     20  C   UNL     1      -1.704   4.151  25.608  0.00  0.00    +0.006 A 
ATOM     21  C   UNL     1      -1.576   3.358  25.795  0.00  0.00    -0.003 A 
BRANCH  19  22
ATOM     22  C   UNL     1      -1.265   5.365  24.995  0.00  0.00    +0.388 C 
ATOM     23  O   UNL     1      -0.683   5.794  24.597  0.00  0.00    -0.241 OA
ATOM     24  O   UNL     1      -1.975   5.728  25.205  0.00  0.00    -0.241 OA
ENDBRANCH  19  22
ENDBRANCH  15  16
ENDBRANCH  14  15
ENDBRANCH  13  14
TORSDOF 8
ENDMDL
MODEL 3
REMARK VINA RESULT:      -9.5      1.080      5.865
REMARK  Name = 
REMARK  8 active torsions:
REMARK  status: ('A' for Active; 'I' for Inactive)
REMARK    1  A    between atoms: C_2  and  C_5
REMARK    2  A    between atoms: C_5  and  C_6
REMARK    3  A    between atoms: N_8  and  C_9
REMARK    4  A    between atoms: C_9  and  C_10
REMARK    5  A    between atoms: C_13  and  N_14
REMARK    6  A    between atoms: N_14  and  C_15
REMARK    7  A    between atoms: C_15  and  C_16
REMARK    8  A    between atoms: C_19  and  C_22
REMARK                            x       y       z     vdW  Elec       q    Type
REMARK                         _______ _______ _______ _____ _____    ______ ____
ROOT
ATOM     10  C   UNL     1      -4.447   0.544  24.640  0.00  0.00    +0.169 C 
ATOM     11  O   UNL     1      -4.907   0.815  25.269  0.00  0.00    -0.350 OA
ATOM     12  C   UNL     1      -4.754   1.619  25.369  0.00  0.00    +0.162 C 
ATOM     13  C   UNL     1      -4.200   1.846  24.801  0.00  0.00    +0.135 C 
ATOM     25  C   UNL     1      -4.010   1.182  24.351  0.00  0.00    +0.199 C 
ATOM     26  O   UNL     1      -3.478   1.158  23.722  0.00  0.00    -0.219 OA
ENDROOT
BRANCH  10   9
ATOM      9  C   UNL     1      -4.427  -0.228  24.351  0.00  0.00    +0.147 C 
BRANCH   9   8
ATOM      6  C   UNL     1      -4.020  -1.591  24.489  0.00  0.00    +0.241 C 
ATOM      7  O   UNL     1      -4.333  -1.760  23.746  0.00  0.00    -0.273 OA
ATOM      8  N   UNL     1      -4.068  -0.825  24.793  0.00  0.00    -0.203 NA
BRANCH   6   5
ATOM      5  C   UNL     1      -3.660  -2.188  24.932  0.00  0.00    +0.087 C 
BRANCH   5   2
ATOM      1  C   UNL     1      -2.459  -3.099  24.262  0.00  0.00    +0.000 C 
ATOM      2  C   UNL     1      -3.059  -2.643  24.597  0.00  0.00    +0.009 C 
ATOM      3  C   UNL     1      -2.494  -2.164  24.960  0.00  0.00    +0.000 C 
ATOM      4  C   UNL     1      -3.625  -3.122  24.234  0.00  0.00    +0.000 C 
ENDBRANCH   5   2
ENDBRANCH   6   5
ENDBRANCH   9   8
ENDBRANCH  10   9
BRANCH  13  14
ATOM     14  N   UNL     1      -3.891   2.604  24.701  0.00  0.00    -0.209 NA
BRANCH  14  15
ATOM     15  C   UNL     1      -3.633   3.034  25.357  0.00  0.00    +0.115 C 
BRANCH  15  16
ATOM     16  C   UNL     1      -3.026   3.586  25.274  0.00  0.00    -0.005 A 
ATOM     17  C   UNL     1      -2.334   3.508  25.719  0.00  0.00    -0.003 A 
ATOM     18  C   UNL     1      -1.727   4.060  25.636  0.00  0.00    +0.006 A 
ATOM     19  C   UNL     1      -1.811   4.691  25.110  0.00  0.00    +0.080 A 
ATOM     20  C   UNL     1      -2.502   4.768  24.666  0.00  0.00    +0.006 A 
ATOM     21  C   UNL     1      -3.109   4.216  24.749  0.00  0.00    -0.003 A 
BRANCH  19  22
ATOM     22  C   UNL     1      -1.204   5.243  25.028  0.00  0.00    +0.388 C 
ATOM     23  O   UNL     1      -0.437   4.990  24.853  0.00  0.00    -0.241 OA
ATOM     24  O   UNL     1      -1.362   6.047  25.120  0.00  0.00    -0.241 OA
ENDBRANCH  19  22
ENDBRANCH  15  16
ENDBRANCH  14  15
ENDBRANCH  13  14
TORSDOF 8
ENDMDL
MODEL 4
REMARK VINA RESULT:      -9.3      1.971      2.397
REMARK  Name = 
REMARK  8 active torsions:
REMARK  status: ('A' for Active; 'I' for Inactive)
REMARK    1  A    between atoms: C_2  and  C_5
REMARK    2  A    between atoms: C_5  and  C_6
REMARK    3  A    between atoms: N_8  and  C_9
REMARK    4  A    between atoms: C_9  and  C_10
REMARK    5  A    between atoms: C_13  and  N_14
REMARK    6  A    between atoms: N_14  and  C_15
REMARK    7  A    between atoms: C_15  and  C_16
REMARK    8  A    between atoms: C_19  and  C_22
REMARK                            x       y       z     vdW  Elec       q    Type
REMARK                         _______ _______ _______ _____ _____    ______ ____
ROOT
ATOM     10  C   UNL     1      -0.613   1.677  25.050  0.00  0.00    +0.169 C 
ATOM     11  O   UNL     1      -0.516   1.387  25.816  0.00  0.00    -0.350 OA
ATOM     12  C   UNL     1      -0.743   0.594  25.818  0.00  0.00    +0.162 C 
ATOM     13  C   UNL     1      -0.980   0.394  25.054  0.00  0.00    +0.135 C 
ATOM     25  C   UNL     1      -0.900   1.062  24.579  0.00  0.00    +0.199 C 
ATOM     26  O   UNL     1      -1.075   1.110  23.774  0.00  0.00    -0.219 OA
ENDROOT
BRANCH  10   9
ATOM      9  C   UNL     1      -0.452   2.446  24.798  0.00  0.00    +0.147 C 
BRANCH   9   8
ATOM      6  C   UNL     1      -0.672   3.850  24.948  0.00  0.00    +0.241 C 
ATOM      7  O   UNL     1      -0.448   3.969  24.164  0.00  0.00    -0.273 OA
ATOM      8  N   UNL     1      -0.674   3.087  25.265  0.00  0.00    -0.203 NA
BRANCH   6   5
ATOM      5  C   UNL     1      -0.894   4.492  25.416  0.00  0.00    +0.087 C 
BRANCH   5   2
ATOM      1  C   UNL     1      -1.925   5.632  24.816  0.00  0.00    +0.000 C 
ATOM      2  C   UNL     1      -1.410   5.062  25.116  0.00  0.00    +0.009 C 
ATOM      3  C   UNL     1      -2.047   4.670  25.464  0.00  0.00    +0.000 C 
ATOM      4  C   UNL     1      -0.773   5.454  24.768  0.00  0.00    +0.000 C 
ENDBRANCH   5   2
ENDBRANCH   6   5
ENDBRANCH   9   8
ENDBRANCH  10   9
BRANCH  13  14
ATOM     14  N   UNL     1      -1.250  -0.347  24.808  0.00  0.00    -0.209 NA
BRANCH  14  15
ATOM     15  C   UNL     1      -1.673  -0.826  25.331  0.00  0.00    +0.115 C 
BRANCH  15  16
ATOM     16  C   UNL     1      -2.237  -1.354  25.041  0.00  0.00    -0.005 A 
ATOM     17  C   UNL     1      -3.039  -1.212  25.171  0.00  0.00    -0.003 A 
ATOM     18  C   UNL     1      -3.603  -1.739  24.881  0.00  0.00    +0.006 A 
ATOM     19  C   UNL     1      -3.365  -2.409  24.461  0.00  0.00    +0.080 A 
ATOM     20  C   UNL     1      -2.562  -2.550  24.332  0.00  0.00    +0.006 A 
ATOM     21  C   UNL     1      -1.999  -2.022  24.621  0.00  0.00    -0.003 A 
BRANCH  19  22
ATOM     22  C   UNL     1      -3.929  -2.937  24.171  0.00  0.00    +0.388 C 
ATOM     23  O   UNL     1      -4.554  -2.659  23.710  0.00  0.00    -0.241 OA
ATOM     24  O   UNL     1      -3.868  -3.741  24.342  0.00  0.00    -0.241 OA
ENDBRANCH  19  22
ENDBRANCH  15  16
ENDBRANCH  14  15
ENDBRANCH  13  14
TORSDOF 8
ENDMDL
MODEL 5
REMARK VINA RESULT:      -8.4      3.881      5.083
REMARK  Name = 
REMARK  8 active torsions:
REMARK  status: ('A' for Active; 'I' for Inactive)
REMARK    1  A    between atoms: C_2  and  C_5
REMARK    2  A    between atoms: C_5  and  C_6
REMARK    3  A    between atoms: N_8  and  C_9
REMARK    4  A    between atoms: C_9  and  C_10
REMARK    5  A    between atoms: C_13  and  N_14
REMARK    6  A    between atoms: N_14  and  C_15
REMARK    7  A    between atoms: C_15  and  C_16
REMARK    8  A    between atoms: C_19  and  C_22
REMARK                            x       y       z     vdW  Elec       q    Type
REMARK                         _______ _______ _______ _____ _____    ______ ____
ROOT
ATOM     10  C   UNL     1       0.114   0.815  23.813  0.00  0.00    +0.169 C 
ATOM     11  O   UNL     1      -0.220   0.071  23.695  0.00  0.00    -0.350 OA
ATOM     12  C   UNL     1      -1.019   0.115  23.895  0.00  0.00    +0.162 C 
ATOM     13  C   UNL     1      -1.178   0.887  24.139  0.00  0.00    +0.135 C 
ATOM     25  C   UNL     1      -0.478   1.320  24.088  0.00  0.00    +0.199 C 
ATOM     26  O   UNL     1      -0.386   2.117  24.278  0.00  0.00    -0.219 OA
ENDROOT
BRANCH  10   9
ATOM      9  C   UNL     1       0.903   1.019  23.681  0.00  0.00    +0.147 C 
BRANCH   9   8
ATOM      6  C   UNL     1       2.188   0.706  23.140  0.00  0.00    +0.241 C 
ATOM      7  O   UNL     1       2.496   1.395  23.473  0.00  0.00    -0.273 OA
ATOM      8  N   UNL     1       1.390   0.518  23.244  0.00  0.00    -0.203 NA
BRANCH   6   5
ATOM      5  C   UNL     1       2.675   0.205  22.702  0.00  0.00    +0.087 C 
BRANCH   5   2
ATOM      1  C   UNL     1       4.314   0.295  22.872  0.00  0.00    +0.000 C 
ATOM      2  C   UNL     1       3.495   0.250  22.787  0.00  0.00    +0.009 C 
ATOM      3  C   UNL     1       3.507   0.925  22.313  0.00  0.00    +0.000 C 
ATOM      4  C   UNL     1       3.483  -0.425  23.261  0.00  0.00    +0.000 C 
ENDBRANCH   5   2
ENDBRANCH   6   5
ENDBRANCH   9   8
ENDBRANCH  10   9
BRANCH  13  14
ATOM     14  N   UNL     1      -1.910   1.176  24.389  0.00  0.00    -0.209 NA
BRANCH  14  15
ATOM     15  C   UNL     1      -2.606   0.867  24.070  0.00  0.00    +0.115 C 
BRANCH  15  16
ATOM     16  C   UNL     1      -3.337   1.145  24.332  0.00  0.00    -0.005 A 
ATOM     17  C   UNL     1      -3.600   1.893  24.104  0.00  0.00    -0.003 A 
ATOM     18  C   UNL     1      -4.331   2.171  24.365  0.00  0.00    +0.006 A 
ATOM     19  C   UNL     1      -4.800   1.700  24.855  0.00  0.00    +0.080 A 
ATOM     20  C   UNL     1      -4.537   0.952  25.083  0.00  0.00    +0.006 A 
ATOM     21  C   UNL     1      -3.806   0.675  24.821  0.00  0.00    -0.003 A 
BRANCH  19  22
ATOM     22  C   UNL     1      -5.531   1.978  25.117  0.00  0.00    +0.388 C 
ATOM     23  O   UNL     1      -6.224   1.731  24.742  0.00  0.00    -0.241 OA
ATOM     24  O   UNL     1      -5.571   2.501  25.753  0.00  0.00    -0.241 OA
ENDBRANCH  19  22
ENDBRANCH  15  16
ENDBRANCH  14  15
ENDBRANCH  13  14
TORSDOF 8
ENDMDL
MODEL 6
REMARK VINA RESULT:      -8.2      5.019      6.444
REMARK  Name = 
REMARK  8 active torsions:
REMARK  status: ('A' for Active; 'I' for Inactive)
REMARK    1  A    between atoms: C_2  and  C_5
REMARK    2  A    between atoms: C_5  and  C_6
REMARK    3  A    between atoms: N_8  and  C_9
REMARK    4  A    between atoms: C_9  and  C_10
REMARK    5  A    between atoms: C_13  and  N_14
REMARK    6  A    between atoms: N_14  and  C_15
REMARK    7  A    between atoms: C_15  and  C_16
REMARK    8  A    between atoms: C_19  and  C_22
REMARK                            x       y       z     vdW  Elec       q    Type
REMARK                         _______ _______ _______ _____ _____    ______ ____
ROOT
ATOM     10  C   UNL     1      -0.421   0.507  23.856  0.00  0.00    +0.169 C 
ATOM     11  O   UNL     1      -0.325  -0.180  23.409  0.00  0.00    -0.350 OA
ATOM     12  C   UNL     1       0.449  -0.193  23.127  0.00  0.00    +0.162 C 
ATOM     13  C   UNL     1       0.832   0.485  23.398  0.00  0.00    +0.135 C 
ATOM     25  C   UNL     1       0.295   0.918  23.849  0.00  0.00    +0.199 C 
ATOM     26  O   UNL     1       0.445   1.636  24.226  0.00  0.00    -0.219 OA
ENDROOT
BRANCH  10   9
ATOM      9  C   UNL     1      -1.111   0.742  24.242  0.00  0.00    +0.147 C 
BRANCH   9   8
ATOM      6  C   UNL     1      -2.530   0.658  24.394  0.00  0.00    +0.241 C 
ATOM      7  O   UNL     1      -2.479   1.080  25.100  0.00  0.00    -0.273 OA
ATOM      8  N   UNL     1      -1.845   0.488  23.964  0.00  0.00    -0.203 NA
BRANCH   6   5
ATOM      5  C   UNL     1      -3.264   0.403  24.117  0.00  0.00    +0.087 C 
BRANCH   5   2
ATOM      1  C   UNL     1      -4.619   0.648  25.026  0.00  0.00    +0.000 C 
ATOM      2  C   UNL     1      -3.941   0.525  24.571  0.00  0.00    +0.009 C 
ATOM      3  C   UNL     1      -4.019   1.282  24.253  0.00  0.00    +0.000 C 
ATOM      4  C   UNL     1      -3.864  -0.232  24.890  0.00  0.00    +0.000 C 
ENDBRANCH   5   2
ENDBRANCH   6   5
ENDBRANCH   9   8
ENDBRANCH  10   9
BRANCH  13  14
ATOM     14  N   UNL     1       1.616   0.693  23.246  0.00  0.00    -0.209 NA
BRANCH  14  15
ATOM     15  C   UNL     1       2.107   0.177  22.828  0.00  0.00    +0.115 C 
BRANCH  15  16
ATOM     16  C   UNL     1       2.923   0.197  22.947  0.00  0.00    -0.005 A 
ATOM     17  C   UNL     1       3.353   0.870  22.741  0.00  0.00    -0.003 A 
ATOM     18  C   UNL     1       4.169   0.890  22.861  0.00  0.00    +0.006 A 
ATOM     19  C   UNL     1       4.555   0.237  23.186  0.00  0.00    +0.080 A 
ATOM     20  C   UNL     1       4.124  -0.435  23.392  0.00  0.00    +0.006 A 
ATOM     21  C   UNL     1       3.308  -0.455  23.273  0.00  0.00    -0.003 A 
BRANCH  19  22
ATOM     22  C   UNL     1       5.371   0.257  23.306  0.00  0.00    +0.388 C 
ATOM     23  O   UNL     1       5.869  -0.188  22.821  0.00  0.00    -0.241 OA
ATOM     24  O   UNL     1       5.688   0.720  23.909  0.00  0.00    -0.241 OA
ENDBRANCH  19  22
ENDBRANCH  15  16
ENDBRANCH  14  15
ENDBRANCH  13  14
TORSDOF 8
ENDMDL
MODEL 7
REMARK VINA RESULT:      -8.1      3.806      5.021
REMARK  Name = 
REMARK  8 active torsions:
REMARK  status: ('A' for Active; 'I' for Inactive)
REMARK    1  A    between atoms: C_2  and  C_5
REMARK    2  A    between atoms: C_5  and  C_6
REMARK    3  A    between atoms: N_8  and  C_9
REMARK    4  A    between atoms: C_9  and  C_10
REMARK    5  A    between atoms: C_13  and  N_14
REMARK    6  A    between atoms: N_14  and  C_15
REMARK    7  A    between atoms: C_15  and  C_16
REMARK    8  A    between atoms: C_19  and  C_22
REMARK                            x       y       z     vdW  Elec       q    Type
REMARK                         _______ _______ _______ _____ _____    ______ ____
ROOT
ATOM     10  C   UNL     1      -2.419   1.202  24.073  0.00  0.00    +0.169 C 
ATOM     11  O   UNL     1      -2.242   0.504  24.476  0.00  0.00    -0.350 OA
ATOM     12  C   UNL     1      -1.450   0.323  24.335  0.00  0.00    +0.162 C 
ATOM     13  C   UNL     1      -1.137   0.909  23.846  0.00  0.00    +0.135 C 
ATOM     25  C   UNL     1      -1.735   1.452  23.684  0.00  0.00    +0.199 C 
ATOM     26  O   UNL     1      -1.663   2.127  23.216  0.00  0.00    -0.219 OA
ENDROOT
BRANCH  10   9
ATOM      9  C   UNL     1      -3.150   1.584  24.062  0.00  0.00    +0.147 C 
BRANCH   9   8
ATOM      6  C   UNL     1      -4.384   1.912  24.703  0.00  0.00    +0.241 C 
ATOM      7  O   UNL     1      -4.581   2.406  24.072  0.00  0.00    -0.273 OA
ATOM      8  N   UNL     1      -3.668   1.501  24.698  0.00  0.00    -0.203 NA
BRANCH   6   5
ATOM      5  C   UNL     1      -4.903   1.829  25.340  0.00  0.00    +0.087 C 
BRANCH   5   2
ATOM      1  C   UNL     1      -6.128   2.914  25.552  0.00  0.00    +0.000 C 
ATOM      2  C   UNL     1      -5.515   2.371  25.446  0.00  0.00    +0.009 C 
ATOM      3  C   UNL     1      -4.998   2.879  25.841  0.00  0.00    +0.000 C 
ATOM      4  C   UNL     1      -6.033   1.864  25.051  0.00  0.00    +0.000 C 
ENDBRANCH   5   2
ENDBRANCH   6   5
ENDBRANCH   9   8
ENDBRANCH  10   9
BRANCH  13  14
ATOM     14  N   UNL     1      -0.361   0.944  23.568  0.00  0.00    -0.209 NA
BRANCH  14  15
ATOM     15  C   UNL     1       0.128   0.281  23.622  0.00  0.00    +0.115 C 
BRANCH  15  16
ATOM     16  C   UNL     1       0.897   0.310  23.326  0.00  0.00    -0.005 A 
ATOM     17  C   UNL     1       1.136  -0.223  22.744  0.00  0.00    -0.003 A 
ATOM     18  C   UNL     1       1.905  -0.193  22.448  0.00  0.00    +0.006 A 
ATOM     19  C   UNL     1       2.437   0.370  22.735  0.00  0.00    +0.080 A 
ATOM     20  C   UNL     1       2.197   0.903  23.317  0.00  0.00    +0.006 A 
ATOM     21  C   UNL     1       1.428   0.873  23.613  0.00  0.00    -0.003 A 
BRANCH  19  22
ATOM     22  C   UNL     1       3.206   0.400  22.440  0.00  0.00    +0.388 C 
ATOM     23  O   UNL     1       3.847   0.406  22.959  0.00  0.00    -0.241 OA
ATOM     24  O   UNL     1       3.335   0.424  21.626  0.00  0.00    -0.241 OA
ENDBRANCH  19  22
ENDBRANCH  15  16
ENDBRANCH  14  15
ENDBRANCH  13  14
TORSDOF 8
ENDMDL
