MODEL 1
REMARK VINA RESULT:     -13.7      0.000      0.000
REMARK  Name = 
REMARK  7 active torsions:
REMARK  status: ('A' for Active; 'I' for Inactive)
REMARK    1  A    between atoms: C_2  and  C_5
REMARK    2  A    between atoms: C_8  and  C_11
REMARK    3  A    between atoms: C_13  and  C_14
REMARK    4  A    between atoms: C_14  and  C_15
REMARK    5  A    between atoms: C_20  and  C_21
REMARK    6  A    between atoms: C_21  and  C_22
REMARK    7  A    between atoms: C_27  and  C_30
REMARK                            x       y       z     vdW  Elec       q    Type
REMARK                         _______ _______ _______ _____ _____    ______ ____
ROOT
ATOM     15  C   UNL     1      -4.656   3.048  24.987  0.00  0.00    +0.024 C 
ATOM     16  C   UNL     1      -5.381   3.181  25.357  0.00  0.00    +0.089 C 
ATOM     17  N   UNL     1      -5.440   3.735  25.965  0.00  0.00    -0.218 NA
ATOM     18  C   UNL     1      -4.772   4.157  26.203  0.00  0.00    +0.089 C 
ATOM     19  C   UNL     1      -4.046   4.025  25.833  0.00  0.00    +0.019 C 
ATOM     20  C   UNL     1      -3.988   3.471  25.225  0.00  0.00    +0.012 C 
ENDROOT
BRANCH  15  14
ATOM     14  C   UNL     1      -4.597   2.493  24.378  0.00  0.00    +0.051 C 
BRANCH  14  13
ATOM     11  C   UNL     1      -4.612   0.376  24.647  0.00  0.00    +0.177 A 
ATOM     12  C   UNL     1      -4.227   1.072  24.427  0.00  0.00    +0.058 A 
ATOM     13  C   UNL     1      -4.753   1.698  24.531  0.00  0.00    +0.101 A 
ATOM     33  N   UNL     1      -5.464   1.389  24.815  0.00  0.00    -0.081 NA
ATOM     34  O   UNL     1      -5.376   0.573  24.886  0.00  0.00    -0.354 OA
BRANCH  11   8
ATOM      5  C   UNL     1      -3.644  -1.901  24.596  0.00  0.00    -0.023 A 
ATOM      6  C   UNL     1      -4.024  -1.600  23.929  0.00  0.00    -0.004 A 
ATOM      7  C   UNL     1      -4.347  -0.841  23.946  0.00  0.00    +0.003 A 
ATOM      8  C   UNL     1      -4.289  -0.383  24.630  0.00  0.00    +0.037 A 
ATOM      9  C   UNL     1      -3.909  -0.685  25.297  0.00  0.00    +0.003 A 
ATOM     10  C   UNL     1      -3.586  -1.444  25.280  0.00  0.00    -0.004 A 
BRANCH   5   2
ATOM      1  C   UNL     1      -2.998  -3.419  24.563  0.00  0.00    +0.004 C 
ATOM      2  C   UNL     1      -3.321  -2.660  24.580  0.00  0.00    +0.019 C 
ATOM      3  C   UNL     1      -2.635  -2.376  24.940  0.00  0.00    +0.004 C 
ATOM      4  C   UNL     1      -4.007  -2.944  24.219  0.00  0.00    +0.004 C 
ENDBRANCH   5   2
ENDBRANCH  11   8
ENDBRANCH  14  13
ENDBRANCH  15  14
BRANCH  20  21
ATOM     21  C   UNL     1      -3.262   3.338  24.855  0.00  0.00    +0.085 C 
BRANCH  21  22
ATOM     22  C   UNL     1      -2.616   3.819  25.032  0.00  0.00    +0.226 C 
ATOM     23  O   UNL     1      -2.709   4.639  25.069  0.00  0.00    -0.275 OA
ATOM     24  N   UNL     1      -1.876   3.482  25.171  0.00  0.00    -0.280 N 
ATOM     25  C   UNL     1      -1.230   3.963  25.347  0.00  0.00    +0.094 C 
ATOM     26  C   UNL     1      -0.490   3.624  25.487  0.00  0.00    +0.031 C 
ATOM     27  C   UNL     1      -0.397   2.806  25.449  0.00  0.00    +0.083 C 
ATOM     28  C   UNL     1      -1.045   2.325  25.272  0.00  0.00    +0.031 C 
ATOM     29  C   UNL     1      -1.784   2.662  25.133  0.00  0.00    +0.094 C 
BRANCH  27  30
ATOM     30  C   UNL     1       0.342   2.467  25.588  0.00  0.00    +0.260 C 
ATOM     31  N   UNL     1       0.732   2.066  24.982  0.00  0.00    -0.088 NA
ATOM     32  O   UNL     1       0.691   2.531  26.332  0.00  0.00    -0.272 OA
ENDBRANCH  27  30
ENDBRANCH  21  22
ENDBRANCH  20  21
TORSDOF 7
ENDMDL
MODEL 2
REMARK VINA RESULT:     -12.9      1.374      3.606
REMARK  Name = 
REMARK  7 active torsions:
REMARK  status: ('A' for Active; 'I' for Inactive)
REMARK    1  A    between atoms: C_2  and  C_5
REMARK    2  A    between atoms: C_8  and  C_11
REMARK    3  A    between atoms: C_13  and  C_14
REMARK    4  A    between atoms: C_14  and  C_15
REMARK    5  A    between atoms: C_20  and  C_21
REMARK    6  A    between atoms: C_21  and  C_22
REMARK    7  A    between atoms: C_27  and  C_30
REMARK                            x       y       z     vdW  Elec       q    Type
REMARK                         _______ _______ _______ _____ _____    ______ ____
ROOT
ATOM     15  C   UNL     1      -0.534   2.174  24.997  0.00  0.00    +0.024 C 
ATOM     16  C   UNL     1       0.200   1.977  25.316  0.00  0.00    +0.089 C 
ATOM     17  N   UNL     1       0.463   2.344  26.006  0.00  0.00    -0.218 NA
ATOM     18  C   UNL     1      -0.010   2.909  26.378  0.00  0.00    +0.089 C 
ATOM     19  C   UNL     1      -0.746   3.106  26.059  0.00  0.00    +0.019 C 
ATOM     20  C   UNL     1      -1.008   2.739  25.369  0.00  0.00    +0.012 C 
ENDROOT
BRANCH  15  14
ATOM     14  C   UNL     1      -0.797   1.807  24.306  0.00  0.00    +0.051 C 
BRANCH  14  13
ATOM     11  C   UNL     1      -1.369  -0.250  24.309  0.00  0.00    +0.177 A 
ATOM     12  C   UNL     1      -1.557   0.551  24.384  0.00  0.00    +0.058 A 
ATOM     13  C   UNL     1      -0.864   0.985  24.277  0.00  0.00    +0.101 A 
ATOM     33  N   UNL     1      -0.249   0.454  24.135  0.00  0.00    -0.081 NA
ATOM     34  O   UNL     1      -0.561  -0.309  24.155  0.00  0.00    -0.354 OA
BRANCH  11   8
ATOM      5  C   UNL     1      -2.955  -2.139  24.510  0.00  0.00    -0.023 A 
ATOM      6  C   UNL     1      -3.237  -1.364  24.497  0.00  0.00    -0.004 A 
ATOM      7  C   UNL     1      -2.709  -0.734  24.431  0.00  0.00    +0.003 A 
ATOM      8  C   UNL     1      -1.898  -0.880  24.376  0.00  0.00    +0.037 A 
ATOM      9  C   UNL     1      -1.617  -1.655  24.388  0.00  0.00    +0.003 A 
ATOM     10  C   UNL     1      -2.145  -2.285  24.455  0.00  0.00    -0.004 A 
BRANCH   5   2
ATOM      1  C   UNL     1      -4.012  -3.399  24.644  0.00  0.00    +0.004 C 
ATOM      2  C   UNL     1      -3.484  -2.769  24.577  0.00  0.00    +0.019 C 
ATOM      3  C   UNL     1      -3.806  -2.576  23.842  0.00  0.00    +0.004 C 
ATOM      4  C   UNL     1      -3.161  -2.962  25.311  0.00  0.00    +0.004 C 
ENDBRANCH   5   2
ENDBRANCH  11   8
ENDBRANCH  14  13
ENDBRANCH  15  14
BRANCH  20  21
ATOM     21  C   UNL     1      -1.743   2.936  25.050  0.00  0.00    +0.085 C 
BRANCH  21  22
ATOM     22  C   UNL     1      -2.179   3.557  25.374  0.00  0.00    +0.226 C 
ATOM     23  O   UNL     1      -1.793   4.228  25.659  0.00  0.00    -0.275 OA
ATOM     24  N   UNL     1      -3.002   3.507  25.412  0.00  0.00    -0.280 N 
ATOM     25  C   UNL     1      -3.438   4.128  25.736  0.00  0.00    +0.094 C 
ATOM     26  C   UNL     1      -4.261   4.077  25.774  0.00  0.00    +0.031 C 
ATOM     27  C   UNL     1      -4.646   3.406  25.489  0.00  0.00    +0.083 C 
ATOM     28  C   UNL     1      -4.209   2.785  25.166  0.00  0.00    +0.031 C 
ATOM     29  C   UNL     1      -3.388   2.835  25.127  0.00  0.00    +0.094 C 
BRANCH  27  30
ATOM     30  C   UNL     1      -5.469   3.355  25.528  0.00  0.00    +0.260 C 
ATOM     31  N   UNL     1      -5.846   2.640  25.366  0.00  0.00    -0.088 NA
ATOM     32  O   UNL     1      -5.915   4.020  25.728  0.00  0.00    -0.272 OA
ENDBRANCH  27  30
ENDBRANCH  21  22
ENDBRANCH  20  21
TORSDOF 7
ENDMDL
MODEL 3
REMARK VINA RESULT:     -12.1      1.951      5.581
REMARK  Name = 
REMARK  7 active torsions:
REMARK  status: ('A' for Active; 'I' for Inactive)
REMARK    1  A    between atoms: C_2  and  C_5
REMARK    2  A    between atoms: C_8  and  C_11
REMARK    3  A    between atoms: C_13  and  C_14
REMARK    4  A    between atoms: C_14  and  C_15
REMARK    5  A    between atoms: C_20  and  C_21
REMARK    6  A    between atoms: C_21  and  C_22
REMARK    7  A    between atoms: C_27  and  C_30
REMARK                            x       y       z     vdW  Elec       q    Type
REMARK                         _______ _______ _______ _____ _____    ______ ____
ROOT
ATOM     15  C   UNL     1      -0.049   1.174  24.670  0.00  0.00    +0.024 C 
ATOM     16  C   UNL     1       0.473   1.666  24.263  0.00  0.00    +0.089 C 
ATOM     17  N   UNL     1       0.828   1.405  23.566  0.00  0.00    -0.218 NA
ATOM     18  C   UNL     1       0.660   0.651  23.275  0.00  0.00    +0.089 C 
ATOM     19  C   UNL     1       0.137   0.159  23.682  0.00  0.00    +0.019 C 
ATOM     20  C   UNL     1      -0.217   0.420  24.379  0.00  0.00    +0.012 C 
ENDROOT
BRANCH  15  14
ATOM     14  C   UNL     1      -0.404   1.435  25.368  0.00  0.00    +0.051 C 
BRANCH  14  13
ATOM     11  C   UNL     1      -2.000   2.853  25.359  0.00  0.00    +0.177 A 
ATOM     12  C   UNL     1      -1.728   2.074  25.388  0.00  0.00    +0.058 A 
ATOM     13  C   UNL     1      -0.904   2.091  25.354  0.00  0.00    +0.101 A 
ATOM     33  N   UNL     1      -0.667   2.880  25.305  0.00  0.00    -0.081 NA
ATOM     34  O   UNL     1      -1.344   3.350  25.308  0.00  0.00    -0.354 OA
BRANCH  11   8
ATOM      5  C   UNL     1      -4.369   3.568  25.416  0.00  0.00    -0.023 A 
ATOM      6  C   UNL     1      -4.103   3.071  24.813  0.00  0.00    -0.004 A 
ATOM      7  C   UNL     1      -3.313   2.832  24.794  0.00  0.00    +0.003 A 
ATOM      8  C   UNL     1      -2.790   3.091  25.378  0.00  0.00    +0.037 A 
ATOM      9  C   UNL     1      -3.056   3.589  25.979  0.00  0.00    +0.003 A 
ATOM     10  C   UNL     1      -3.846   3.827  25.998  0.00  0.00    -0.004 A 
BRANCH   5   2
ATOM      1  C   UNL     1      -5.948   4.045  25.454  0.00  0.00    +0.004 C 
ATOM      2  C   UNL     1      -5.158   3.807  25.435  0.00  0.00    +0.019 C 
ATOM      3  C   UNL     1      -4.956   4.507  25.047  0.00  0.00    +0.004 C 
ATOM      4  C   UNL     1      -5.360   3.107  25.822  0.00  0.00    +0.004 C 
ENDBRANCH   5   2
ENDBRANCH  11   8
ENDBRANCH  14  13
ENDBRANCH  15  14
BRANCH  20  21
ATOM     21  C   UNL     1      -0.740  -0.072  24.787  0.00  0.00    +0.085 C 
BRANCH  21  22
ATOM     22  C   UNL     1      -0.724  -0.886  24.658  0.00  0.00    +0.226 C 
ATOM     23  O   UNL     1      -0.003  -1.273  24.548  0.00  0.00    -0.275 OA
ATOM     24  N   UNL     1      -1.428  -1.316  24.640  0.00  0.00    -0.280 N 
ATOM     25  C   UNL     1      -1.412  -2.130  24.511  0.00  0.00    +0.094 C 
ATOM     26  C   UNL     1      -2.117  -2.559  24.493  0.00  0.00    +0.031 C 
ATOM     27  C   UNL     1      -2.837  -2.173  24.602  0.00  0.00    +0.083 C 
ATOM     28  C   UNL     1      -2.853  -1.357  24.731  0.00  0.00    +0.031 C 
ATOM     29  C   UNL     1      -2.149  -0.929  24.749  0.00  0.00    +0.094 C 
BRANCH  27  30
ATOM     30  C   UNL     1      -3.542  -2.601  24.584  0.00  0.00    +0.260 C 
ATOM     31  N   UNL     1      -4.104  -2.445  24.001  0.00  0.00    -0.088 NA
ATOM     32  O   UNL     1      -3.685  -3.186  25.148  0.00  0.00    -0.272 OA
ENDBRANCH  27  30
ENDBRANCH  21  22
ENDBRANCH  20  21
TORSDOF 7
ENDMDL
