MODEL 1
REMARK VINA RESULT:     -10.5      0.000      0.000
REMARK  Name = 
REMARK  7 active torsions:
REMARK  status: ('A' for Active; 'I' for Inactive)
REMARK    1  A    between atoms: C_4  and  C_29
REMARK    2  A    between atoms: C_6  and  C_7
REMARK    3  A    between atoms: C_14  and  C_15
REMARK    4  A    between atoms: C_15  and  O_16
REMARK    5  A    between atoms: O_16  and  C_17
REMARK    6  A    between atoms: N_19  and  C_20
REMARK    7  A    between atoms: C_23  and  C_26
REMARK                            x       y       z     vdW  Elec       q    Type
REMARK                         _______ _______ _______ _____ _____    ______ ____
ROOT
ATOM      7  C   UNL     1      -1.829   0.481  24.234  0.00  0.00    +0.056 C 
ATOM      8  C   UNL     1      -1.375   0.032  24.679  0.00  0.00    +0.078 C 
ATOM      9  N   UNL     1      -1.140   0.443  24.003  0.00  0.00    -0.270 NA
ATOM     10  C   UNL     1      -1.984   0.948  23.640  0.00  0.00    +0.072 C 
ATOM     11  C   UNL     1      -2.264   1.343  23.201  0.00  0.00    +0.018 C 
ATOM     12  C   UNL     1      -1.590   0.881  23.572  0.00  0.00    +0.010 C 
ATOM     13  C   UNL     1      -0.813   0.941  23.168  0.00  0.00    +0.020 C 
ATOM     14  C   UNL     1      -0.336   0.510  23.578  0.00  0.00    +0.102 C 
ENDROOT
BRANCH   7   6
ATOM      1  C   UNL     1      -2.984  -0.869  24.486  0.00  0.00    +0.153 C 
ATOM      2  N   UNL     1      -3.151  -0.065  24.572  0.00  0.00    -0.253 N 
ATOM      3  N   UNL     1      -3.877   0.258  24.789  0.00  0.00    -0.170 NA
ATOM      4  C   UNL     1      -3.796   1.079  24.807  0.00  0.00    +0.102 A 
ATOM      5  C   UNL     1      -3.018   1.262  24.602  0.00  0.00    +0.035 A 
ATOM      6  C   UNL     1      -2.620   0.555  24.457  0.00  0.00    +0.058 A 
BRANCH   4  29
ATOM     29  C   UNL     1      -4.388   1.621  24.998  0.00  0.00    +0.019 A 
ATOM     30  C   UNL     1      -4.195   2.412  25.131  0.00  0.00    +0.002 A 
ATOM     31  C   UNL     1      -4.787   2.955  25.322  0.00  0.00    +0.000 A 
ATOM     32  C   UNL     1      -5.572   2.705  25.379  0.00  0.00    +0.000 A 
ATOM     33  C   UNL     1      -6.164   3.248  25.569  0.00  0.00    +0.000 A 
ATOM     34  C   UNL     1      -5.971   4.039  25.703  0.00  0.00    +0.000 A 
ATOM     35  C   UNL     1      -5.187   4.287  25.646  0.00  0.00    +0.000 A 
ATOM     36  C   UNL     1      -4.595   3.745  25.456  0.00  0.00    +0.000 A 
ATOM     37  C   UNL     1      -5.765   1.914  25.245  0.00  0.00    +0.000 A 
ATOM     38  C   UNL     1      -5.172   1.371  25.054  0.00  0.00    +0.002 A 
ENDBRANCH   4  29
ENDBRANCH   7   6
BRANCH  14  15
ATOM     15  C   UNL     1       0.447   0.254  23.614  0.00  0.00    +0.226 C 
BRANCH  15  16
ATOM     16  O   UNL     1       0.986   0.490  23.035  0.00  0.00    -0.432 OA
BRANCH  16  17
ATOM     17  C   UNL     1       1.794   0.504  23.204  0.00  0.00    +0.425 C 
ATOM     18  O   UNL     1       2.070   0.911  23.865  0.00  0.00    -0.224 OA
ATOM     19  N   UNL     1       2.325   0.109  22.710  0.00  0.00    -0.142 NA
BRANCH  19  20
ATOM     20  C   UNL     1       3.132   0.123  22.879  0.00  0.00    +0.077 A 
ATOM     21  C   UNL     1       3.588   0.775  22.662  0.00  0.00    +0.017 A 
ATOM     22  C   UNL     1       4.395   0.788  22.831  0.00  0.00    +0.004 A 
ATOM     23  C   UNL     1       4.747   0.149  23.217  0.00  0.00    +0.035 A 
ATOM     24  C   UNL     1       4.291  -0.503  23.433  0.00  0.00    +0.004 A 
ATOM     25  C   UNL     1       3.483  -0.517  23.265  0.00  0.00    +0.017 A 
BRANCH  23  26
ATOM     26  C   UNL     1       5.554   0.162  23.385  0.00  0.00    +0.173 C 
ATOM     27  C   UNL     1       5.824   0.506  24.085  0.00  0.00    +0.077 C 
ATOM     28  O   UNL     1       6.092  -0.167  22.854  0.00  0.00    -0.291 OA
ENDBRANCH  23  26
ENDBRANCH  19  20
ENDBRANCH  16  17
ENDBRANCH  15  16
ENDBRANCH  14  15
TORSDOF 7
ENDMDL
MODEL 2
REMARK VINA RESULT:      -9.4      1.849      8.035
REMARK  Name = 
REMARK  7 active torsions:
REMARK  status: ('A' for Active; 'I' for Inactive)
REMARK    1  A    between atoms: C_4  and  C_29
REMARK    2  A    between atoms: C_6  and  C_7
REMARK    3  A    between atoms: C_14  and  C_15
REMARK    4  A    between atoms: C_15  and  O_16
REMARK    5  A    between atoms: O_16  and  C_17
REMARK    6  A    between atoms: N_19  and  C_20
REMARK    7  A    between atoms: C_23  and  C_26
REMARK                            x       y       z     vdW  Elec       q    Type
REMARK                         _______ _______ _______ _____ _____    ______ ____
ROOT
ATOM      7  C   UNL     1       0.441   0.114  23.396  0.00  0.00    +0.056 C 
ATOM      8  C   UNL     1      -0.012  -0.518  23.385  0.00  0.00    +0.078 C 
ATOM      9  N   UNL     1      -0.202   0.211  23.722  0.00  0.00    -0.270 NA
ATOM     10  C   UNL     1       0.619   0.845  23.567  0.00  0.00    +0.072 C 
ATOM     11  C   UNL     1       0.907   1.427  23.637  0.00  0.00    +0.018 C 
ATOM     12  C   UNL     1       0.248   0.826  23.729  0.00  0.00    +0.010 C 
ATOM     13  C   UNL     1      -0.471   1.103  24.151  0.00  0.00    +0.020 C 
ATOM     14  C   UNL     1      -0.945   0.506  24.161  0.00  0.00    +0.102 C 
ENDROOT
BRANCH   7   6
ATOM      1  C   UNL     1       0.753  -0.338  21.689  0.00  0.00    +0.153 C 
ATOM      2  N   UNL     1       1.326  -0.155  22.254  0.00  0.00    -0.253 N 
ATOM      3  N   UNL     1       2.141  -0.148  22.133  0.00  0.00    -0.170 NA
ATOM      4  C   UNL     1       2.502   0.065  22.844  0.00  0.00    +0.102 A 
ATOM      5  C   UNL     1       1.909   0.189  23.403  0.00  0.00    +0.035 A 
ATOM      6  C   UNL     1       1.183   0.053  23.038  0.00  0.00    +0.058 A 
BRANCH   4  29
ATOM     29  C   UNL     1       3.314   0.140  22.972  0.00  0.00    +0.019 A 
ATOM     30  C   UNL     1       3.717  -0.432  23.408  0.00  0.00    +0.002 A 
ATOM     31  C   UNL     1       4.530  -0.357  23.537  0.00  0.00    +0.000 A 
ATOM     32  C   UNL     1       4.937   0.291  23.228  0.00  0.00    +0.000 A 
ATOM     33  C   UNL     1       5.748   0.367  23.356  0.00  0.00    +0.000 A 
ATOM     34  C   UNL     1       6.153  -0.206  23.793  0.00  0.00    +0.000 A 
ATOM     35  C   UNL     1       5.744  -0.853  24.101  0.00  0.00    +0.000 A 
ATOM     36  C   UNL     1       4.933  -0.929  23.972  0.00  0.00    +0.000 A 
ATOM     37  C   UNL     1       4.534   0.864  22.792  0.00  0.00    +0.000 A 
ATOM     38  C   UNL     1       3.721   0.788  22.663  0.00  0.00    +0.002 A 
ENDBRANCH   4  29
ENDBRANCH   7   6
BRANCH  14  15
ATOM     15  C   UNL     1      -1.691   0.268  24.418  0.00  0.00    +0.226 C 
BRANCH  15  16
ATOM     16  O   UNL     1      -2.367   0.532  24.024  0.00  0.00    -0.432 OA
BRANCH  16  17
ATOM     17  C   UNL     1      -3.004   0.833  24.455  0.00  0.00    +0.425 C 
ATOM     18  O   UNL     1      -3.195   0.509  25.188  0.00  0.00    -0.224 OA
ATOM     19  N   UNL     1      -3.448   1.458  24.151  0.00  0.00    -0.142 NA
BRANCH  19  20
ATOM     20  C   UNL     1      -4.085   1.759  24.581  0.00  0.00    +0.077 A 
ATOM     21  C   UNL     1      -4.802   1.351  24.597  0.00  0.00    +0.017 A 
ATOM     22  C   UNL     1      -5.438   1.652  25.027  0.00  0.00    +0.004 A 
ATOM     23  C   UNL     1      -5.357   2.361  25.441  0.00  0.00    +0.035 A 
ATOM     24  C   UNL     1      -4.640   2.769  25.425  0.00  0.00    +0.004 A 
ATOM     25  C   UNL     1      -4.004   2.468  24.995  0.00  0.00    +0.017 A 
BRANCH  23  26
ATOM     26  C   UNL     1      -5.993   2.662  25.871  0.00  0.00    +0.173 C 
ATOM     27  C   UNL     1      -6.479   2.152  26.302  0.00  0.00    +0.077 C 
ATOM     28  O   UNL     1      -6.145   3.473  25.871  0.00  0.00    -0.291 OA
ENDBRANCH  23  26
ENDBRANCH  19  20
ENDBRANCH  16  17
ENDBRANCH  15  16
ENDBRANCH  14  15
TORSDOF 7
ENDMDL
