MODEL 1
REMARK VINA RESULT:     -16.2      0.000      0.000
REMARK  Name = 
REMARK  3 active torsions:
REMARK  status: ('A' for Active; 'I' for Inactive)
REMARK    1  A    between atoms: O_2  and  C_3
REMARK    2  A    between atoms: C_6  and  C_9
REMARK    3  A    between atoms: N_21  and  C_22
REMARK                            x       y       z     vdW  Elec       q    Type
REMARK                         _______ _______ _______ _____ _____    ______ ____
ROOT
ATOM      9  C   UNL     1      -4.333   0.772  24.871  0.00  0.00    +0.056 A 
ATOM     10  C   UNL     1      -5.132   0.963  24.945  0.00  0.00    +0.006 A 
ATOM     11  C   UNL     1      -5.359   1.745  25.078  0.00  0.00    +0.013 A 
ATOM     12  C   UNL     1      -4.787   2.336  25.137  0.00  0.00    +0.041 A 
ATOM     13  C   UNL     1      -4.708   3.242  25.272  0.00  0.00    +0.058 C 
ATOM     14  C   UNL     1      -5.094   3.817  25.382  0.00  0.00    +0.011 C 
ATOM     15  C   UNL     1      -4.306   3.626  25.309  0.00  0.00    +0.043 C 
ATOM     16  C   UNL     1      -3.320   3.595  25.250  0.00  0.00    +0.097 C 
ATOM     17  N   UNL     1      -3.213   2.777  25.118  0.00  0.00    -0.262 N 
ATOM     18  C   UNL     1      -3.755   3.228  25.218  0.00  0.00    +0.101 C 
ATOM     19  C   UNL     1      -2.819   2.064  24.987  0.00  0.00    +0.327 C 
ATOM     20  O   UNL     1      -3.250   1.364  24.903  0.00  0.00    -0.250 OA
ATOM     21  N   UNL     1      -1.996   2.050  24.939  0.00  0.00    -0.162 NA
ATOM     29  C   UNL     1      -4.379   2.679  25.168  0.00  0.00    +0.110 C 
ATOM     30  N   UNL     1      -3.988   2.145  25.064  0.00  0.00    -0.299 N 
ATOM     31  C   UNL     1      -3.761   1.364  24.931  0.00  0.00    +0.261 A 
ATOM     32  O   UNL     1      -3.062   0.938  24.827  0.00  0.00    -0.267 OA
ENDROOT
BRANCH  21  22
ATOM     22  C   UNL     1      -1.603   1.337  24.807  0.00  0.00    +0.075 A 
ATOM     23  C   UNL     1      -1.371   0.869  25.447  0.00  0.00    +0.018 A 
ATOM     24  C   UNL     1      -0.978   0.156  25.315  0.00  0.00    +0.013 A 
ATOM     25  C   UNL     1      -0.815  -0.090  24.543  0.00  0.00    +0.058 A 
ATOM     26 CL   UNL     1      -0.422  -0.802  24.412  0.00  0.00    -0.082 Cl
ATOM     27  C   UNL     1      -1.047   0.378  23.905  0.00  0.00    +0.013 A 
ATOM     28  C   UNL     1      -1.440   1.091  24.036  0.00  0.00    +0.018 A 
ENDBRANCH  21  22
BRANCH   9   6
ATOM      3  C   UNL     1      -3.653  -1.573  24.471  0.00  0.00    +0.139 A 
ATOM      4  C   UNL     1      -3.713  -1.288  25.243  0.00  0.00    +0.037 A 
ATOM      5  C   UNL     1      -3.940  -0.505  25.376  0.00  0.00    +0.003 A 
ATOM      6  C   UNL     1      -4.106  -0.009  24.739  0.00  0.00    +0.005 A 
ATOM      7  C   UNL     1      -4.046  -0.295  23.967  0.00  0.00    +0.003 A 
ATOM      8  C   UNL     1      -3.820  -1.077  23.833  0.00  0.00    +0.037 A 
BRANCH   3   2
ATOM      1  C   UNL     1      -3.352  -2.876  24.972  0.00  0.00    +0.252 C 
ATOM      2  O   UNL     1      -3.426  -2.356  24.337  0.00  0.00    -0.471 OA
ENDBRANCH   3   2
ENDBRANCH   9   6
TORSDOF 3
ENDMDL
MODEL 2
REMARK VINA RESULT:     -16.1      1.567      3.801
REMARK  Name = 
REMARK  3 active torsions:
REMARK  status: ('A' for Active; 'I' for Inactive)
REMARK    1  A    between atoms: O_2  and  C_3
REMARK    2  A    between atoms: C_6  and  C_9
REMARK    3  A    between atoms: N_21  and  C_22
REMARK                            x       y       z     vdW  Elec       q    Type
REMARK                         _______ _______ _______ _____ _____    ______ ____
ROOT
ATOM      9  C   UNL     1      -3.582   0.144  24.260  0.00  0.00    +0.056 A 
ATOM     10  C   UNL     1      -4.293  -0.245  24.106  0.00  0.00    +0.006 A 
ATOM     11  C   UNL     1      -4.330  -1.068  24.142  0.00  0.00    +0.013 A 
ATOM     12  C   UNL     1      -3.656  -1.503  24.333  0.00  0.00    +0.041 A 
ATOM     13  C   UNL     1      -3.375  -2.370  24.451  0.00  0.00    +0.058 C 
ATOM     14  C   UNL     1      -3.608  -3.032  24.430  0.00  0.00    +0.011 C 
ATOM     15  C   UNL     1      -2.908  -2.645  24.582  0.00  0.00    +0.043 C 
ATOM     16  C   UNL     1      -1.984  -2.366  24.795  0.00  0.00    +0.097 C 
ATOM     17  N   UNL     1      -2.069  -1.537  24.727  0.00  0.00    -0.262 N 
ATOM     18  C   UNL     1      -2.478  -2.116  24.658  0.00  0.00    +0.101 C 
ATOM     19  C   UNL     1      -1.860  -0.739  24.735  0.00  0.00    +0.327 C 
ATOM     20  O   UNL     1      -2.425  -0.162  24.563  0.00  0.00    -0.250 OA
ATOM     21  N   UNL     1      -1.086  -0.517  24.914  0.00  0.00    -0.162 NA
ATOM     29  C   UNL     1      -3.192  -1.736  24.461  0.00  0.00    +0.110 C 
ATOM     30  N   UNL     1      -2.944  -1.114  24.487  0.00  0.00    -0.299 N 
ATOM     31  C   UNL     1      -2.908  -0.291  24.451  0.00  0.00    +0.261 A 
ATOM     32  O   UNL     1      -2.345   0.303  24.557  0.00  0.00    -0.267 OA
ENDROOT
BRANCH  21  22
ATOM     22  C   UNL     1      -0.877   0.281  24.921  0.00  0.00    +0.075 A 
ATOM     23  C   UNL     1      -0.949   0.720  25.617  0.00  0.00    +0.018 A 
ATOM     24  C   UNL     1      -0.740   1.518  25.623  0.00  0.00    +0.013 A 
ATOM     25  C   UNL     1      -0.458   1.877  24.935  0.00  0.00    +0.058 A 
ATOM     26 CL   UNL     1      -0.249   2.675  24.943  0.00  0.00    -0.082 Cl
ATOM     27  C   UNL     1      -0.386   1.438  24.241  0.00  0.00    +0.013 A 
ATOM     28  C   UNL     1      -0.595   0.640  24.233  0.00  0.00    +0.018 A 
ENDBRANCH  21  22
BRANCH   9   6
ATOM      3  C   UNL     1      -3.475   2.613  24.151  0.00  0.00    +0.139 A 
ATOM      4  C   UNL     1      -3.305   2.164  23.480  0.00  0.00    +0.037 A 
ATOM      5  C   UNL     1      -3.341   1.340  23.517  0.00  0.00    +0.003 A 
ATOM      6  C   UNL     1      -3.546   0.967  24.223  0.00  0.00    +0.005 A 
ATOM      7  C   UNL     1      -3.716   1.417  24.893  0.00  0.00    +0.003 A 
ATOM      8  C   UNL     1      -3.680   2.240  24.857  0.00  0.00    +0.037 A 
BRANCH   3   2
ATOM      1  C   UNL     1      -3.650   3.888  24.772  0.00  0.00    +0.252 C 
ATOM      2  O   UNL     1      -3.439   3.438  24.115  0.00  0.00    -0.471 OA
ENDBRANCH   3   2
ENDBRANCH   9   6
TORSDOF 3
ENDMDL
MODEL 3
REMARK VINA RESULT:     -15.8      0.983      2.558
REMARK  Name = 
REMARK  3 active torsions:
REMARK  status: ('A' for Active; 'I' for Inactive)
REMARK    1  A    between atoms: O_2  and  C_3
REMARK    2  A    between atoms: C_6  and  C_9
REMARK    3  A    between atoms: N_21  and  C_22
REMARK                            x       y       z     vdW  Elec       q    Type
REMARK                         _______ _______ _______ _____ _____    ______ ____
ROOT
ATOM      9  C   UNL     1      -2.780   2.009  24.827  0.00  0.00    +0.056 A 
ATOM     10  C   UNL     1      -2.706   2.831  24.845  0.00  0.00    +0.006 A 
ATOM     11  C   UNL     1      -3.369   3.302  24.984  0.00  0.00    +0.013 A 
ATOM     12  C   UNL     1      -4.105   2.952  25.106  0.00  0.00    +0.041 A 
ATOM     13  C   UNL     1      -4.981   3.172  25.276  0.00  0.00    +0.058 C 
ATOM     14  C   UNL     1      -5.400   3.727  25.373  0.00  0.00    +0.011 C 
ATOM     15  C   UNL     1      -5.470   2.915  25.356  0.00  0.00    +0.043 C 
ATOM     16  C   UNL     1      -5.753   1.969  25.372  0.00  0.00    +0.097 C 
ATOM     17  N   UNL     1      -5.018   1.600  25.223  0.00  0.00    -0.262 N 
ATOM     18  C   UNL     1      -5.271   2.262  25.295  0.00  0.00    +0.101 C 
ATOM     19  C   UNL     1      -4.473   0.993  25.100  0.00  0.00    +0.327 C 
ATOM     20  O   UNL     1      -3.679   1.174  24.961  0.00  0.00    -0.250 OA
ATOM     21  N   UNL     1      -4.720   0.207  25.116  0.00  0.00    -0.162 NA
ATOM     29  C   UNL     1      -4.557   2.675  25.179  0.00  0.00    +0.110 C 
ATOM     30  N   UNL     1      -4.179   2.130  25.089  0.00  0.00    -0.299 N 
ATOM     31  C   UNL     1      -3.517   1.659  24.949  0.00  0.00    +0.261 A 
ATOM     32  O   UNL     1      -3.338   0.856  24.886  0.00  0.00    -0.267 OA
ENDROOT
BRANCH  21  22
ATOM     22  C   UNL     1      -4.174  -0.400  24.993  0.00  0.00    +0.075 A 
ATOM     23  C   UNL     1      -3.765  -0.723  25.633  0.00  0.00    +0.018 A 
ATOM     24  C   UNL     1      -3.220  -1.329  25.509  0.00  0.00    +0.013 A 
ATOM     25  C   UNL     1      -3.084  -1.614  24.746  0.00  0.00    +0.058 A 
ATOM     26 CL   UNL     1      -2.538  -2.220  24.624  0.00  0.00    -0.082 Cl
ATOM     27  C   UNL     1      -3.493  -1.291  24.107  0.00  0.00    +0.013 A 
ATOM     28  C   UNL     1      -4.038  -0.684  24.230  0.00  0.00    +0.018 A 
ENDBRANCH  21  22
BRANCH   9   6
ATOM      3  C   UNL     1      -0.792   0.598  24.407  0.00  0.00    +0.139 A 
ATOM      4  C   UNL     1      -0.993   0.806  25.179  0.00  0.00    +0.037 A 
ATOM      5  C   UNL     1      -1.656   1.277  25.320  0.00  0.00    +0.003 A 
ATOM      6  C   UNL     1      -2.117   1.539  24.688  0.00  0.00    +0.005 A 
ATOM      7  C   UNL     1      -1.915   1.330  23.915  0.00  0.00    +0.003 A 
ATOM      8  C   UNL     1      -1.252   0.860  23.775  0.00  0.00    +0.037 A 
BRANCH   3   2
ATOM      1  C   UNL     1       0.156   0.034  23.498  0.00  0.00    +0.252 C 
ATOM      2  O   UNL     1      -0.128   0.127  24.266  0.00  0.00    -0.471 OA
ENDBRANCH   3   2
ENDBRANCH   9   6
TORSDOF 3
ENDMDL
MODEL 4
REMARK VINA RESULT:     -15.6      1.718      4.256
REMARK  Name = 
REMARK  3 active torsions:
REMARK  status: ('A' for Active; 'I' for Inactive)
REMARK    1  A    between atoms: O_2  and  C_3
REMARK    2  A    between atoms: C_6  and  C_9
REMARK    3  A    between atoms: N_21  and  C_22
REMARK                            x       y       z     vdW  Elec       q    Type
REMARK                         _______ _______ _______ _____ _____    ______ ____
ROOT
ATOM      9  C   UNL     1      -1.673  -0.544  24.825  0.00  0.00    +0.056 A 
ATOM     10  C   UNL     1      -1.326  -1.280  24.960  0.00  0.00    +0.006 A 
ATOM     11  C   UNL     1      -1.767  -1.970  24.857  0.00  0.00    +0.013 A 
ATOM     12  C   UNL     1      -2.555  -1.923  24.618  0.00  0.00    +0.041 A 
ATOM     13  C   UNL     1      -3.275  -2.461  24.425  0.00  0.00    +0.058 C 
ATOM     14  C   UNL     1      -3.466  -3.135  24.396  0.00  0.00    +0.011 C 
ATOM     15  C   UNL     1      -3.806  -2.407  24.263  0.00  0.00    +0.043 C 
ATOM     16  C   UNL     1      -4.386  -1.634  24.056  0.00  0.00    +0.097 C 
ATOM     17  N   UNL     1      -3.844  -1.012  24.192  0.00  0.00    -0.262 N 
ATOM     18  C   UNL     1      -3.848  -1.724  24.221  0.00  0.00    +0.101 C 
ATOM     19  C   UNL     1      -3.556  -0.241  24.247  0.00  0.00    +0.327 C 
ATOM     20  O   UNL     1      -2.774  -0.108  24.476  0.00  0.00    -0.250 OA
ATOM     21  N   UNL     1      -4.049   0.397  24.072  0.00  0.00    -0.162 NA
ATOM     29  C   UNL     1      -3.059  -1.837  24.463  0.00  0.00    +0.110 C 
ATOM     30  N   UNL     1      -2.902  -1.187  24.483  0.00  0.00    -0.299 N 
ATOM     31  C   UNL     1      -2.461  -0.498  24.586  0.00  0.00    +0.261 A 
ATOM     32  O   UNL     1      -2.573   0.317  24.518  0.00  0.00    -0.267 OA
ENDROOT
BRANCH  21  22
ATOM     22  C   UNL     1      -3.760   1.168  24.126  0.00  0.00    +0.075 A 
ATOM     23  C   UNL     1      -3.401   1.521  23.472  0.00  0.00    +0.018 A 
ATOM     24  C   UNL     1      -3.113   2.292  23.526  0.00  0.00    +0.013 A 
ATOM     25  C   UNL     1      -3.183   2.710  24.235  0.00  0.00    +0.058 A 
ATOM     26 CL   UNL     1      -2.895   3.481  24.288  0.00  0.00    -0.082 Cl
ATOM     27  C   UNL     1      -3.542   2.357  24.888  0.00  0.00    +0.013 A 
ATOM     28  C   UNL     1      -3.831   1.586  24.834  0.00  0.00    +0.018 A 
ENDBRANCH  21  22
BRANCH   9   6
ATOM      3  C   UNL     1      -0.349   1.523  25.138  0.00  0.00    +0.139 A 
ATOM      4  C   UNL     1      -0.360   1.148  24.403  0.00  0.00    +0.037 A 
ATOM      5  C   UNL     1      -0.802   0.458  24.299  0.00  0.00    +0.003 A 
ATOM      6  C   UNL     1      -1.232   0.145  24.929  0.00  0.00    +0.005 A 
ATOM      7  C   UNL     1      -1.221   0.520  25.663  0.00  0.00    +0.003 A 
ATOM      8  C   UNL     1      -0.779   1.209  25.768  0.00  0.00    +0.037 A 
BRANCH   3   2
ATOM      1  C   UNL     1       0.109   2.583  25.978  0.00  0.00    +0.252 C 
ATOM      2  O   UNL     1       0.093   2.213  25.242  0.00  0.00    -0.471 OA
ENDBRANCH   3   2
ENDBRANCH   9   6
TORSDOF 3
ENDMDL
MODEL 5
REMARK VINA RESULT:     -15.1      1.332      2.879
REMARK  Name = 
REMARK  3 active torsions:
REMARK  status: ('A' for Active; 'I' for Inactive)
REMARK    1  A    between atoms: O_2  and  C_3
REMARK    2  A    between atoms: C_6  and  C_9
REMARK    3  A    between atoms: N_21  and  C_22
REMARK                            x       y       z     vdW  Elec       q    Type
REMARK                         _______ _______ _______ _____ _____    ______ ____
ROOT
ATOM      9  C   UNL     1      -1.112   1.831  25.058  0.00  0.00    +0.056 A 
ATOM     10  C   UNL     1      -0.476   2.336  25.207  0.00  0.00    +0.006 A 
ATOM     11  C   UNL     1      -0.604   3.146  25.293  0.00  0.00    +0.013 A 
ATOM     12  C   UNL     1      -1.367   3.452  25.231  0.00  0.00    +0.041 A 
ATOM     13  C   UNL     1      -1.821   4.250  25.272  0.00  0.00    +0.058 C 
ATOM     14  C   UNL     1      -1.720   4.937  25.373  0.00  0.00    +0.011 C 
ATOM     15  C   UNL     1      -2.345   4.436  25.227  0.00  0.00    +0.043 C 
ATOM     16  C   UNL     1      -3.216   4.002  25.056  0.00  0.00    +0.097 C 
ATOM     17  N   UNL     1      -2.965   3.208  24.988  0.00  0.00    -0.262 N 
ATOM     18  C   UNL     1      -2.671   3.845  25.108  0.00  0.00    +0.101 C 
ATOM     19  C   UNL     1      -3.016   2.391  24.877  0.00  0.00    +0.327 C 
ATOM     20  O   UNL     1      -2.334   1.928  24.908  0.00  0.00    -0.250 OA
ATOM     21  N   UNL     1      -3.748   2.039  24.735  0.00  0.00    -0.162 NA
ATOM     29  C   UNL     1      -1.879   3.598  25.182  0.00  0.00    +0.110 C 
ATOM     30  N   UNL     1      -2.003   2.948  25.082  0.00  0.00    -0.299 N 
ATOM     31  C   UNL     1      -1.876   2.137  24.996  0.00  0.00    +0.261 A 
ATOM     32  O   UNL     1      -2.321   1.459  24.850  0.00  0.00    -0.267 OA
ENDROOT
BRANCH  21  22
ATOM     22  C   UNL     1      -3.799   1.223  24.624  0.00  0.00    +0.075 A 
ATOM     23  C   UNL     1      -3.710   0.903  23.868  0.00  0.00    +0.018 A 
ATOM     24  C   UNL     1      -3.761   0.087  23.758  0.00  0.00    +0.013 A 
ATOM     25  C   UNL     1      -3.900  -0.409  24.403  0.00  0.00    +0.058 A 
ATOM     26 CL   UNL     1      -3.951  -1.225  24.292  0.00  0.00    -0.082 Cl
ATOM     27  C   UNL     1      -3.988  -0.089  25.158  0.00  0.00    +0.013 A 
ATOM     28  C   UNL     1      -3.938   0.727  25.269  0.00  0.00    +0.018 A 
ENDBRANCH  21  22
BRANCH   9   6
ATOM      3  C   UNL     1      -0.727  -0.599  24.797  0.00  0.00    +0.139 A 
ATOM      4  C   UNL     1      -0.908  -0.288  25.540  0.00  0.00    +0.037 A 
ATOM      5  C   UNL     1      -1.037   0.523  25.627  0.00  0.00    +0.003 A 
ATOM      6  C   UNL     1      -0.984   1.021  24.972  0.00  0.00    +0.005 A 
ATOM      7  C   UNL     1      -0.803   0.710  24.230  0.00  0.00    +0.003 A 
ATOM      8  C   UNL     1      -0.675  -0.101  24.142  0.00  0.00    +0.037 A 
BRANCH   3   2
ATOM      1  C   UNL     1      -0.595  -1.899  25.373  0.00  0.00    +0.252 C 
ATOM      2  O   UNL     1      -0.599  -1.410  24.710  0.00  0.00    -0.471 OA
ENDBRANCH   3   2
ENDBRANCH   9   6
TORSDOF 3
ENDMDL
MODEL 6
REMARK VINA RESULT:     -15.1      1.727      2.803
REMARK  Name = 
REMARK  3 active torsions:
REMARK  status: ('A' for Active; 'I' for Inactive)
REMARK    1  A    between atoms: O_2  and  C_3
REMARK    2  A    between atoms: C_6  and  C_9
REMARK    3  A    between atoms: N_21  and  C_22
REMARK                            x       y       z     vdW  Elec       q    Type
REMARK                         _______ _______ _______ _____ _____    ______ ____
ROOT
ATOM      9  C   UNL     1      -3.363   1.274  24.583  0.00  0.00    +0.056 A 
ATOM     10  C   UNL     1      -3.869   0.640  24.432  0.00  0.00    +0.006 A 
ATOM     11  C   UNL     1      -4.676   0.711  24.587  0.00  0.00    +0.013 A 
ATOM     12  C   UNL     1      -4.977   1.415  24.892  0.00  0.00    +0.041 A 
ATOM     13  C   UNL     1      -5.770   1.796  25.158  0.00  0.00    +0.058 C 
ATOM     14  C   UNL     1      -6.456   1.657  25.217  0.00  0.00    +0.011 C 
ATOM     15  C   UNL     1      -5.953   2.281  25.365  0.00  0.00    +0.043 C 
ATOM     16  C   UNL     1      -5.516   3.133  25.606  0.00  0.00    +0.097 C 
ATOM     17  N   UNL     1      -4.725   2.945  25.411  0.00  0.00    -0.262 N 
ATOM     18  C   UNL     1      -5.362   2.626  25.396  0.00  0.00    +0.101 C 
ATOM     19  C   UNL     1      -3.911   3.044  25.318  0.00  0.00    +0.327 C 
ATOM     20  O   UNL     1      -3.452   2.426  25.019  0.00  0.00    -0.250 OA
ATOM     21  N   UNL     1      -3.556   3.759  25.522  0.00  0.00    -0.162 NA
ATOM     29  C   UNL     1      -5.120   1.891  25.089  0.00  0.00    +0.110 C 
ATOM     30  N   UNL     1      -4.471   2.049  25.043  0.00  0.00    -0.299 N 
ATOM     31  C   UNL     1      -3.664   1.979  24.889  0.00  0.00    +0.261 A 
ATOM     32  O   UNL     1      -2.986   2.443  24.950  0.00  0.00    -0.267 OA
ENDROOT
BRANCH  21  22
ATOM     22  C   UNL     1      -2.742   3.858  25.429  0.00  0.00    +0.075 A 
ATOM     23  C   UNL     1      -2.228   3.650  26.040  0.00  0.00    +0.018 A 
ATOM     24  C   UNL     1      -1.415   3.749  25.946  0.00  0.00    +0.013 A 
ATOM     25  C   UNL     1      -1.115   4.056  25.240  0.00  0.00    +0.058 A 
ATOM     26 CL   UNL     1      -0.302   4.154  25.147  0.00  0.00    -0.082 Cl
ATOM     27  C   UNL     1      -1.629   4.263  24.630  0.00  0.00    +0.013 A 
ATOM     28  C   UNL     1      -2.442   4.165  24.723  0.00  0.00    +0.018 A 
ENDBRANCH  21  22
BRANCH   9   6
ATOM      3  C   UNL     1      -0.942   1.060  24.121  0.00  0.00    +0.139 A 
ATOM      4  C   UNL     1      -1.449   1.344  23.535  0.00  0.00    +0.037 A 
ATOM      5  C   UNL     1      -2.257   1.415  23.690  0.00  0.00    +0.003 A 
ATOM      6  C   UNL     1      -2.556   1.203  24.429  0.00  0.00    +0.005 A 
ATOM      7  C   UNL     1      -2.048   0.919  25.013  0.00  0.00    +0.003 A 
ATOM      8  C   UNL     1      -1.241   0.848  24.860  0.00  0.00    +0.037 A 
BRANCH   3   2
ATOM      1  C   UNL     1       0.156   0.312  23.596  0.00  0.00    +0.252 C 
ATOM      2  O   UNL     1      -0.133   0.988  23.966  0.00  0.00    -0.471 OA
ENDBRANCH   3   2
ENDBRANCH   9   6
TORSDOF 3
ENDMDL
