REMARK  Name = 
REMARK  5 active torsions:
REMARK  status: ('A' for Active; 'I' for Inactive)
REMARK    1  A    between atoms: C_5  and  C_6
REMARK    2  A    between atoms: C_6  and  N_7
REMARK    3  A    between atoms: C_12  and  O_14
REMARK    4  A    between atoms: O_14  and  C_15
REMARK    5  A    between atoms: C_18  and  C_21
REMARK                            x       y       z     vdW  Elec       q    Type
REMARK                         _______ _______ _______ _____ _____    ______ ____
ROOT
ATOM      7  N   UNL     1      -0.401  -3.868   0.000  0.00  0.00    -0.264 NA
ATOM      8  C   UNL     1       0.281  -3.403   0.000  0.00  0.00    +0.105 C 
ATOM      9  C   UNL     1       1.069  -3.646   0.000  0.00  0.00    +0.160 C 
ATOM     10  O   UNL     1       1.371  -4.414   0.000  0.00  0.00    -0.348 OA
ATOM     11  C   UNL     1       0.958  -5.128   0.000  0.00  0.00    +0.187 C 
ATOM     12  C   UNL     1       0.142  -5.251   0.000  0.00  0.00    +0.213 C 
ATOM     13  C   UNL     1      -0.462  -4.690   0.000  0.00  0.00    +0.119 C 
ENDROOT
BRANCH   7   6
ATOM      6  C   UNL     1      -1.115  -3.455   0.000  0.00  0.00    +0.099 C 
BRANCH   6   5
ATOM      1  F   UNL     1      -1.115  -0.155   0.000  0.00  0.00    -0.204 F 
ATOM      2  C   UNL     1      -1.115  -0.980   0.000  0.00  0.00    +0.140 A 
ATOM      3  C   UNL     1      -0.401  -1.393   0.000  0.00  0.00    +0.029 A 
ATOM      4  C   UNL     1      -0.401  -2.217   0.000  0.00  0.00    -0.001 A 
ATOM      5  C   UNL     1      -1.115  -2.630   0.000  0.00  0.00    -0.006 A 
ATOM     25  C   UNL     1      -1.830  -2.217   0.000  0.00  0.00    -0.001 A 
ATOM     26  C   UNL     1      -1.830  -1.393   0.000  0.00  0.00    +0.029 A 
ENDBRANCH   6   5
ENDBRANCH   7   6
BRANCH  12  14
ATOM     14  O   UNL     1      -0.101  -6.040   0.000  0.00  0.00    -0.460 OA
BRANCH  14  15
ATOM     15  C   UNL     1      -0.905  -6.223   0.000  0.00  0.00    +0.225 A 
ATOM     16  C   UNL     1      -1.148  -7.012   0.000  0.00  0.00    +0.058 A 
ATOM     17  C   UNL     1      -1.953  -7.195   0.000  0.00  0.00    +0.010 A 
ATOM     18  C   UNL     1      -2.514  -6.590   0.000  0.00  0.00    +0.091 A 
ATOM     19  C   UNL     1      -2.271  -5.802   0.000  0.00  0.00    +0.106 A 
ATOM     20  N   UNL     1      -1.466  -5.619   0.000  0.00  0.00    -0.210 NA
BRANCH  18  21
ATOM     21  C   UNL     1      -3.318  -6.774   0.000  0.00  0.00    +0.420 C 
ATOM     22  F   UNL     1      -4.122  -6.958   0.000  0.00  0.00    -0.166 F 
ATOM     23  F   UNL     1      -3.502  -5.970   0.000  0.00  0.00    -0.166 F 
ATOM     24  F   UNL     1      -3.135  -7.578   0.000  0.00  0.00    -0.166 F 
ENDBRANCH  18  21
ENDBRANCH  14  15
ENDBRANCH  12  14
TORSDOF 5
