MODEL 1
REMARK VINA RESULT:     -11.4      0.000      0.000
REMARK  Name = 
REMARK  7 active torsions:
REMARK  status: ('A' for Active; 'I' for Inactive)
REMARK    1  A    between atoms: N_2  and  C_4
REMARK    2  A    between atoms: C_7  and  C_8
REMARK    3  A    between atoms: C_8  and  N_9
REMARK    4  A    between atoms: C_14  and  C_15
REMARK    5  A    between atoms: C_17  and  C_20
REMARK    6  A    between atoms: C_23  and  O_24
REMARK    7  A    between atoms: O_24  and  C_25
REMARK                            x       y       z     vdW  Elec       q    Type
REMARK                         _______ _______ _______ _____ _____    ______ ____
ROOT
ATOM      9  N   UNL     1      -4.394   2.644  25.168  0.00  0.00    -0.260 NA
ATOM     10  C   UNL     1      -4.652   3.329  25.547  0.00  0.00    +0.106 C 
ATOM     11  C   UNL     1      -5.386   3.168  25.890  0.00  0.00    +0.170 C 
ATOM     12  O   UNL     1      -5.845   3.698  26.324  0.00  0.00    -0.222 OA
ATOM     13  C   UNL     1      -5.579   2.384  25.722  0.00  0.00    +0.060 C 
ATOM     14  C   UNL     1      -4.965   2.060  25.276  0.00  0.00    +0.140 C 
ENDROOT
BRANCH  14  15
ATOM     15  C   UNL     1      -4.930   1.288  24.988  0.00  0.00    +0.251 A 
ATOM     16  N   UNL     1      -4.366   0.720  25.191  0.00  0.00    -0.190 NA
ATOM     17  C   UNL     1      -4.540   0.030  24.775  0.00  0.00    +0.203 A 
ATOM     18  N   UNL     1      -5.210   0.170  24.315  0.00  0.00    -0.056 NA
ATOM     19  O   UNL     1      -5.450   0.947  24.447  0.00  0.00    -0.336 OA
BRANCH  17  20
ATOM     20  C   UNL     1      -4.117  -0.678  24.812  0.00  0.00    +0.039 A 
ATOM     21  C   UNL     1      -3.690  -0.868  25.492  0.00  0.00    +0.006 A 
ATOM     22  C   UNL     1      -3.267  -1.575  25.530  0.00  0.00    +0.037 A 
ATOM     23  C   UNL     1      -3.271  -2.093  24.887  0.00  0.00    +0.147 A 
ATOM     29  C   UNL     1      -3.698  -1.904  24.207  0.00  0.00    +0.037 A 
ATOM     30  C   UNL     1      -4.121  -1.196  24.170  0.00  0.00    +0.006 A 
BRANCH  23  24
ATOM     24  O   UNL     1      -2.848  -2.801  24.925  0.00  0.00    -0.404 OA
BRANCH  24  25
ATOM     25  C   UNL     1      -2.170  -2.900  24.466  0.00  0.00    +0.575 C 
ATOM     26  F   UNL     1      -1.492  -3.000  24.006  0.00  0.00    -0.133 F 
ATOM     27  F   UNL     1      -2.626  -3.231  23.864  0.00  0.00    -0.133 F 
ATOM     28  F   UNL     1      -1.713  -2.569  25.068  0.00  0.00    -0.133 F 
ENDBRANCH  24  25
ENDBRANCH  23  24
ENDBRANCH  17  20
ENDBRANCH  14  15
BRANCH   9   8
ATOM      8  C   UNL     1      -3.686   2.559  24.753  0.00  0.00    +0.100 C 
BRANCH   8   7
ATOM      4  C   UNL     1      -1.910   4.270  24.968  0.00  0.00    +0.048 A 
ATOM      5  C   UNL     1      -1.921   3.621  25.477  0.00  0.00    +0.014 A 
ATOM      6  C   UNL     1      -2.512   3.051  25.406  0.00  0.00    -0.002 A 
ATOM      7  C   UNL     1      -3.093   3.130  24.825  0.00  0.00    -0.006 A 
ATOM     31  C   UNL     1      -3.082   3.779  24.316  0.00  0.00    -0.002 A 
ATOM     32  C   UNL     1      -2.490   4.349  24.388  0.00  0.00    +0.014 A 
BRANCH   4   2
ATOM      1  C   UNL     1      -0.524   4.620  24.989  0.00  0.00    +0.112 C 
ATOM      2  N   UNL     1      -1.319   4.840  25.040  0.00  0.00    -0.304 N 
ATOM      3  C   UNL     1      -1.519   5.631  25.162  0.00  0.00    +0.112 C 
ENDBRANCH   4   2
ENDBRANCH   8   7
ENDBRANCH   9   8
TORSDOF 7
ENDMDL
MODEL 2
REMARK VINA RESULT:     -11.0      2.802      5.449
REMARK  Name = 
REMARK  7 active torsions:
REMARK  status: ('A' for Active; 'I' for Inactive)
REMARK    1  A    between atoms: N_2  and  C_4
REMARK    2  A    between atoms: C_7  and  C_8
REMARK    3  A    between atoms: C_8  and  N_9
REMARK    4  A    between atoms: C_14  and  C_15
REMARK    5  A    between atoms: C_17  and  C_20
REMARK    6  A    between atoms: C_23  and  O_24
REMARK    7  A    between atoms: O_24  and  C_25
REMARK                            x       y       z     vdW  Elec       q    Type
REMARK                         _______ _______ _______ _____ _____    ______ ____
ROOT
ATOM      9  N   UNL     1      -4.811   1.453  25.030  0.00  0.00    -0.260 NA
ATOM     10  C   UNL     1      -5.523   1.112  24.790  0.00  0.00    +0.106 C 
ATOM     11  C   UNL     1      -6.117   1.680  24.870  0.00  0.00    +0.170 C 
ATOM     12  O   UNL     1      -6.915   1.575  24.692  0.00  0.00    -0.222 OA
ATOM     13  C   UNL     1      -5.771   2.371  25.160  0.00  0.00    +0.060 C 
ATOM     14  C   UNL     1      -4.964   2.230  25.258  0.00  0.00    +0.140 C 
ENDROOT
BRANCH  14  15
ATOM     15  C   UNL     1      -4.407   2.771  25.536  0.00  0.00    +0.251 A 
ATOM     16  N   UNL     1      -3.685   2.951  25.180  0.00  0.00    -0.190 NA
ATOM     17  C   UNL     1      -3.307   3.519  25.643  0.00  0.00    +0.203 A 
ATOM     18  N   UNL     1      -3.794   3.691  26.285  0.00  0.00    -0.056 NA
ATOM     19  O   UNL     1      -4.474   3.229  26.219  0.00  0.00    -0.336 OA
BRANCH  17  20
ATOM     20  C   UNL     1      -2.569   3.857  25.490  0.00  0.00    +0.039 A 
ATOM     21  C   UNL     1      -1.886   3.399  25.552  0.00  0.00    +0.006 A 
ATOM     22  C   UNL     1      -1.148   3.736  25.399  0.00  0.00    +0.037 A 
ATOM     23  C   UNL     1      -1.094   4.531  25.184  0.00  0.00    +0.147 A 
ATOM     29  C   UNL     1      -1.778   4.988  25.122  0.00  0.00    +0.037 A 
ATOM     30  C   UNL     1      -2.515   4.651  25.275  0.00  0.00    +0.006 A 
BRANCH  23  24
ATOM     24  O   UNL     1      -0.357   4.868  25.031  0.00  0.00    -0.404 OA
BRANCH  24  25
ATOM     25  C   UNL     1      -0.144   5.059  24.258  0.00  0.00    +0.575 C 
ATOM     26  F   UNL     1       0.069   5.252  23.484  0.00  0.00    -0.133 F 
ATOM     27  F   UNL     1      -0.307   5.854  24.409  0.00  0.00    -0.133 F 
ATOM     28  F   UNL     1       0.020   4.265  24.106  0.00  0.00    -0.133 F 
ENDBRANCH  24  25
ENDBRANCH  23  24
ENDBRANCH  17  20
ENDBRANCH  14  15
BRANCH   9   8
ATOM      8  C   UNL     1      -4.075   1.080  25.040  0.00  0.00    +0.100 C 
BRANCH   8   7
ATOM      4  C   UNL     1      -3.900  -1.330  24.501  0.00  0.00    +0.048 A 
ATOM      5  C   UNL     1      -3.979  -1.087  25.285  0.00  0.00    +0.014 A 
ATOM      6  C   UNL     1      -4.038  -0.284  25.465  0.00  0.00    -0.002 A 
ATOM      7  C   UNL     1      -4.017   0.277  24.860  0.00  0.00    -0.006 A 
ATOM     31  C   UNL     1      -3.938   0.034  24.075  0.00  0.00    -0.002 A 
ATOM     32  C   UNL     1      -3.879  -0.769  23.896  0.00  0.00    +0.014 A 
BRANCH   4   2
ATOM      1  C   UNL     1      -3.283  -2.602  24.708  0.00  0.00    +0.112 C 
ATOM      2  N   UNL     1      -3.842  -2.132  24.321  0.00  0.00    -0.304 N 
ATOM      3  C   UNL     1      -4.341  -2.467  23.756  0.00  0.00    +0.112 C 
ENDBRANCH   4   2
ENDBRANCH   8   7
ENDBRANCH   9   8
TORSDOF 7
ENDMDL
MODEL 3
REMARK VINA RESULT:     -10.4      2.483      3.495
REMARK  Name = 
REMARK  7 active torsions:
REMARK  status: ('A' for Active; 'I' for Inactive)
REMARK    1  A    between atoms: N_2  and  C_4
REMARK    2  A    between atoms: C_7  and  C_8
REMARK    3  A    between atoms: C_8  and  N_9
REMARK    4  A    between atoms: C_14  and  C_15
REMARK    5  A    between atoms: C_17  and  C_20
REMARK    6  A    between atoms: C_23  and  O_24
REMARK    7  A    between atoms: O_24  and  C_25
REMARK                            x       y       z     vdW  Elec       q    Type
REMARK                         _______ _______ _______ _____ _____    ______ ____
ROOT
ATOM      9  N   UNL     1      -0.259   1.523  24.876  0.00  0.00    -0.260 NA
ATOM     10  C   UNL     1       0.311   1.938  24.448  0.00  0.00    +0.106 C 
ATOM     11  C   UNL     1       0.740   1.392  24.001  0.00  0.00    +0.170 C 
ATOM     12  O   UNL     1       1.364   1.568  23.491  0.00  0.00    -0.222 OA
ATOM     13  C   UNL     1       0.435   0.641  24.154  0.00  0.00    +0.060 C 
ATOM     14  C   UNL     1      -0.183   0.722  24.695  0.00  0.00    +0.140 C 
ENDROOT
BRANCH  14  15
ATOM     15  C   UNL     1      -0.643   0.110  25.001  0.00  0.00    +0.251 A 
ATOM     16  N   UNL     1      -1.303  -0.228  24.639  0.00  0.00    -0.190 NA
ATOM     17  C   UNL     1      -1.592  -0.819  25.137  0.00  0.00    +0.203 A 
ATOM     18  N   UNL     1      -1.111  -0.846  25.807  0.00  0.00    -0.056 NA
ATOM     19  O   UNL     1      -0.525  -0.272  25.723  0.00  0.00    -0.336 OA
BRANCH  17  20
ATOM     20  C   UNL     1      -2.247  -1.299  24.991  0.00  0.00    +0.039 A 
ATOM     21  C   UNL     1      -2.145  -2.044  24.653  0.00  0.00    +0.006 A 
ATOM     22  C   UNL     1      -2.800  -2.524  24.507  0.00  0.00    +0.037 A 
ATOM     23  C   UNL     1      -3.557  -2.258  24.699  0.00  0.00    +0.147 A 
ATOM     29  C   UNL     1      -3.659  -1.513  25.038  0.00  0.00    +0.037 A 
ATOM     30  C   UNL     1      -3.004  -1.033  25.184  0.00  0.00    +0.006 A 
BRANCH  23  24
ATOM     24  O   UNL     1      -4.213  -2.738  24.553  0.00  0.00    -0.404 OA
BRANCH  24  25
ATOM     25  C   UNL     1      -4.493  -2.829  23.783  0.00  0.00    +0.575 C 
ATOM     26  F   UNL     1      -4.774  -2.919  23.012  0.00  0.00    -0.133 F 
ATOM     27  F   UNL     1      -4.892  -2.109  23.843  0.00  0.00    -0.133 F 
ATOM     28  F   UNL     1      -4.095  -3.549  23.722  0.00  0.00    -0.133 F 
ENDBRANCH  24  25
ENDBRANCH  23  24
ENDBRANCH  17  20
ENDBRANCH  14  15
BRANCH   9   8
ATOM      8  C   UNL     1      -0.809   1.852  25.395  0.00  0.00    +0.100 C 
BRANCH   8   7
ATOM      4  C   UNL     1      -1.410   4.246  25.209  0.00  0.00    +0.048 A 
ATOM      5  C   UNL     1      -1.870   3.675  24.832  0.00  0.00    +0.014 A 
ATOM      6  C   UNL     1      -1.671   2.877  24.894  0.00  0.00    -0.002 A 
ATOM      7  C   UNL     1      -1.009   2.650  25.333  0.00  0.00    -0.006 A 
ATOM     31  C   UNL     1      -0.549   3.222  25.710  0.00  0.00    -0.002 A 
ATOM     32  C   UNL     1      -0.749   4.020  25.648  0.00  0.00    +0.014 A 
BRANCH   4   2
ATOM      1  C   UNL     1      -2.346   5.306  25.413  0.00  0.00    +0.112 C 
ATOM      2  N   UNL     1      -1.610   5.044  25.147  0.00  0.00    -0.304 N 
ATOM      3  C   UNL     1      -1.075   5.580  24.819  0.00  0.00    +0.112 C 
ENDBRANCH   4   2
ENDBRANCH   8   7
ENDBRANCH   9   8
TORSDOF 7
ENDMDL
MODEL 4
REMARK VINA RESULT:     -10.0      3.282      6.114
REMARK  Name = 
REMARK  7 active torsions:
REMARK  status: ('A' for Active; 'I' for Inactive)
REMARK    1  A    between atoms: N_2  and  C_4
REMARK    2  A    between atoms: C_7  and  C_8
REMARK    3  A    between atoms: C_8  and  N_9
REMARK    4  A    between atoms: C_14  and  C_15
REMARK    5  A    between atoms: C_17  and  C_20
REMARK    6  A    between atoms: C_23  and  O_24
REMARK    7  A    between atoms: O_24  and  C_25
REMARK                            x       y       z     vdW  Elec       q    Type
REMARK                         _______ _______ _______ _____ _____    ______ ____
ROOT
ATOM      9  N   UNL     1      -0.592  -0.101  24.536  0.00  0.00    -0.260 NA
ATOM     10  C   UNL     1      -0.182  -0.587  24.010  0.00  0.00    +0.106 C 
ATOM     11  C   UNL     1       0.295  -0.105  23.539  0.00  0.00    +0.170 C 
ATOM     12  O   UNL     1       0.799  -0.361  22.938  0.00  0.00    -0.222 OA
ATOM     13  C   UNL     1       0.180   0.677  23.774  0.00  0.00    +0.060 C 
ATOM     14  C   UNL     1      -0.369   0.679  24.391  0.00  0.00    +0.140 C 
ENDROOT
BRANCH  14  15
ATOM     15  C   UNL     1      -0.646   1.344  24.792  0.00  0.00    +0.251 A 
ATOM     16  N   UNL     1      -1.382   1.703  24.686  0.00  0.00    -0.190 NA
ATOM     17  C   UNL     1      -1.426   2.349  25.198  0.00  0.00    +0.203 A 
ATOM     18  N   UNL     1      -0.718   2.389  25.618  0.00  0.00    -0.056 NA
ATOM     19  O   UNL     1      -0.237   1.770  25.368  0.00  0.00    -0.336 OA
BRANCH  17  20
ATOM     20  C   UNL     1      -2.067   2.863  25.274  0.00  0.00    +0.039 A 
ATOM     21  C   UNL     1      -2.652   2.882  24.693  0.00  0.00    +0.006 A 
ATOM     22  C   UNL     1      -3.293   3.397  24.770  0.00  0.00    +0.037 A 
ATOM     23  C   UNL     1      -3.347   3.892  25.427  0.00  0.00    +0.147 A 
ATOM     29  C   UNL     1      -2.762   3.874  26.008  0.00  0.00    +0.037 A 
ATOM     30  C   UNL     1      -2.121   3.359  25.931  0.00  0.00    +0.006 A 
BRANCH  23  24
ATOM     24  O   UNL     1      -3.988   4.407  25.504  0.00  0.00    -0.404 OA
BRANCH  24  25
ATOM     25  C   UNL     1      -4.756   4.108  25.529  0.00  0.00    +0.575 C 
ATOM     26  F   UNL     1      -5.525   3.809  25.553  0.00  0.00    -0.133 F 
ATOM     27  F   UNL     1      -4.847   4.274  24.726  0.00  0.00    -0.133 F 
ATOM     28  F   UNL     1      -4.666   3.942  26.332  0.00  0.00    -0.133 F 
ENDBRANCH  24  25
ENDBRANCH  23  24
ENDBRANCH  17  20
ENDBRANCH  14  15
BRANCH   9   8
ATOM      8  C   UNL     1      -1.131  -0.353  25.107  0.00  0.00    +0.100 C 
BRANCH   8   7
ATOM      4  C   UNL     1      -2.818  -2.075  24.544  0.00  0.00    +0.048 A 
ATOM      5  C   UNL     1      -3.019  -1.276  24.515  0.00  0.00    +0.014 A 
ATOM      6  C   UNL     1      -2.457  -0.701  24.702  0.00  0.00    -0.002 A 
ATOM      7  C   UNL     1      -1.694  -0.927  24.919  0.00  0.00    -0.006 A 
ATOM     31  C   UNL     1      -1.493  -1.727  24.949  0.00  0.00    -0.002 A 
ATOM     32  C   UNL     1      -2.055  -2.301  24.761  0.00  0.00    +0.014 A 
BRANCH   4   2
ATOM      1  C   UNL     1      -4.008  -2.462  23.853  0.00  0.00    +0.112 C 
ATOM      2  N   UNL     1      -3.380  -2.649  24.357  0.00  0.00    -0.304 N 
ATOM      3  C   UNL     1      -3.316  -3.409  24.671  0.00  0.00    +0.112 C 
ENDBRANCH   4   2
ENDBRANCH   8   7
ENDBRANCH   9   8
TORSDOF 7
ENDMDL
MODEL 5
REMARK VINA RESULT:     -10.0      3.172      5.265
REMARK  Name = 
REMARK  7 active torsions:
REMARK  status: ('A' for Active; 'I' for Inactive)
REMARK    1  A    between atoms: N_2  and  C_4
REMARK    2  A    between atoms: C_7  and  C_8
REMARK    3  A    between atoms: C_8  and  N_9
REMARK    4  A    between atoms: C_14  and  C_15
REMARK    5  A    between atoms: C_17  and  C_20
REMARK    6  A    between atoms: C_23  and  O_24
REMARK    7  A    between atoms: O_24  and  C_25
REMARK                            x       y       z     vdW  Elec       q    Type
REMARK                         _______ _______ _______ _____ _____    ______ ____
ROOT
ATOM      9  N   UNL     1      -0.612   1.945  25.089  0.00  0.00    -0.260 NA
ATOM     10  C   UNL     1       0.116   1.851  25.464  0.00  0.00    +0.106 C 
ATOM     11  C   UNL     1       0.226   2.494  25.970  0.00  0.00    +0.170 C 
ATOM     12  O   UNL     1       0.882   2.624  26.453  0.00  0.00    -0.222 OA
ATOM     13  C   UNL     1      -0.435   2.984  25.907  0.00  0.00    +0.060 C 
ATOM     14  C   UNL     1      -0.953   2.644  25.362  0.00  0.00    +0.140 C 
ENDROOT
BRANCH  14  15
ATOM     15  C   UNL     1      -1.683   2.950  25.131  0.00  0.00    +0.251 A 
ATOM     16  N   UNL     1      -2.422   2.681  25.381  0.00  0.00    -0.190 NA
ATOM     17  C   UNL     1      -2.999   3.144  25.014  0.00  0.00    +0.203 A 
ATOM     18  N   UNL     1      -2.616   3.698  24.538  0.00  0.00    -0.056 NA
ATOM     19  O   UNL     1      -1.804   3.578  24.610  0.00  0.00    -0.336 OA
BRANCH  17  20
ATOM     20  C   UNL     1      -3.815   3.065  25.108  0.00  0.00    +0.039 A 
ATOM     21  C   UNL     1      -4.229   2.508  24.662  0.00  0.00    +0.006 A 
ATOM     22  C   UNL     1      -5.045   2.429  24.756  0.00  0.00    +0.037 A 
ATOM     23  C   UNL     1      -5.447   2.908  25.294  0.00  0.00    +0.147 A 
ATOM     29  C   UNL     1      -5.033   3.466  25.739  0.00  0.00    +0.037 A 
ATOM     30  C   UNL     1      -4.216   3.544  25.646  0.00  0.00    +0.006 A 
BRANCH  23  24
ATOM     24  O   UNL     1      -6.263   2.830  25.387  0.00  0.00    -0.404 OA
BRANCH  24  25
ATOM     25  C   UNL     1      -6.578   2.127  25.682  0.00  0.00    +0.575 C 
ATOM     26  F   UNL     1      -6.894   1.423  25.975  0.00  0.00    -0.133 F 
ATOM     27  F   UNL     1      -6.759   1.887  24.914  0.00  0.00    -0.133 F 
ATOM     28  F   UNL     1      -6.398   2.367  26.450  0.00  0.00    -0.133 F 
ENDBRANCH  24  25
ENDBRANCH  23  24
ENDBRANCH  17  20
ENDBRANCH  14  15
BRANCH   9   8
ATOM      8  C   UNL     1      -0.943   1.428  24.537  0.00  0.00    +0.100 C 
BRANCH   8   7
ATOM      4  C   UNL     1      -0.754  -1.019  24.862  0.00  0.00    +0.048 A 
ATOM      5  C   UNL     1      -0.306  -0.644  24.279  0.00  0.00    +0.014 A 
ATOM      6  C   UNL     1      -0.369   0.171  24.170  0.00  0.00    -0.002 A 
ATOM      7  C   UNL     1      -0.880   0.612  24.645  0.00  0.00    -0.006 A 
ATOM     31  C   UNL     1      -1.328   0.238  25.228  0.00  0.00    -0.002 A 
ATOM     32  C   UNL     1      -1.264  -0.578  25.336  0.00  0.00    +0.014 A 
BRANCH   4   2
ATOM      1  C   UNL     1      -0.032  -2.149  25.355  0.00  0.00    +0.112 C 
ATOM      2  N   UNL     1      -0.691  -1.833  24.971  0.00  0.00    -0.304 N 
ATOM      3  C   UNL     1      -1.286  -2.334  24.695  0.00  0.00    +0.112 C 
ENDBRANCH   4   2
ENDBRANCH   8   7
ENDBRANCH   9   8
TORSDOF 7
ENDMDL
MODEL 6
REMARK VINA RESULT:      -9.9      3.760      5.245
REMARK  Name = 
REMARK  7 active torsions:
REMARK  status: ('A' for Active; 'I' for Inactive)
REMARK    1  A    between atoms: N_2  and  C_4
REMARK    2  A    between atoms: C_7  and  C_8
REMARK    3  A    between atoms: C_8  and  N_9
REMARK    4  A    between atoms: C_14  and  C_15
REMARK    5  A    between atoms: C_17  and  C_20
REMARK    6  A    between atoms: C_23  and  O_24
REMARK    7  A    between atoms: O_24  and  C_25
REMARK                            x       y       z     vdW  Elec       q    Type
REMARK                         _______ _______ _______ _____ _____    ______ ____
ROOT
ATOM      9  N   UNL     1      -0.899  -0.468  24.451  0.00  0.00    -0.260 NA
ATOM     10  C   UNL     1      -0.344  -0.939  24.840  0.00  0.00    +0.106 C 
ATOM     11  C   UNL     1      -0.750  -1.432  25.362  0.00  0.00    +0.170 C 
ATOM     12  O   UNL     1      -0.411  -1.992  25.863  0.00  0.00    -0.222 OA
ATOM     13  C   UNL     1      -1.556  -1.265  25.296  0.00  0.00    +0.060 C 
ATOM     14  C   UNL     1      -1.647  -0.669  24.732  0.00  0.00    +0.140 C 
ENDROOT
BRANCH  14  15
ATOM     15  C   UNL     1      -2.361  -0.334  24.493  0.00  0.00    +0.251 A 
ATOM     16  N   UNL     1      -2.727   0.323  24.832  0.00  0.00    -0.190 NA
ATOM     17  C   UNL     1      -3.427   0.467  24.421  0.00  0.00    +0.203 A 
ATOM     18  N   UNL     1      -3.495  -0.101  23.827  0.00  0.00    -0.056 NA
ATOM     19  O   UNL     1      -2.837  -0.596  23.872  0.00  0.00    -0.336 OA
BRANCH  17  20
ATOM     20  C   UNL     1      -3.966   1.072  24.577  0.00  0.00    +0.039 A 
ATOM     21  C   UNL     1      -4.609   0.934  25.074  0.00  0.00    +0.006 A 
ATOM     22  C   UNL     1      -5.147   1.540  25.230  0.00  0.00    +0.037 A 
ATOM     23  C   UNL     1      -5.042   2.283  24.887  0.00  0.00    +0.147 A 
ATOM     29  C   UNL     1      -4.399   2.421  24.389  0.00  0.00    +0.037 A 
ATOM     30  C   UNL     1      -3.861   1.816  24.234  0.00  0.00    +0.006 A 
BRANCH  23  24
ATOM     24  O   UNL     1      -5.581   2.889  25.043  0.00  0.00    -0.404 OA
BRANCH  24  25
ATOM     25  C   UNL     1      -5.378   3.497  25.562  0.00  0.00    +0.575 C 
ATOM     26  F   UNL     1      -5.176   4.106  26.081  0.00  0.00    -0.133 F 
ATOM     27  F   UNL     1      -5.671   3.056  26.194  0.00  0.00    -0.133 F 
ATOM     28  F   UNL     1      -5.085   3.940  24.930  0.00  0.00    -0.133 F 
ENDBRANCH  24  25
ENDBRANCH  23  24
ENDBRANCH  17  20
ENDBRANCH  14  15
BRANCH   9   8
ATOM      8  C   UNL     1      -0.734   0.104  23.880  0.00  0.00    +0.100 C 
BRANCH   8   7
ATOM      4  C   UNL     1       1.559   0.319  22.971  0.00  0.00    +0.048 A 
ATOM      5  C   UNL     1       1.065  -0.286  22.706  0.00  0.00    +0.014 A 
ATOM      6  C   UNL     1       0.301  -0.358  23.009  0.00  0.00    -0.002 A 
ATOM      7  C   UNL     1       0.031   0.176  23.577  0.00  0.00    -0.006 A 
ATOM     31  C   UNL     1       0.525   0.782  23.842  0.00  0.00    -0.002 A 
ATOM     32  C   UNL     1       1.289   0.853  23.538  0.00  0.00    +0.014 A 
BRANCH   4   2
ATOM      1  C   UNL     1       2.872   0.879  23.045  0.00  0.00    +0.112 C 
ATOM      2  N   UNL     1       2.322   0.391  22.668  0.00  0.00    -0.304 N 
ATOM      3  C   UNL     1       2.538  -0.025  21.988  0.00  0.00    +0.112 C 
ENDBRANCH   4   2
ENDBRANCH   8   7
ENDBRANCH   9   8
TORSDOF 7
ENDMDL
MODEL 7
REMARK VINA RESULT:      -9.8      1.984      3.147
REMARK  Name = 
REMARK  7 active torsions:
REMARK  status: ('A' for Active; 'I' for Inactive)
REMARK    1  A    between atoms: N_2  and  C_4
REMARK    2  A    between atoms: C_7  and  C_8
REMARK    3  A    between atoms: C_8  and  N_9
REMARK    4  A    between atoms: C_14  and  C_15
REMARK    5  A    between atoms: C_17  and  C_20
REMARK    6  A    between atoms: C_23  and  O_24
REMARK    7  A    between atoms: O_24  and  C_25
REMARK                            x       y       z     vdW  Elec       q    Type
REMARK                         _______ _______ _______ _____ _____    ______ ____
ROOT
ATOM      9  N   UNL     1      -1.852   2.743  24.642  0.00  0.00    -0.260 NA
ATOM     10  C   UNL     1      -1.659   3.466  24.989  0.00  0.00    +0.106 C 
ATOM     11  C   UNL     1      -0.901   3.401  25.307  0.00  0.00    +0.170 C 
ATOM     12  O   UNL     1      -0.490   3.994  25.706  0.00  0.00    -0.222 OA
ATOM     13  C   UNL     1      -0.625   2.638  25.156  0.00  0.00    +0.060 C 
ATOM     14  C   UNL     1      -1.214   2.232  24.744  0.00  0.00    +0.140 C 
ENDROOT
BRANCH  14  15
ATOM     15  C   UNL     1      -1.172   1.451  24.482  0.00  0.00    +0.251 A 
ATOM     16  N   UNL     1      -1.580   0.809  24.802  0.00  0.00    -0.190 NA
ATOM     17  C   UNL     1      -1.374   0.136  24.372  0.00  0.00    +0.203 A 
ATOM     18  N   UNL     1      -0.839   0.362  23.786  0.00  0.00    -0.056 NA
ATOM     19  O   UNL     1      -0.714   1.174  23.854  0.00  0.00    -0.336 OA
BRANCH  17  20
ATOM     20  C   UNL     1      -1.654  -0.629  24.504  0.00  0.00    +0.039 A 
ATOM     21  C   UNL     1      -1.129  -1.266  24.504  0.00  0.00    +0.006 A 
ATOM     22  C   UNL     1      -1.410  -2.031  24.636  0.00  0.00    +0.037 A 
ATOM     23  C   UNL     1      -2.214  -2.158  24.768  0.00  0.00    +0.147 A 
ATOM     29  C   UNL     1      -2.738  -1.521  24.769  0.00  0.00    +0.037 A 
ATOM     30  C   UNL     1      -2.458  -0.756  24.636  0.00  0.00    +0.006 A 
BRANCH  23  24
ATOM     24  O   UNL     1      -2.494  -2.923  24.901  0.00  0.00    -0.404 OA
BRANCH  24  25
ATOM     25  C   UNL     1      -3.253  -3.132  24.655  0.00  0.00    +0.575 C 
ATOM     26  F   UNL     1      -4.013  -3.341  24.409  0.00  0.00    -0.133 F 
ATOM     27  F   UNL     1      -3.536  -3.003  25.418  0.00  0.00    -0.133 F 
ATOM     28  F   UNL     1      -2.971  -3.261  23.890  0.00  0.00    -0.133 F 
ENDBRANCH  24  25
ENDBRANCH  23  24
ENDBRANCH  17  20
ENDBRANCH  14  15
BRANCH   9   8
ATOM      8  C   UNL     1      -2.560   2.564  24.258  0.00  0.00    +0.100 C 
BRANCH   8   7
ATOM      4  C   UNL     1      -4.704   3.417  25.154  0.00  0.00    +0.048 A 
ATOM      5  C   UNL     1      -4.304   3.840  24.569  0.00  0.00    +0.014 A 
ATOM      6  C   UNL     1      -3.590   3.556  24.270  0.00  0.00    -0.002 A 
ATOM      7  C   UNL     1      -3.275   2.848  24.557  0.00  0.00    -0.006 A 
ATOM     31  C   UNL     1      -3.675   2.426  25.141  0.00  0.00    -0.002 A 
ATOM     32  C   UNL     1      -4.390   2.711  25.440  0.00  0.00    +0.014 A 
BRANCH   4   2
ATOM      1  C   UNL     1      -5.988   3.173  25.732  0.00  0.00    +0.112 C 
ATOM      2  N   UNL     1      -5.418   3.701  25.452  0.00  0.00    -0.304 N 
ATOM      3  C   UNL     1      -5.564   4.513  25.471  0.00  0.00    +0.112 C 
ENDBRANCH   4   2
ENDBRANCH   8   7
ENDBRANCH   9   8
TORSDOF 7
ENDMDL
MODEL 8
REMARK VINA RESULT:      -9.7      4.959      5.972
REMARK  Name = 
REMARK  7 active torsions:
REMARK  status: ('A' for Active; 'I' for Inactive)
REMARK    1  A    between atoms: N_2  and  C_4
REMARK    2  A    between atoms: C_7  and  C_8
REMARK    3  A    between atoms: C_8  and  N_9
REMARK    4  A    between atoms: C_14  and  C_15
REMARK    5  A    between atoms: C_17  and  C_20
REMARK    6  A    between atoms: C_23  and  O_24
REMARK    7  A    between atoms: O_24  and  C_25
REMARK                            x       y       z     vdW  Elec       q    Type
REMARK                         _______ _______ _______ _____ _____    ______ ____
ROOT
ATOM      9  N   UNL     1      -0.429   0.758  24.165  0.00  0.00    -0.260 NA
ATOM     10  C   UNL     1      -1.062   0.521  24.637  0.00  0.00    +0.106 C 
ATOM     11  C   UNL     1      -1.079  -0.304  24.645  0.00  0.00    +0.170 C 
ATOM     12  O   UNL     1      -1.623  -0.774  25.049  0.00  0.00    -0.222 OA
ATOM     13  C   UNL     1      -0.455  -0.576  24.178  0.00  0.00    +0.060 C 
ATOM     14  C   UNL     1      -0.054   0.082  23.881  0.00  0.00    +0.140 C 
ENDROOT
BRANCH  14  15
ATOM     15  C   UNL     1       0.607   0.064  23.388  0.00  0.00    +0.251 A 
ATOM     16  N   UNL     1       1.392   0.161  23.624  0.00  0.00    -0.190 NA
ATOM     17  C   UNL     1       1.869   0.103  22.954  0.00  0.00    +0.203 A 
ATOM     18  N   UNL     1       1.379  -0.028  22.304  0.00  0.00    -0.056 NA
ATOM     19  O   UNL     1       0.600  -0.052  22.571  0.00  0.00    -0.336 OA
BRANCH  17  20
ATOM     20  C   UNL     1       2.691   0.167  22.937  0.00  0.00    +0.039 A 
ATOM     21  C   UNL     1       3.045   0.889  22.752  0.00  0.00    +0.006 A 
ATOM     22  C   UNL     1       3.868   0.952  22.735  0.00  0.00    +0.037 A 
ATOM     23  C   UNL     1       4.336   0.294  22.904  0.00  0.00    +0.147 A 
ATOM     29  C   UNL     1       3.982  -0.428  23.089  0.00  0.00    +0.037 A 
ATOM     30  C   UNL     1       3.159  -0.491  23.106  0.00  0.00    +0.006 A 
BRANCH  23  24
ATOM     24  O   UNL     1       5.159   0.357  22.887  0.00  0.00    -0.404 OA
BRANCH  24  25
ATOM     25  C   UNL     1       5.598   0.197  23.567  0.00  0.00    +0.575 C 
ATOM     26  F   UNL     1       6.038   0.036  24.246  0.00  0.00    -0.133 F 
ATOM     27  F   UNL     1       5.764  -0.559  23.281  0.00  0.00    -0.133 F 
ATOM     28  F   UNL     1       5.432   0.953  23.853  0.00  0.00    -0.133 F 
ENDBRANCH  24  25
ENDBRANCH  23  24
ENDBRANCH  17  20
ENDBRANCH  14  15
BRANCH   9   8
ATOM      8  C   UNL     1      -0.209   1.537  24.006  0.00  0.00    +0.100 C 
BRANCH   8   7
ATOM      4  C   UNL     1      -1.447   3.411  25.047  0.00  0.00    +0.048 A 
ATOM      5  C   UNL     1      -0.763   3.120  25.404  0.00  0.00    +0.014 A 
ATOM      6  C   UNL     1      -0.350   2.496  25.058  0.00  0.00    -0.002 A 
ATOM      7  C   UNL     1      -0.622   2.162  24.353  0.00  0.00    -0.006 A 
ATOM     31  C   UNL     1      -1.307   2.453  23.996  0.00  0.00    -0.002 A 
ATOM     32  C   UNL     1      -1.719   3.078  24.343  0.00  0.00    +0.014 A 
BRANCH   4   2
ATOM      1  C   UNL     1      -2.541   3.885  25.835  0.00  0.00    +0.112 C 
ATOM      2  N   UNL     1      -1.860   4.035  25.394  0.00  0.00    -0.304 N 
ATOM      3  C   UNL     1      -1.592   4.810  25.300  0.00  0.00    +0.112 C 
ENDBRANCH   4   2
ENDBRANCH   8   7
ENDBRANCH   9   8
TORSDOF 7
ENDMDL
