MODEL 1
REMARK VINA RESULT:      -8.5      0.000      0.000
REMARK  Name = 
REMARK  7 active torsions:
REMARK  status: ('A' for Active; 'I' for Inactive)
REMARK    1  A    between atoms: S_2  and  C_3
REMARK    2  A    between atoms: C_3  and  C_4
REMARK    3  A    between atoms: C_9  and  N_10
REMARK    4  A    between atoms: N_13  and  C_14
REMARK    5  A    between atoms: C_17  and  C_18
REMARK    6  A    between atoms: N_20  and  C_22
REMARK    7  A    between atoms: C_22  and  C_23
REMARK                            x       y       z     vdW  Elec       q    Type
REMARK                         _______ _______ _______ _____ _____    ______ ____
ROOT
ATOM      4  C   UNL     1      -4.110   1.944  24.646  0.00  0.00    +0.237 C 
ATOM      5  O   UNL     1      -4.832   2.209  24.948  0.00  0.00    -0.274 OA
ATOM      6  N   UNL     1      -3.870   1.166  24.776  0.00  0.00    -0.271 N 
ATOM      7  C   UNL     1      -4.290   0.591  25.195  0.00  0.00    +0.096 C 
ATOM      8  C   UNL     1      -3.846  -0.105  25.187  0.00  0.00    +0.045 C 
ATOM      9  C   UNL     1      -3.153   0.039  24.764  0.00  0.00    +0.126 C 
ATOM     17  C   UNL     1      -3.167   0.824  24.510  0.00  0.00    +0.172 C 
ENDROOT
BRANCH   9  10
ATOM     10  N   UNL     1      -2.551  -0.505  24.620  0.00  0.00    -0.187 NA
ATOM     11  C   UNL     1      -2.735  -1.301  24.496  0.00  0.00    +0.339 C 
ATOM     12  O   UNL     1      -2.133  -1.845  24.352  0.00  0.00    -0.249 OA
ATOM     13  N   UNL     1      -3.520  -1.549  24.516  0.00  0.00    -0.189 NA
BRANCH  13  14
ATOM     14  C   UNL     1      -3.705  -2.344  24.393  0.00  0.00    +0.097 C 
ATOM     15  C   UNL     1      -3.477  -2.912  24.945  0.00  0.00    +0.023 C 
ATOM     16  C   UNL     1      -4.117  -2.571  23.715  0.00  0.00    +0.023 C 
ENDBRANCH  13  14
ENDBRANCH   9  10
BRANCH  17  18
ATOM     18  C   UNL     1      -2.582   1.201  24.068  0.00  0.00    +0.246 C 
ATOM     19  O   UNL     1      -2.716   1.380  23.273  0.00  0.00    -0.273 OA
ATOM     20  N   UNL     1      -1.862   1.399  24.419  0.00  0.00    -0.268 N 
ATOM     21  C   UNL     1      -1.728   1.221  25.213  0.00  0.00    +0.115 C 
BRANCH  20  22
ATOM     22  C   UNL     1      -1.278   1.776  23.977  0.00  0.00    +0.183 C 
BRANCH  22  23
ATOM     23  C   UNL     1      -0.513   1.847  24.278  0.00  0.00    +0.281 C 
ATOM     24  N   UNL     1      -0.307   2.505  24.730  0.00  0.00    -0.086 NA
ATOM     25  O   UNL     1       0.047   1.259  24.127  0.00  0.00    -0.270 OA
ENDBRANCH  22  23
ENDBRANCH  20  22
ENDBRANCH  17  18
BRANCH   4   3
ATOM      3  C   UNL     1      -3.630   2.458  24.215  0.00  0.00    +0.143 C 
BRANCH   3   2
ATOM      1  C   UNL     1      -3.757   3.878  24.293  0.00  0.00    +0.070 C 
ATOM      2  S   UNL     1      -3.939   3.164  23.922  0.00  0.00    -0.130 S 
ENDBRANCH   3   2
ENDBRANCH   4   3
TORSDOF 7
ENDMDL
MODEL 2
REMARK VINA RESULT:      -8.1      1.609      2.995
REMARK  Name = 
REMARK  7 active torsions:
REMARK  status: ('A' for Active; 'I' for Inactive)
REMARK    1  A    between atoms: S_2  and  C_3
REMARK    2  A    between atoms: C_3  and  C_4
REMARK    3  A    between atoms: C_9  and  N_10
REMARK    4  A    between atoms: N_13  and  C_14
REMARK    5  A    between atoms: C_17  and  C_18
REMARK    6  A    between atoms: N_20  and  C_22
REMARK    7  A    between atoms: C_22  and  C_23
REMARK                            x       y       z     vdW  Elec       q    Type
REMARK                         _______ _______ _______ _____ _____    ______ ____
ROOT
ATOM      4  C   UNL     1      -1.779   2.671  24.226  0.00  0.00    +0.237 C 
ATOM      5  O   UNL     1      -1.094   2.743  23.771  0.00  0.00    -0.274 OA
ATOM      6  N   UNL     1      -2.315   2.064  24.070  0.00  0.00    -0.271 N 
ATOM      7  C   UNL     1      -2.242   1.490  23.480  0.00  0.00    +0.096 C 
ATOM      8  C   UNL     1      -2.901   0.996  23.523  0.00  0.00    +0.045 C 
ATOM      9  C   UNL     1      -3.382   1.262  24.137  0.00  0.00    +0.126 C 
ATOM     17  C   UNL     1      -3.020   1.922  24.476  0.00  0.00    +0.172 C 
ENDROOT
BRANCH   9  10
ATOM     10  N   UNL     1      -4.098   0.929  24.373  0.00  0.00    -0.187 NA
ATOM     11  C   UNL     1      -4.164   0.110  24.455  0.00  0.00    +0.339 C 
ATOM     12  O   UNL     1      -4.880  -0.224  24.691  0.00  0.00    -0.249 OA
ATOM     13  N   UNL     1      -3.514  -0.373  24.302  0.00  0.00    -0.189 NA
BRANCH  13  14
ATOM     14  C   UNL     1      -3.580  -1.192  24.384  0.00  0.00    +0.097 C 
ATOM     15  C   UNL     1      -4.014  -1.628  23.835  0.00  0.00    +0.023 C 
ATOM     16  C   UNL     1      -3.212  -1.574  25.015  0.00  0.00    +0.023 C 
ENDBRANCH  13  14
ENDBRANCH   9  10
BRANCH  17  18
ATOM     18  C   UNL     1      -3.312   2.364  25.109  0.00  0.00    +0.246 C 
ATOM     19  O   UNL     1      -2.946   2.317  25.848  0.00  0.00    -0.273 OA
ATOM     20  N   UNL     1      -3.969   2.851  25.005  0.00  0.00    -0.268 N 
ATOM     21  C   UNL     1      -4.334   2.898  24.267  0.00  0.00    +0.115 C 
BRANCH  20  22
ATOM     22  C   UNL     1      -4.260   3.292  25.638  0.00  0.00    +0.183 C 
BRANCH  22  23
ATOM     23  C   UNL     1      -5.016   3.619  25.600  0.00  0.00    +0.281 C 
ATOM     24  N   UNL     1      -5.648   3.242  25.973  0.00  0.00    -0.086 NA
ATOM     25  O   UNL     1      -5.142   4.324  25.189  0.00  0.00    -0.270 OA
ENDBRANCH  22  23
ENDBRANCH  20  22
ENDBRANCH  17  18
BRANCH   4   3
ATOM      3  C   UNL     1      -1.927   3.205  24.837  0.00  0.00    +0.143 C 
BRANCH   3   2
ATOM      1  C   UNL     1      -1.323   4.476  25.081  0.00  0.00    +0.070 C 
ATOM      2  S   UNL     1      -1.310   3.654  25.151  0.00  0.00    -0.130 S 
ENDBRANCH   3   2
ENDBRANCH   4   3
TORSDOF 7
ENDMDL
MODEL 3
REMARK VINA RESULT:      -7.9      1.271      3.524
REMARK  Name = 
REMARK  7 active torsions:
REMARK  status: ('A' for Active; 'I' for Inactive)
REMARK    1  A    between atoms: S_2  and  C_3
REMARK    2  A    between atoms: C_3  and  C_4
REMARK    3  A    between atoms: C_9  and  N_10
REMARK    4  A    between atoms: N_13  and  C_14
REMARK    5  A    between atoms: C_17  and  C_18
REMARK    6  A    between atoms: N_20  and  C_22
REMARK    7  A    between atoms: C_22  and  C_23
REMARK                            x       y       z     vdW  Elec       q    Type
REMARK                         _______ _______ _______ _____ _____    ______ ____
ROOT
ATOM      4  C   UNL     1      -4.319   2.188  24.348  0.00  0.00    +0.237 C 
ATOM      5  O   UNL     1      -4.634   2.909  24.099  0.00  0.00    -0.274 OA
ATOM      6  N   UNL     1      -3.539   1.993  24.160  0.00  0.00    -0.271 N 
ATOM      7  C   UNL     1      -3.011   2.459  23.730  0.00  0.00    +0.096 C 
ATOM      8  C   UNL     1      -2.297   2.050  23.675  0.00  0.00    +0.045 C 
ATOM      9  C   UNL     1      -2.382   1.331  24.070  0.00  0.00    +0.126 C 
ATOM     17  C   UNL     1      -3.150   1.296  24.370  0.00  0.00    +0.172 C 
ENDROOT
BRANCH   9  10
ATOM     10  N   UNL     1      -1.803   0.751  24.152  0.00  0.00    -0.187 NA
ATOM     11  C   UNL     1      -1.038   0.961  24.380  0.00  0.00    +0.339 C 
ATOM     12  O   UNL     1      -0.458   0.380  24.462  0.00  0.00    -0.249 OA
ATOM     13  N   UNL     1      -0.854   1.751  24.527  0.00  0.00    -0.189 NA
BRANCH  13  14
ATOM     14  C   UNL     1      -0.089   1.961  24.755  0.00  0.00    +0.097 C 
ATOM     15  C   UNL     1       0.522   1.959  24.202  0.00  0.00    +0.023 C 
ATOM     16  C   UNL     1       0.063   2.174  25.537  0.00  0.00    +0.023 C 
ENDBRANCH  13  14
ENDBRANCH   9  10
BRANCH  17  18
ATOM     18  C   UNL     1      -3.472   0.672  24.804  0.00  0.00    +0.246 C 
ATOM     19  O   UNL     1      -3.607   0.759  25.615  0.00  0.00    -0.273 OA
ATOM     20  N   UNL     1      -3.659  -0.038  24.430  0.00  0.00    -0.268 N 
ATOM     21  C   UNL     1      -3.525  -0.126  23.621  0.00  0.00    +0.115 C 
BRANCH  20  22
ATOM     22  C   UNL     1      -3.981  -0.661  24.864  0.00  0.00    +0.183 C 
BRANCH  22  23
ATOM     23  C   UNL     1      -4.017  -1.418  24.536  0.00  0.00    +0.281 C 
ATOM     24  N   UNL     1      -3.535  -2.018  24.833  0.00  0.00    -0.086 NA
ATOM     25  O   UNL     1      -4.534  -1.575  23.913  0.00  0.00    -0.270 OA
ENDBRANCH  22  23
ENDBRANCH  20  22
ENDBRANCH  17  18
BRANCH   4   3
ATOM      3  C   UNL     1      -4.783   1.663  24.784  0.00  0.00    +0.143 C 
BRANCH   3   2
ATOM      1  C   UNL     1      -6.202   1.732  24.924  0.00  0.00    +0.070 C 
ATOM      2  S   UNL     1      -5.448   1.938  25.187  0.00  0.00    -0.130 S 
ENDBRANCH   3   2
ENDBRANCH   4   3
TORSDOF 7
ENDMDL
MODEL 4
REMARK VINA RESULT:      -7.8      1.520      3.886
REMARK  Name = 
REMARK  7 active torsions:
REMARK  status: ('A' for Active; 'I' for Inactive)
REMARK    1  A    between atoms: S_2  and  C_3
REMARK    2  A    between atoms: C_3  and  C_4
REMARK    3  A    between atoms: C_9  and  N_10
REMARK    4  A    between atoms: N_13  and  C_14
REMARK    5  A    between atoms: C_17  and  C_18
REMARK    6  A    between atoms: N_20  and  C_22
REMARK    7  A    between atoms: C_22  and  C_23
REMARK                            x       y       z     vdW  Elec       q    Type
REMARK                         _______ _______ _______ _____ _____    ______ ____
ROOT
ATOM      4  C   UNL     1      -1.471   0.977  23.764  0.00  0.00    +0.237 C 
ATOM      5  O   UNL     1      -1.041   1.457  23.247  0.00  0.00    -0.274 OA
ATOM      6  N   UNL     1      -2.269   1.132  23.903  0.00  0.00    -0.271 N 
ATOM      7  C   UNL     1      -2.711   1.744  23.569  0.00  0.00    +0.096 C 
ATOM      8  C   UNL     1      -3.480   1.692  23.862  0.00  0.00    +0.045 C 
ATOM      9  C   UNL     1      -3.515   1.049  24.377  0.00  0.00    +0.126 C 
ATOM     17  C   UNL     1      -2.766   0.702  24.402  0.00  0.00    +0.172 C 
ENDROOT
BRANCH   9  10
ATOM     10  N   UNL     1      -4.180   0.795  24.793  0.00  0.00    -0.187 NA
ATOM     11  C   UNL     1      -4.695   1.350  25.124  0.00  0.00    +0.339 C 
ATOM     12  O   UNL     1      -5.360   1.097  25.540  0.00  0.00    -0.249 OA
ATOM     13  N   UNL     1      -4.543   2.155  25.038  0.00  0.00    -0.189 NA
BRANCH  13  14
ATOM     14  C   UNL     1      -5.058   2.710  25.368  0.00  0.00    +0.097 C 
ATOM     15  C   UNL     1      -5.867   2.661  25.220  0.00  0.00    +0.023 C 
ATOM     16  C   UNL     1      -4.762   3.312  25.847  0.00  0.00    +0.023 C 
ENDBRANCH  13  14
ENDBRANCH   9  10
BRANCH  17  18
ATOM     18  C   UNL     1      -2.553   0.042  24.849  0.00  0.00    +0.246 C 
ATOM     19  O   UNL     1      -2.067   0.131  25.511  0.00  0.00    -0.273 OA
ATOM     20  N   UNL     1      -2.825  -0.706  24.636  0.00  0.00    -0.268 N 
ATOM     21  C   UNL     1      -3.311  -0.796  23.975  0.00  0.00    +0.115 C 
BRANCH  20  22
ATOM     22  C   UNL     1      -2.612  -1.366  25.083  0.00  0.00    +0.183 C 
BRANCH  22  23
ATOM     23  C   UNL     1      -2.919  -2.108  24.896  0.00  0.00    +0.281 C 
ATOM     24  N   UNL     1      -3.553  -2.412  25.328  0.00  0.00    -0.086 NA
ATOM     25  O   UNL     1      -2.593  -2.548  24.278  0.00  0.00    -0.270 OA
ENDBRANCH  22  23
ENDBRANCH  20  22
ENDBRANCH  17  18
BRANCH   4   3
ATOM      3  C   UNL     1      -1.101   0.342  24.139  0.00  0.00    +0.143 C 
BRANCH   3   2
ATOM      1  C   UNL     1       0.125  -0.262  23.726  0.00  0.00    +0.070 C 
ATOM      2  S   UNL     1      -0.278   0.303  24.172  0.00  0.00    -0.130 S 
ENDBRANCH   3   2
ENDBRANCH   4   3
TORSDOF 7
ENDMDL
MODEL 5
REMARK VINA RESULT:      -7.7      1.650      3.358
REMARK  Name = 
REMARK  7 active torsions:
REMARK  status: ('A' for Active; 'I' for Inactive)
REMARK    1  A    between atoms: S_2  and  C_3
REMARK    2  A    between atoms: C_3  and  C_4
REMARK    3  A    between atoms: C_9  and  N_10
REMARK    4  A    between atoms: N_13  and  C_14
REMARK    5  A    between atoms: C_17  and  C_18
REMARK    6  A    between atoms: N_20  and  C_22
REMARK    7  A    between atoms: C_22  and  C_23
REMARK                            x       y       z     vdW  Elec       q    Type
REMARK                         _______ _______ _______ _____ _____    ______ ____
ROOT
ATOM      4  C   UNL     1      -2.332  -0.667  24.705  0.00  0.00    +0.237 C 
ATOM      5  O   UNL     1      -2.553  -1.447  24.550  0.00  0.00    -0.274 OA
ATOM      6  N   UNL     1      -2.858  -0.051  24.548  0.00  0.00    -0.271 N 
ATOM      7  C   UNL     1      -3.619  -0.129  24.238  0.00  0.00    +0.096 C 
ATOM      8  C   UNL     1      -3.946   0.626  24.172  0.00  0.00    +0.045 C 
ATOM      9  C   UNL     1      -3.387   1.171  24.441  0.00  0.00    +0.126 C 
ATOM     17  C   UNL     1      -2.715   0.752  24.673  0.00  0.00    +0.172 C 
ENDROOT
BRANCH   9  10
ATOM     10  N   UNL     1      -3.483   1.989  24.473  0.00  0.00    -0.187 NA
ATOM     11  C   UNL     1      -4.184   2.310  24.768  0.00  0.00    +0.339 C 
ATOM     12  O   UNL     1      -4.280   3.128  24.800  0.00  0.00    -0.249 OA
ATOM     13  N   UNL     1      -4.787   1.813  25.031  0.00  0.00    -0.189 NA
BRANCH  13  14
ATOM     14  C   UNL     1      -5.487   2.134  25.326  0.00  0.00    +0.097 C 
ATOM     15  C   UNL     1      -5.470   2.621  25.992  0.00  0.00    +0.023 C 
ATOM     16  C   UNL     1      -6.205   1.968  24.956  0.00  0.00    +0.023 C 
ENDBRANCH  13  14
ENDBRANCH   9  10
BRANCH  17  18
ATOM     18  C   UNL     1      -2.021   1.080  24.977  0.00  0.00    +0.246 C 
ATOM     19  O   UNL     1      -1.841   0.993  25.779  0.00  0.00    -0.273 OA
ATOM     20  N   UNL     1      -1.508   1.494  24.482  0.00  0.00    -0.268 N 
ATOM     21  C   UNL     1      -1.689   1.580  23.682  0.00  0.00    +0.115 C 
BRANCH  20  22
ATOM     22  C   UNL     1      -0.816   1.821  24.786  0.00  0.00    +0.183 C 
BRANCH  22  23
ATOM     23  C   UNL     1      -0.328   2.279  24.303  0.00  0.00    +0.281 C 
ATOM     24  N   UNL     1      -0.448   3.093  24.249  0.00  0.00    -0.086 NA
ATOM     25  O   UNL     1       0.281   1.923  23.874  0.00  0.00    -0.270 OA
ENDBRANCH  22  23
ENDBRANCH  20  22
ENDBRANCH  17  18
BRANCH   4   3
ATOM      3  C   UNL     1      -1.586  -0.504  25.016  0.00  0.00    +0.143 C 
BRANCH   3   2
ATOM      1  C   UNL     1      -0.480  -1.408  24.995  0.00  0.00    +0.070 C 
ATOM      2  S   UNL     1      -1.147  -1.104  25.373  0.00  0.00    -0.130 S 
ENDBRANCH   3   2
ENDBRANCH   4   3
TORSDOF 7
ENDMDL
MODEL 6
REMARK VINA RESULT:      -7.7      2.293      3.674
REMARK  Name = 
REMARK  7 active torsions:
REMARK  status: ('A' for Active; 'I' for Inactive)
REMARK    1  A    between atoms: S_2  and  C_3
REMARK    2  A    between atoms: C_3  and  C_4
REMARK    3  A    between atoms: C_9  and  N_10
REMARK    4  A    between atoms: N_13  and  C_14
REMARK    5  A    between atoms: C_17  and  C_18
REMARK    6  A    between atoms: N_20  and  C_22
REMARK    7  A    between atoms: C_22  and  C_23
REMARK                            x       y       z     vdW  Elec       q    Type
REMARK                         _______ _______ _______ _____ _____    ______ ____
ROOT
ATOM      4  C   UNL     1      -1.680   1.381  24.150  0.00  0.00    +0.237 C 
ATOM      5  O   UNL     1      -1.543   0.717  23.679  0.00  0.00    -0.274 OA
ATOM      6  N   UNL     1      -2.439   1.699  24.203  0.00  0.00    -0.271 N 
ATOM      7  C   UNL     1      -3.113   1.416  23.818  0.00  0.00    +0.096 C 
ATOM      8  C   UNL     1      -3.747   1.900  24.027  0.00  0.00    +0.045 C 
ATOM      9  C   UNL     1      -3.468   2.482  24.540  0.00  0.00    +0.126 C 
ATOM     17  C   UNL     1      -2.659   2.358  24.649  0.00  0.00    +0.172 C 
ENDROOT
BRANCH   9  10
ATOM     10  N   UNL     1      -3.916   3.082  24.885  0.00  0.00    -0.187 NA
ATOM     11  C   UNL     1      -4.680   2.922  25.155  0.00  0.00    +0.339 C 
ATOM     12  O   UNL     1      -5.129   3.522  25.499  0.00  0.00    -0.249 OA
ATOM     13  N   UNL     1      -4.993   2.163  25.079  0.00  0.00    -0.189 NA
BRANCH  13  14
ATOM     14  C   UNL     1      -5.757   2.003  25.349  0.00  0.00    +0.097 C 
ATOM     15  C   UNL     1      -6.376   1.922  24.811  0.00  0.00    +0.023 C 
ATOM     16  C   UNL     1      -5.900   1.925  26.158  0.00  0.00    +0.023 C 
ENDBRANCH  13  14
ENDBRANCH   9  10
BRANCH  17  18
ATOM     18  C   UNL     1      -2.158   2.813  25.121  0.00  0.00    +0.246 C 
ATOM     19  O   UNL     1      -1.871   2.507  25.833  0.00  0.00    -0.273 OA
ATOM     20  N   UNL     1      -1.945   3.573  24.884  0.00  0.00    -0.268 N 
ATOM     21  C   UNL     1      -2.231   3.879  24.173  0.00  0.00    +0.115 C 
BRANCH  20  22
ATOM     22  C   UNL     1      -1.444   4.028  25.356  0.00  0.00    +0.183 C 
BRANCH  22  23
ATOM     23  C   UNL     1      -1.310   4.821  25.172  0.00  0.00    +0.281 C 
ATOM     24  N   UNL     1      -0.643   5.035  24.736  0.00  0.00    -0.086 NA
ATOM     25  O   UNL     1      -1.842   5.400  25.423  0.00  0.00    -0.270 OA
ENDBRANCH  22  23
ENDBRANCH  20  22
ENDBRANCH  17  18
BRANCH   4   3
ATOM      3  C   UNL     1      -1.058   1.725  24.569  0.00  0.00    +0.143 C 
BRANCH   3   2
ATOM      1  C   UNL     1       0.338   1.555  24.318  0.00  0.00    +0.070 C 
ATOM      2  S   UNL     1      -0.357   1.306  24.686  0.00  0.00    -0.130 S 
ENDBRANCH   3   2
ENDBRANCH   4   3
TORSDOF 7
ENDMDL
MODEL 7
REMARK VINA RESULT:      -7.7      1.842      4.536
REMARK  Name = 
REMARK  7 active torsions:
REMARK  status: ('A' for Active; 'I' for Inactive)
REMARK    1  A    between atoms: S_2  and  C_3
REMARK    2  A    between atoms: C_3  and  C_4
REMARK    3  A    between atoms: C_9  and  N_10
REMARK    4  A    between atoms: N_13  and  C_14
REMARK    5  A    between atoms: C_17  and  C_18
REMARK    6  A    between atoms: N_20  and  C_22
REMARK    7  A    between atoms: C_22  and  C_23
REMARK                            x       y       z     vdW  Elec       q    Type
REMARK                         _______ _______ _______ _____ _____    ______ ____
ROOT
ATOM      4  C   UNL     1      -0.701   0.341  24.261  0.00  0.00    +0.237 C 
ATOM      5  O   UNL     1       0.069   0.319  23.964  0.00  0.00    -0.274 OA
ATOM      6  N   UNL     1      -1.136   1.041  24.226  0.00  0.00    -0.271 N 
ATOM      7  C   UNL     1      -0.877   1.759  23.912  0.00  0.00    +0.096 C 
ATOM      8  C   UNL     1      -1.489   2.307  23.991  0.00  0.00    +0.045 C 
ATOM      9  C   UNL     1      -2.126   1.929  24.354  0.00  0.00    +0.126 C 
ATOM     17  C   UNL     1      -1.908   1.146  24.499  0.00  0.00    +0.172 C 
ENDROOT
BRANCH   9  10
ATOM     10  N   UNL     1      -2.852   2.272  24.539  0.00  0.00    -0.187 NA
ATOM     11  C   UNL     1      -2.877   3.003  24.923  0.00  0.00    +0.339 C 
ATOM     12  O   UNL     1      -3.603   3.346  25.108  0.00  0.00    -0.249 OA
ATOM     13  N   UNL     1      -2.176   3.389  25.120  0.00  0.00    -0.189 NA
BRANCH  13  14
ATOM     14  C   UNL     1      -2.201   4.119  25.503  0.00  0.00    +0.097 C 
ATOM     15  C   UNL     1      -1.858   4.782  25.151  0.00  0.00    +0.023 C 
ATOM     16  C   UNL     1      -2.568   4.187  26.238  0.00  0.00    +0.023 C 
ENDBRANCH  13  14
ENDBRANCH   9  10
BRANCH  17  18
ATOM     18  C   UNL     1      -2.380   0.571  24.855  0.00  0.00    +0.246 C 
ATOM     19  O   UNL     1      -2.217   0.323  25.626  0.00  0.00    -0.273 OA
ATOM     20  N   UNL     1      -3.014   0.243  24.442  0.00  0.00    -0.268 N 
ATOM     21  C   UNL     1      -3.176   0.490  23.672  0.00  0.00    +0.115 C 
BRANCH  20  22
ATOM     22  C   UNL     1      -3.485  -0.333  24.798  0.00  0.00    +0.183 C 
BRANCH  22  23
ATOM     23  C   UNL     1      -4.199  -0.555  24.450  0.00  0.00    +0.281 C 
ATOM     24  N   UNL     1      -4.234  -1.232  23.979  0.00  0.00    -0.086 NA
ATOM     25  O   UNL     1      -4.878  -0.103  24.572  0.00  0.00    -0.270 OA
ENDBRANCH  22  23
ENDBRANCH  20  22
ENDBRANCH  17  18
BRANCH   4   3
ATOM      3  C   UNL     1      -1.035  -0.337  24.592  0.00  0.00    +0.143 C 
BRANCH   3   2
ATOM      1  C   UNL     1      -0.500  -1.490  25.244  0.00  0.00    +0.070 C 
ATOM      2  S   UNL     1      -0.633  -1.056  24.555  0.00  0.00    -0.130 S 
ENDBRANCH   3   2
ENDBRANCH   4   3
TORSDOF 7
ENDMDL
