MODEL 1
REMARK VINA RESULT:     -14.0      0.000      0.000
REMARK  Name = 
REMARK  6 active torsions:
REMARK  status: ('A' for Active; 'I' for Inactive)
REMARK    1  A    between atoms: C_2  and  C_5
REMARK    2  A    between atoms: C_8  and  C_9
REMARK    3  A    between atoms: C_9  and  N_10
REMARK    4  A    between atoms: C_14  and  C_15
REMARK    5  A    between atoms: C_17  and  C_20
REMARK    6  A    between atoms: C_24  and  N_26
REMARK                            x       y       z     vdW  Elec       q    Type
REMARK                         _______ _______ _______ _____ _____    ______ ____
ROOT
ATOM     15  C   UNL     1      -4.447   2.565  24.808  0.00  0.00    +0.251 A 
ATOM     16  N   UNL     1      -3.715   2.702  25.163  0.00  0.00    -0.190 NA
ATOM     17  C   UNL     1      -3.367   3.351  24.792  0.00  0.00    +0.203 A 
ATOM     18  N   UNL     1      -3.885   3.616  24.206  0.00  0.00    -0.056 NA
ATOM     19  O   UNL     1      -4.552   3.130  24.216  0.00  0.00    -0.336 OA
ENDROOT
BRANCH  17  20
ATOM     20  C   UNL     1      -2.632   3.678  24.973  0.00  0.00    +0.043 A 
ATOM     21  C   UNL     1      -2.562   4.491  25.095  0.00  0.00    +0.024 A 
ATOM     22  C   UNL     1      -1.828   4.820  25.276  0.00  0.00    +0.100 A 
ATOM     23  N   UNL     1      -1.163   4.335  25.335  0.00  0.00    -0.229 NA
ATOM     24  C   UNL     1      -1.232   3.522  25.214  0.00  0.00    +0.132 A 
ATOM     25  C   UNL     1      -1.967   3.194  25.033  0.00  0.00    +0.037 A 
BRANCH  24  26
ATOM     26  N   UNL     1      -0.567   3.038  25.273  0.00  0.00    -0.288 N 
ATOM     27  C   UNL     1      -0.202   2.754  24.591  0.00  0.00    +0.124 C 
ATOM     28  C   UNL     1       0.463   2.269  24.650  0.00  0.00    +0.164 C 
ATOM     29  O   UNL     1       0.763   2.069  25.392  0.00  0.00    -0.350 OA
ATOM     30  C   UNL     1       0.397   2.353  26.075  0.00  0.00    +0.164 C 
ATOM     31  C   UNL     1      -0.268   2.838  26.016  0.00  0.00    +0.124 C 
ENDBRANCH  24  26
ENDBRANCH  17  20
BRANCH  15  14
ATOM     10  N   UNL     1      -4.878   1.161  24.875  0.00  0.00    -0.263 NA
ATOM     11  C   UNL     1      -5.544   0.769  25.161  0.00  0.00    +0.073 C 
ATOM     12  C   UNL     1      -6.059   1.335  25.472  0.00  0.00    +0.019 C 
ATOM     13  C   UNL     1      -5.710   2.076  25.377  0.00  0.00    +0.027 C 
ATOM     14  C   UNL     1      -4.980   1.969  25.008  0.00  0.00    +0.138 C 
BRANCH  10   9
ATOM      9  C   UNL     1      -4.224   0.808  24.519  0.00  0.00    +0.099 C 
BRANCH   9   8
ATOM      5  C   UNL     1      -3.859  -1.630  24.738  0.00  0.00    +0.071 A 
ATOM      6  C   UNL     1      -4.213  -1.325  24.058  0.00  0.00    +0.004 A 
ATOM      7  C   UNL     1      -4.334  -0.513  23.984  0.00  0.00    -0.003 A 
ATOM      8  C   UNL     1      -4.102  -0.005  24.592  0.00  0.00    -0.006 A 
ATOM     32  C   UNL     1      -3.749  -0.310  25.272  0.00  0.00    -0.003 A 
ATOM     33  C   UNL     1      -3.627  -1.123  25.345  0.00  0.00    +0.004 A 
BRANCH   5   2
ATOM      1  F   UNL     1      -3.617  -3.256  24.884  0.00  0.00    -0.166 F 
ATOM      2  C   UNL     1      -3.738  -2.443  24.810  0.00  0.00    +0.419 C 
ATOM      3  F   UNL     1      -3.661  -2.358  25.628  0.00  0.00    -0.166 F 
ATOM      4  F   UNL     1      -3.815  -2.528  23.994  0.00  0.00    -0.166 F 
ENDBRANCH   5   2
ENDBRANCH   9   8
ENDBRANCH  10   9
ENDBRANCH  15  14
TORSDOF 6
ENDMDL
MODEL 2
REMARK VINA RESULT:     -13.4      1.538      3.553
REMARK  Name = 
REMARK  6 active torsions:
REMARK  status: ('A' for Active; 'I' for Inactive)
REMARK    1  A    between atoms: C_2  and  C_5
REMARK    2  A    between atoms: C_8  and  C_9
REMARK    3  A    between atoms: C_9  and  N_10
REMARK    4  A    between atoms: C_14  and  C_15
REMARK    5  A    between atoms: C_17  and  C_20
REMARK    6  A    between atoms: C_24  and  N_26
REMARK                            x       y       z     vdW  Elec       q    Type
REMARK                         _______ _______ _______ _____ _____    ______ ____
ROOT
ATOM     15  C   UNL     1      -0.410   1.207  24.799  0.00  0.00    +0.251 A 
ATOM     16  N   UNL     1      -0.926   1.815  24.591  0.00  0.00    -0.190 NA
ATOM     17  C   UNL     1      -0.890   2.394  25.177  0.00  0.00    +0.203 A 
ATOM     18  N   UNL     1      -0.351   2.143  25.749  0.00  0.00    -0.056 NA
ATOM     19  O   UNL     1      -0.054   1.410  25.515  0.00  0.00    -0.336 OA
ENDROOT
BRANCH  17  20
ATOM     20  C   UNL     1      -1.318   3.099  25.190  0.00  0.00    +0.043 A 
ATOM     21  C   UNL     1      -0.920   3.822  25.191  0.00  0.00    +0.024 A 
ATOM     22  C   UNL     1      -1.346   4.528  25.205  0.00  0.00    +0.100 A 
ATOM     23  N   UNL     1      -2.170   4.511  25.218  0.00  0.00    -0.229 NA
ATOM     24  C   UNL     1      -2.569   3.789  25.217  0.00  0.00    +0.132 A 
ATOM     25  C   UNL     1      -2.142   3.083  25.203  0.00  0.00    +0.037 A 
BRANCH  24  26
ATOM     26  N   UNL     1      -3.394   3.773  25.230  0.00  0.00    -0.288 N 
ATOM     27  C   UNL     1      -3.817   3.781  24.522  0.00  0.00    +0.124 C 
ATOM     28  C   UNL     1      -4.641   3.764  24.535  0.00  0.00    +0.164 C 
ATOM     29  O   UNL     1      -5.043   3.740  25.255  0.00  0.00    -0.350 OA
ATOM     30  C   UNL     1      -4.619   3.732  25.963  0.00  0.00    +0.164 C 
ATOM     31  C   UNL     1      -3.794   3.748  25.951  0.00  0.00    +0.124 C 
ENDBRANCH  24  26
ENDBRANCH  17  20
BRANCH  15  14
ATOM     10  N   UNL     1      -0.634  -0.214  24.494  0.00  0.00    -0.263 NA
ATOM     11  C   UNL     1      -0.334  -0.745  23.939  0.00  0.00    +0.073 C 
ATOM     12  C   UNL     1       0.214  -0.342  23.471  0.00  0.00    +0.019 C 
ATOM     13  C   UNL     1       0.252   0.438  23.736  0.00  0.00    +0.027 C 
ATOM     14  C   UNL     1      -0.272   0.518  24.369  0.00  0.00    +0.138 C 
BRANCH  10   9
ATOM      9  C   UNL     1      -1.197  -0.383  25.071  0.00  0.00    +0.099 C 
BRANCH   9   8
ATOM      5  C   UNL     1      -2.895  -2.138  24.671  0.00  0.00    +0.071 A 
ATOM      6  C   UNL     1      -3.099  -1.342  24.599  0.00  0.00    +0.004 A 
ATOM      7  C   UNL     1      -2.534  -0.757  24.732  0.00  0.00    -0.003 A 
ATOM      8  C   UNL     1      -1.762  -0.968  24.938  0.00  0.00    -0.006 A 
ATOM     32  C   UNL     1      -1.558  -1.764  25.011  0.00  0.00    -0.003 A 
ATOM     33  C   UNL     1      -2.125  -2.349  24.877  0.00  0.00    +0.004 A 
BRANCH   5   2
ATOM      1  F   UNL     1      -4.029  -3.307  24.403  0.00  0.00    -0.166 F 
ATOM      2  C   UNL     1      -3.462  -2.723  24.538  0.00  0.00    +0.419 C 
ATOM      3  F   UNL     1      -3.453  -2.546  23.731  0.00  0.00    -0.166 F 
ATOM      4  F   UNL     1      -3.471  -2.899  25.343  0.00  0.00    -0.166 F 
ENDBRANCH   5   2
ENDBRANCH   9   8
ENDBRANCH  10   9
ENDBRANCH  15  14
TORSDOF 6
ENDMDL
MODEL 3
REMARK VINA RESULT:     -13.2      3.020      4.899
REMARK  Name = 
REMARK  6 active torsions:
REMARK  status: ('A' for Active; 'I' for Inactive)
REMARK    1  A    between atoms: C_2  and  C_5
REMARK    2  A    between atoms: C_8  and  C_9
REMARK    3  A    between atoms: C_9  and  N_10
REMARK    4  A    between atoms: C_14  and  C_15
REMARK    5  A    between atoms: C_17  and  C_20
REMARK    6  A    between atoms: C_24  and  N_26
REMARK                            x       y       z     vdW  Elec       q    Type
REMARK                         _______ _______ _______ _____ _____    ______ ____
ROOT
ATOM     15  C   UNL     1      -4.491   1.303  25.043  0.00  0.00    +0.251 A 
ATOM     16  N   UNL     1      -3.986   0.798  24.631  0.00  0.00    -0.190 NA
ATOM     17  C   UNL     1      -4.041   0.048  24.970  0.00  0.00    +0.203 A 
ATOM     18  N   UNL     1      -4.582   0.089  25.592  0.00  0.00    -0.056 NA
ATOM     19  O   UNL     1      -4.860   0.864  25.637  0.00  0.00    -0.336 OA
ENDROOT
BRANCH  17  20
ATOM     20  C   UNL     1      -3.629  -0.625  24.730  0.00  0.00    +0.043 A 
ATOM     21  C   UNL     1      -4.038  -1.265  24.407  0.00  0.00    +0.024 A 
ATOM     22  C   UNL     1      -3.627  -1.939  24.167  0.00  0.00    +0.100 A 
ATOM     23  N   UNL     1      -2.807  -1.973  24.249  0.00  0.00    -0.229 NA
ATOM     24  C   UNL     1      -2.398  -1.333  24.571  0.00  0.00    +0.132 A 
ATOM     25  C   UNL     1      -2.809  -0.659  24.812  0.00  0.00    +0.037 A 
BRANCH  24  26
ATOM     26  N   UNL     1      -1.578  -1.367  24.653  0.00  0.00    -0.288 N 
ATOM     27  C   UNL     1      -1.094  -0.933  24.145  0.00  0.00    +0.124 C 
ATOM     28  C   UNL     1      -0.274  -0.967  24.227  0.00  0.00    +0.164 C 
ATOM     29  O   UNL     1       0.063  -1.435  24.818  0.00  0.00    -0.350 OA
ATOM     30  C   UNL     1      -0.421  -1.869  25.326  0.00  0.00    +0.164 C 
ATOM     31  C   UNL     1      -1.241  -1.835  25.244  0.00  0.00    +0.124 C 
ENDBRANCH  24  26
ENDBRANCH  17  20
BRANCH  15  14
ATOM     10  N   UNL     1      -4.075   2.713  25.051  0.00  0.00    -0.263 NA
ATOM     11  C   UNL     1      -4.418   3.423  24.808  0.00  0.00    +0.073 C 
ATOM     12  C   UNL     1      -5.163   3.253  24.497  0.00  0.00    +0.019 C 
ATOM     13  C   UNL     1      -5.281   2.438  24.547  0.00  0.00    +0.027 C 
ATOM     14  C   UNL     1      -4.609   2.104  24.889  0.00  0.00    +0.138 C 
BRANCH  10   9
ATOM      9  C   UNL     1      -3.331   2.626  25.394  0.00  0.00    +0.099 C 
BRANCH   9   8
ATOM      5  C   UNL     1      -1.641   4.419  25.158  0.00  0.00    +0.071 A 
ATOM      6  C   UNL     1      -1.651   3.788  24.627  0.00  0.00    +0.004 A 
ATOM      7  C   UNL     1      -2.214   3.191  24.705  0.00  0.00    -0.003 A 
ATOM      8  C   UNL     1      -2.768   3.224  25.316  0.00  0.00    -0.006 A 
ATOM     32  C   UNL     1      -2.759   3.855  25.848  0.00  0.00    -0.003 A 
ATOM     33  C   UNL     1      -2.195   4.452  25.768  0.00  0.00    +0.004 A 
BRANCH   5   2
ATOM      1  F   UNL     1      -0.515   5.614  25.000  0.00  0.00    -0.166 F 
ATOM      2  C   UNL     1      -1.078   5.016  25.079  0.00  0.00    +0.419 C 
ATOM      3  F   UNL     1      -1.681   5.576  25.013  0.00  0.00    -0.166 F 
ATOM      4  F   UNL     1      -0.475   4.458  25.145  0.00  0.00    -0.166 F 
ENDBRANCH   5   2
ENDBRANCH   9   8
ENDBRANCH  10   9
ENDBRANCH  15  14
TORSDOF 6
ENDMDL
MODEL 4
REMARK VINA RESULT:     -12.1      2.914      5.142
REMARK  Name = 
REMARK  6 active torsions:
REMARK  status: ('A' for Active; 'I' for Inactive)
REMARK    1  A    between atoms: C_2  and  C_5
REMARK    2  A    between atoms: C_8  and  C_9
REMARK    3  A    between atoms: C_9  and  N_10
REMARK    4  A    between atoms: C_14  and  C_15
REMARK    5  A    between atoms: C_17  and  C_20
REMARK    6  A    between atoms: C_24  and  N_26
REMARK                            x       y       z     vdW  Elec       q    Type
REMARK                         _______ _______ _______ _____ _____    ______ ____
ROOT
ATOM     15  C   UNL     1      -0.954   1.828  24.468  0.00  0.00    +0.251 A 
ATOM     16  N   UNL     1      -1.094   1.126  24.878  0.00  0.00    -0.190 NA
ATOM     17  C   UNL     1      -0.854   0.499  24.401  0.00  0.00    +0.203 A 
ATOM     18  N   UNL     1      -0.565   0.812  23.694  0.00  0.00    -0.056 NA
ATOM     19  O   UNL     1      -0.628   1.634  23.736  0.00  0.00    -0.336 OA
ENDROOT
BRANCH  17  20
ATOM     20  C   UNL     1      -0.894  -0.302  24.594  0.00  0.00    +0.043 A 
ATOM     21  C   UNL     1      -0.204  -0.719  24.772  0.00  0.00    +0.024 A 
ATOM     22  C   UNL     1      -0.243  -1.519  24.965  0.00  0.00    +0.100 A 
ATOM     23  N   UNL     1      -0.973  -1.904  24.981  0.00  0.00    -0.229 NA
ATOM     24  C   UNL     1      -1.663  -1.489  24.803  0.00  0.00    +0.132 A 
ATOM     25  C   UNL     1      -1.624  -0.687  24.610  0.00  0.00    +0.037 A 
BRANCH  24  26
ATOM     26  N   UNL     1      -2.392  -1.874  24.819  0.00  0.00    -0.288 N 
ATOM     27  C   UNL     1      -2.556  -2.468  24.272  0.00  0.00    +0.124 C 
ATOM     28  C   UNL     1      -3.286  -2.853  24.288  0.00  0.00    +0.164 C 
ATOM     29  O   UNL     1      -3.851  -2.644  24.851  0.00  0.00    -0.350 OA
ATOM     30  C   UNL     1      -3.686  -2.049  25.399  0.00  0.00    +0.164 C 
ATOM     31  C   UNL     1      -2.957  -1.664  25.383  0.00  0.00    +0.124 C 
ENDBRANCH  24  26
ENDBRANCH  17  20
BRANCH  15  14
ATOM     10  N   UNL     1      -1.835   2.986  24.683  0.00  0.00    -0.263 NA
ATOM     11  C   UNL     1      -1.744   3.731  25.026  0.00  0.00    +0.073 C 
ATOM     12  C   UNL     1      -0.967   3.795  25.296  0.00  0.00    +0.019 C 
ATOM     13  C   UNL     1      -0.577   3.090  25.119  0.00  0.00    +0.027 C 
ATOM     14  C   UNL     1      -1.113   2.590  24.741  0.00  0.00    +0.138 C 
BRANCH  10   9
ATOM      9  C   UNL     1      -2.524   2.690  24.342  0.00  0.00    +0.099 C 
BRANCH   9   8
ATOM      5  C   UNL     1      -4.734   3.468  25.140  0.00  0.00    +0.071 A 
ATOM      6  C   UNL     1      -4.352   2.846  25.524  0.00  0.00    +0.004 A 
ATOM      7  C   UNL     1      -3.616   2.586  25.258  0.00  0.00    -0.003 A 
ATOM      8  C   UNL     1      -3.260   2.949  24.608  0.00  0.00    -0.006 A 
ATOM     32  C   UNL     1      -3.642   3.572  24.224  0.00  0.00    -0.003 A 
ATOM     33  C   UNL     1      -4.379   3.831  24.490  0.00  0.00    +0.004 A 
BRANCH   5   2
ATOM      1  F   UNL     1      -6.208   3.985  25.672  0.00  0.00    -0.166 F 
ATOM      2  C   UNL     1      -5.471   3.727  25.406  0.00  0.00    +0.419 C 
ATOM      3  F   UNL     1      -5.813   3.024  25.141  0.00  0.00    -0.166 F 
ATOM      4  F   UNL     1      -5.129   4.429  25.671  0.00  0.00    -0.166 F 
ENDBRANCH   5   2
ENDBRANCH   9   8
ENDBRANCH  10   9
ENDBRANCH  15  14
TORSDOF 6
ENDMDL
