MODEL 1
REMARK VINA RESULT:      -9.1      0.000      0.000
REMARK  Name = 
REMARK  11 active torsions:
REMARK  status: ('A' for Active; 'I' for Inactive)
REMARK    1  A    between atoms: C_2  and  C_4
REMARK    2  A    between atoms: C_4  and  C_5
REMARK    3  A    between atoms: C_4  and  N_11
REMARK    4  A    between atoms: C_5  and  C_6
REMARK    5  A    between atoms: C_12  and  C_14
REMARK    6  A    between atoms: C_16  and  N_28
REMARK    7  A    between atoms: C_20  and  C_22
REMARK    8  A    between atoms: C_22  and  O_23
REMARK    9  A    between atoms: O_23  and  C_24
REMARK   10  A    between atoms: C_24  and  C_25
REMARK   11  A    between atoms: C_29  and  C_31
REMARK                            x       y       z     vdW  Elec       q    Type
REMARK                         _______ _______ _______ _____ _____    ______ ____
ROOT
ATOM     14  C   UNL     1      -1.961   1.549  24.681  0.00  0.00    +0.155 C 
ATOM     15  C   UNL     1      -2.214   0.784  24.503  0.00  0.00    +0.051 C 
ATOM     16  C   UNL     1      -1.747   0.135  24.708  0.00  0.00    +0.100 C 
ATOM     17  C   UNL     1      -1.025   0.252  25.092  0.00  0.00    +0.043 C 
ATOM     18  C   UNL     1      -0.772   1.016  25.270  0.00  0.00    +0.096 C 
ATOM     19  N   UNL     1      -1.239   1.665  25.065  0.00  0.00    -0.271 N 
ATOM     20  C   UNL     1      -0.986   2.429  25.244  0.00  0.00    +0.256 C 
ATOM     21  O   UNL     1      -0.265   2.546  25.627  0.00  0.00    -0.272 OA
ENDROOT
BRANCH  14  12
ATOM     11  N   UNL     1      -3.237   2.099  24.352  0.00  0.00    -0.196 NA
ATOM     12  C   UNL     1      -2.428   2.196  24.477  0.00  0.00    +0.260 C 
ATOM     13  O   UNL     1      -2.086   2.943  24.397  0.00  0.00    -0.272 OA
BRANCH  11   4
ATOM      4  C   UNL     1      -3.705   2.747  24.147  0.00  0.00    +0.179 C 
BRANCH   4   2
ATOM      1  N   UNL     1      -3.858   3.790  23.182  0.00  0.00    -0.086 NA
ATOM      2  C   UNL     1      -3.748   2.992  23.361  0.00  0.00    +0.281 C 
ATOM      3  O   UNL     1      -3.681   2.439  22.752  0.00  0.00    -0.270 OA
ENDBRANCH   4   2
BRANCH   4   5
ATOM      5  C   UNL     1      -4.130   3.149  24.728  0.00  0.00    +0.064 C 
BRANCH   5   6
ATOM      6  C   UNL     1      -4.809   2.812  25.052  0.00  0.00    +0.010 A 
ATOM      7  C   UNL     1      -5.267   2.218  24.708  0.00  0.00    +0.003 A 
ATOM      8  C   UNL     1      -5.892   2.048  25.222  0.00  0.00    +0.007 A 
ATOM      9  C   UNL     1      -5.818   2.537  25.882  0.00  0.00    +0.035 A 
ATOM     10  S   UNL     1      -5.149   3.009  25.777  0.00  0.00    -0.091 S 
ENDBRANCH   5   6
ENDBRANCH   4   5
ENDBRANCH  11   4
ENDBRANCH  14  12
BRANCH  16  28
ATOM     28  N   UNL     1      -2.000  -0.629  24.529  0.00  0.00    -0.202 NA
ATOM     29  C   UNL     1      -2.412  -1.069  25.093  0.00  0.00    +0.284 C 
ATOM     30  O   UNL     1      -2.571  -0.745  25.834  0.00  0.00    -0.267 OA
BRANCH  29  31
ATOM     31  C   UNL     1      -2.666  -1.833  24.915  0.00  0.00    +0.155 A 
ATOM     32  C   UNL     1      -3.438  -2.063  25.090  0.00  0.00    +0.123 A 
ATOM     33  N   UNL     1      -3.691  -2.828  24.912  0.00  0.00    -0.239 NA
ATOM     34  C   UNL     1      -3.171  -3.363  24.559  0.00  0.00    +0.120 A 
ATOM     35  C   UNL     1      -2.399  -3.133  24.384  0.00  0.00    +0.120 A 
ATOM     36  N   UNL     1      -2.146  -2.369  24.562  0.00  0.00    -0.236 NA
ENDBRANCH  29  31
ENDBRANCH  16  28
BRANCH  20  22
ATOM     22  C   UNL     1      -1.453   3.077  25.039  0.00  0.00    +0.228 C 
BRANCH  22  23
ATOM     23  O   UNL     1      -1.100   3.803  24.867  0.00  0.00    -0.333 OA
BRANCH  23  24
ATOM     24  C   UNL     1      -1.195   4.440  25.381  0.00  0.00    +0.257 C 
BRANCH  24  25
ATOM     25  C   UNL     1      -1.125   5.212  25.099  0.00  0.00    +0.394 C 
ATOM     26  O   UNL     1      -1.738   5.751  25.218  0.00  0.00    -0.243 OA
ATOM     27  O   UNL     1      -0.443   5.446  24.700  0.00  0.00    -0.243 OA
ENDBRANCH  24  25
ENDBRANCH  23  24
ENDBRANCH  22  23
ENDBRANCH  20  22
TORSDOF 11
ENDMDL
MODEL 2
REMARK VINA RESULT:      -8.8      2.115      4.720
REMARK  Name = 
REMARK  11 active torsions:
REMARK  status: ('A' for Active; 'I' for Inactive)
REMARK    1  A    between atoms: C_2  and  C_4
REMARK    2  A    between atoms: C_4  and  C_5
REMARK    3  A    between atoms: C_4  and  N_11
REMARK    4  A    between atoms: C_5  and  C_6
REMARK    5  A    between atoms: C_12  and  C_14
REMARK    6  A    between atoms: C_16  and  N_28
REMARK    7  A    between atoms: C_20  and  C_22
REMARK    8  A    between atoms: C_22  and  O_23
REMARK    9  A    between atoms: O_23  and  C_24
REMARK   10  A    between atoms: C_24  and  C_25
REMARK   11  A    between atoms: C_29  and  C_31
REMARK                            x       y       z     vdW  Elec       q    Type
REMARK                         _______ _______ _______ _____ _____    ______ ____
ROOT
ATOM     14  C   UNL     1      -1.546   1.279  24.590  0.00  0.00    +0.155 C 
ATOM     15  C   UNL     1      -2.267   1.504  24.922  0.00  0.00    +0.051 C 
ATOM     16  C   UNL     1      -2.479   2.301  24.952  0.00  0.00    +0.100 C 
ATOM     17  C   UNL     1      -1.968   2.875  24.650  0.00  0.00    +0.043 C 
ATOM     18  C   UNL     1      -1.246   2.651  24.318  0.00  0.00    +0.096 C 
ATOM     19  N   UNL     1      -1.035   1.854  24.288  0.00  0.00    -0.271 N 
ATOM     20  C   UNL     1      -0.314   1.630  23.956  0.00  0.00    +0.256 C 
ATOM     21  O   UNL     1       0.197   2.203  23.654  0.00  0.00    -0.272 OA
ENDROOT
BRANCH  14  12
ATOM     11  N   UNL     1      -1.763  -0.074  24.992  0.00  0.00    -0.196 NA
ATOM     12  C   UNL     1      -1.335   0.483  24.560  0.00  0.00    +0.260 C 
ATOM     13  O   UNL     1      -0.695   0.243  24.097  0.00  0.00    -0.272 OA
BRANCH  11   4
ATOM      4  C   UNL     1      -1.552  -0.871  24.962  0.00  0.00    +0.179 C 
BRANCH   4   2
ATOM      1  N   UNL     1      -0.472  -1.724  25.349  0.00  0.00    -0.086 NA
ATOM      2  C   UNL     1      -1.070  -1.192  25.550  0.00  0.00    +0.281 C 
ATOM      3  O   UNL     1      -1.185  -0.981  26.339  0.00  0.00    -0.270 OA
ENDBRANCH   4   2
BRANCH   4   5
ATOM      5  C   UNL     1      -1.822  -1.347  24.346  0.00  0.00    +0.064 C 
BRANCH   5   6
ATOM      6  C   UNL     1      -2.564  -1.706  24.396  0.00  0.00    +0.010 A 
ATOM      7  C   UNL     1      -3.288  -1.349  24.227  0.00  0.00    +0.003 A 
ATOM      8  C   UNL     1      -3.883  -1.908  24.350  0.00  0.00    +0.007 A 
ATOM      9  C   UNL     1      -3.525  -2.610  24.595  0.00  0.00    +0.035 A 
ATOM     10  S   UNL     1      -2.710  -2.485  24.623  0.00  0.00    -0.091 S 
ENDBRANCH   5   6
ENDBRANCH   4   5
ENDBRANCH  11   4
ENDBRANCH  14  12
BRANCH  16  28
ATOM     28  N   UNL     1      -3.200   2.524  25.284  0.00  0.00    -0.202 NA
ATOM     29  C   UNL     1      -3.857   2.642  24.800  0.00  0.00    +0.284 C 
ATOM     30  O   UNL     1      -3.794   2.536  23.985  0.00  0.00    -0.267 OA
BRANCH  29  31
ATOM     31  C   UNL     1      -4.579   2.866  25.131  0.00  0.00    +0.155 A 
ATOM     32  C   UNL     1      -4.708   3.650  25.348  0.00  0.00    +0.123 A 
ATOM     33  N   UNL     1      -5.430   3.874  25.679  0.00  0.00    -0.239 NA
ATOM     34  C   UNL     1      -6.023   3.311  25.793  0.00  0.00    +0.120 A 
ATOM     35  C   UNL     1      -5.894   2.527  25.576  0.00  0.00    +0.120 A 
ATOM     36  N   UNL     1      -5.172   2.303  25.245  0.00  0.00    -0.236 NA
ENDBRANCH  29  31
ENDBRANCH  16  28
BRANCH  20  22
ATOM     22  C   UNL     1      -0.103   0.834  23.926  0.00  0.00    +0.228 C 
BRANCH  22  23
ATOM     23  O   UNL     1       0.338   0.546  23.290  0.00  0.00    -0.333 OA
BRANCH  23  24
ATOM     24  C   UNL     1       1.138   0.374  23.387  0.00  0.00    +0.257 C 
BRANCH  24  25
ATOM     25  C   UNL     1       1.562   0.022  22.773  0.00  0.00    +0.394 C 
ATOM     26  O   UNL     1       2.385   0.085  22.751  0.00  0.00    -0.243 OA
ATOM     27  O   UNL     1       1.165  -0.392  22.181  0.00  0.00    -0.243 OA
ENDBRANCH  24  25
ENDBRANCH  23  24
ENDBRANCH  22  23
ENDBRANCH  20  22
TORSDOF 11
ENDMDL
MODEL 3
REMARK VINA RESULT:      -8.3      2.257      4.373
REMARK  Name = 
REMARK  11 active torsions:
REMARK  status: ('A' for Active; 'I' for Inactive)
REMARK    1  A    between atoms: C_2  and  C_4
REMARK    2  A    between atoms: C_4  and  C_5
REMARK    3  A    between atoms: C_4  and  N_11
REMARK    4  A    between atoms: C_5  and  C_6
REMARK    5  A    between atoms: C_12  and  C_14
REMARK    6  A    between atoms: C_16  and  N_28
REMARK    7  A    between atoms: C_20  and  C_22
REMARK    8  A    between atoms: C_22  and  O_23
REMARK    9  A    between atoms: O_23  and  C_24
REMARK   10  A    between atoms: C_24  and  C_25
REMARK   11  A    between atoms: C_29  and  C_31
REMARK                            x       y       z     vdW  Elec       q    Type
REMARK                         _______ _______ _______ _____ _____    ______ ____
ROOT
ATOM     14  C   UNL     1      -2.272   1.091  24.307  0.00  0.00    +0.155 C 
ATOM     15  C   UNL     1      -1.565   0.786  24.011  0.00  0.00    +0.051 C 
ATOM     16  C   UNL     1      -1.082   1.252  23.530  0.00  0.00    +0.100 C 
ATOM     17  C   UNL     1      -1.307   2.025  23.347  0.00  0.00    +0.043 C 
ATOM     18  C   UNL     1      -2.014   2.330  23.644  0.00  0.00    +0.096 C 
ATOM     19  N   UNL     1      -2.497   1.864  24.124  0.00  0.00    -0.271 N 
ATOM     20  C   UNL     1      -3.203   2.169  24.420  0.00  0.00    +0.256 C 
ATOM     21  O   UNL     1      -3.428   2.941  24.236  0.00  0.00    -0.272 OA
ENDROOT
BRANCH  14  12
ATOM     11  N   UNL     1      -2.677  -0.196  24.776  0.00  0.00    -0.196 NA
ATOM     12  C   UNL     1      -2.754   0.624  24.787  0.00  0.00    +0.260 C 
ATOM     13  O   UNL     1      -3.313   0.979  25.279  0.00  0.00    -0.272 OA
BRANCH  11   4
ATOM      4  C   UNL     1      -3.159  -0.664  25.256  0.00  0.00    +0.179 C 
BRANCH   4   2
ATOM      1  N   UNL     1      -2.122  -0.990  26.184  0.00  0.00    -0.086 NA
ATOM      2  C   UNL     1      -2.920  -0.850  26.023  0.00  0.00    +0.281 C 
ATOM      3  O   UNL     1      -3.477  -0.896  26.629  0.00  0.00    -0.270 OA
ENDBRANCH   4   2
BRANCH   4   5
ATOM      5  C   UNL     1      -3.879  -0.944  24.969  0.00  0.00    +0.064 C 
BRANCH   5   6
ATOM      6  C   UNL     1      -3.905  -1.640  24.526  0.00  0.00    +0.010 A 
ATOM      7  C   UNL     1      -3.537  -2.352  24.720  0.00  0.00    +0.003 A 
ATOM      8  C   UNL     1      -3.709  -2.898  24.124  0.00  0.00    +0.007 A 
ATOM      9  C   UNL     1      -4.183  -2.522  23.564  0.00  0.00    +0.035 A 
ATOM     10  S   UNL     1      -4.304  -1.745  23.813  0.00  0.00    -0.091 S 
ENDBRANCH   5   6
ENDBRANCH   4   5
ENDBRANCH  11   4
ENDBRANCH  14  12
BRANCH  16  28
ATOM     28  N   UNL     1      -0.376   0.947  23.234  0.00  0.00    -0.202 NA
ATOM     29  C   UNL     1       0.327   1.054  23.652  0.00  0.00    +0.284 C 
ATOM     30  O   UNL     1       0.324   1.466  24.367  0.00  0.00    -0.267 OA
BRANCH  29  31
ATOM     31  C   UNL     1       1.034   0.749  23.357  0.00  0.00    +0.155 A 
ATOM     32  C   UNL     1       1.037   0.030  22.954  0.00  0.00    +0.123 A 
ATOM     33  N   UNL     1       1.745  -0.275  22.658  0.00  0.00    -0.239 NA
ATOM     34  C   UNL     1       2.449   0.141  22.766  0.00  0.00    +0.120 A 
ATOM     35  C   UNL     1       2.446   0.860  23.169  0.00  0.00    +0.120 A 
ATOM     36  N   UNL     1       1.739   1.165  23.464  0.00  0.00    -0.236 NA
ENDBRANCH  29  31
ENDBRANCH  16  28
BRANCH  20  22
ATOM     22  C   UNL     1      -3.685   1.703  24.900  0.00  0.00    +0.228 C 
BRANCH  22  23
ATOM     23  O   UNL     1      -4.233   2.057  25.404  0.00  0.00    -0.333 OA
BRANCH  23  24
ATOM     24  C   UNL     1      -5.022   2.124  25.176  0.00  0.00    +0.257 C 
BRANCH  24  25
ATOM     25  C   UNL     1      -5.609   2.242  25.744  0.00  0.00    +0.394 C 
ATOM     26  O   UNL     1      -6.149   1.641  25.909  0.00  0.00    -0.243 OA
ATOM     27  O   UNL     1      -5.655   2.959  26.148  0.00  0.00    -0.243 OA
ENDBRANCH  24  25
ENDBRANCH  23  24
ENDBRANCH  22  23
ENDBRANCH  20  22
TORSDOF 11
ENDMDL
MODEL 4
REMARK VINA RESULT:      -7.7      1.747      3.370
REMARK  Name = 
REMARK  11 active torsions:
REMARK  status: ('A' for Active; 'I' for Inactive)
REMARK    1  A    between atoms: C_2  and  C_4
REMARK    2  A    between atoms: C_4  and  C_5
REMARK    3  A    between atoms: C_4  and  N_11
REMARK    4  A    between atoms: C_5  and  C_6
REMARK    5  A    between atoms: C_12  and  C_14
REMARK    6  A    between atoms: C_16  and  N_28
REMARK    7  A    between atoms: C_20  and  C_22
REMARK    8  A    between atoms: C_22  and  O_23
REMARK    9  A    between atoms: O_23  and  C_24
REMARK   10  A    between atoms: C_24  and  C_25
REMARK   11  A    between atoms: C_29  and  C_31
REMARK                            x       y       z     vdW  Elec       q    Type
REMARK                         _______ _______ _______ _____ _____    ______ ____
ROOT
ATOM     14  C   UNL     1      -2.632   1.722  24.916  0.00  0.00    +0.155 C 
ATOM     15  C   UNL     1      -2.773   0.909  24.916  0.00  0.00    +0.051 C 
ATOM     16  C   UNL     1      -3.547   0.624  24.931  0.00  0.00    +0.100 C 
ATOM     17  C   UNL     1      -4.181   1.153  24.946  0.00  0.00    +0.043 C 
ATOM     18  C   UNL     1      -4.040   1.966  24.946  0.00  0.00    +0.096 C 
ATOM     19  N   UNL     1      -3.266   2.251  24.931  0.00  0.00    -0.271 N 
ATOM     20  C   UNL     1      -3.125   3.064  24.931  0.00  0.00    +0.256 C 
ATOM     21  O   UNL     1      -3.759   3.592  24.946  0.00  0.00    -0.272 OA
ENDROOT
BRANCH  14  12
ATOM     11  N   UNL     1      -1.228   1.496  25.046  0.00  0.00    -0.196 NA
ATOM     12  C   UNL     1      -1.858   2.007  24.901  0.00  0.00    +0.260 C 
ATOM     13  O   UNL     1      -1.715   2.804  24.740  0.00  0.00    -0.272 OA
BRANCH  11   4
ATOM      4  C   UNL     1      -0.453   1.781  25.032  0.00  0.00    +0.179 C 
BRANCH   4   2
ATOM      1  N   UNL     1      -0.234   1.522  26.420  0.00  0.00    -0.086 NA
ATOM      2  C   UNL     1      -0.065   1.955  25.738  0.00  0.00    +0.281 C 
ATOM      3  O   UNL     1       0.493   2.562  25.764  0.00  0.00    -0.270 OA
ENDBRANCH   4   2
BRANCH   4   5
ATOM      5  C   UNL     1      -0.068   1.892  24.311  0.00  0.00    +0.064 C 
BRANCH   5   6
ATOM      6  C   UNL     1       0.308   1.257  23.942  0.00  0.00    +0.010 A 
ATOM      7  C   UNL     1      -0.051   0.555  23.700  0.00  0.00    +0.003 A 
ATOM      8  C   UNL     1       0.530   0.077  23.358  0.00  0.00    +0.007 A 
ATOM      9  C   UNL     1       1.246   0.484  23.390  0.00  0.00    +0.035 A 
ATOM     10  S   UNL     1       1.109   1.213  23.751  0.00  0.00    -0.091 S 
ENDBRANCH   5   6
ENDBRANCH   4   5
ENDBRANCH  11   4
ENDBRANCH  14  12
BRANCH  16  28
ATOM     28  N   UNL     1      -3.688  -0.188  24.930  0.00  0.00    -0.202 NA
ATOM     29  C   UNL     1      -3.666  -0.610  24.222  0.00  0.00    +0.284 C 
ATOM     30  O   UNL     1      -3.504  -0.220  23.513  0.00  0.00    -0.267 OA
BRANCH  29  31
ATOM     31  C   UNL     1      -3.807  -1.423  24.221  0.00  0.00    +0.155 A 
ATOM     32  C   UNL     1      -4.397  -1.739  23.741  0.00  0.00    +0.123 A 
ATOM     33  N   UNL     1      -4.538  -2.553  23.740  0.00  0.00    -0.239 NA
ATOM     34  C   UNL     1      -4.086  -3.049  24.220  0.00  0.00    +0.120 A 
ATOM     35  C   UNL     1      -3.496  -2.733  24.700  0.00  0.00    +0.120 A 
ATOM     36  N   UNL     1      -3.355  -1.920  24.701  0.00  0.00    -0.236 NA
ENDBRANCH  29  31
ENDBRANCH  16  28
BRANCH  20  22
ATOM     22  C   UNL     1      -2.352   3.348  24.916  0.00  0.00    +0.228 C 
BRANCH  22  23
ATOM     23  O   UNL     1      -2.207   4.142  24.742  0.00  0.00    -0.333 OA
BRANCH  23  24
ATOM     24  C   UNL     1      -1.885   4.638  25.316  0.00  0.00    +0.257 C 
BRANCH  24  25
ATOM     25  C   UNL     1      -1.524   5.346  25.094  0.00  0.00    +0.394 C 
ATOM     26  O   UNL     1      -0.736   5.348  24.850  0.00  0.00    -0.243 OA
ATOM     27  O   UNL     1      -1.949   6.052  25.117  0.00  0.00    -0.243 OA
ENDBRANCH  24  25
ENDBRANCH  23  24
ENDBRANCH  22  23
ENDBRANCH  20  22
TORSDOF 11
ENDMDL
MODEL 5
REMARK VINA RESULT:      -7.7      2.083      4.335
REMARK  Name = 
REMARK  11 active torsions:
REMARK  status: ('A' for Active; 'I' for Inactive)
REMARK    1  A    between atoms: C_2  and  C_4
REMARK    2  A    between atoms: C_4  and  C_5
REMARK    3  A    between atoms: C_4  and  N_11
REMARK    4  A    between atoms: C_5  and  C_6
REMARK    5  A    between atoms: C_12  and  C_14
REMARK    6  A    between atoms: C_16  and  N_28
REMARK    7  A    between atoms: C_20  and  C_22
REMARK    8  A    between atoms: C_22  and  O_23
REMARK    9  A    between atoms: O_23  and  C_24
REMARK   10  A    between atoms: C_24  and  C_25
REMARK   11  A    between atoms: C_29  and  C_31
REMARK                            x       y       z     vdW  Elec       q    Type
REMARK                         _______ _______ _______ _____ _____    ______ ____
ROOT
ATOM     14  C   UNL     1      -1.884   0.973  24.674  0.00  0.00    +0.155 C 
ATOM     15  C   UNL     1      -2.606   1.235  24.974  0.00  0.00    +0.051 C 
ATOM     16  C   UNL     1      -3.270   0.746  24.945  0.00  0.00    +0.100 C 
ATOM     17  C   UNL     1      -3.211  -0.009  24.614  0.00  0.00    +0.043 C 
ATOM     18  C   UNL     1      -2.488  -0.272  24.313  0.00  0.00    +0.096 C 
ATOM     19  N   UNL     1      -1.825   0.218  24.343  0.00  0.00    -0.271 N 
ATOM     20  C   UNL     1      -1.104  -0.045  24.043  0.00  0.00    +0.256 C 
ATOM     21  O   UNL     1      -1.045  -0.799  23.712  0.00  0.00    -0.272 OA
ENDROOT
BRANCH  14  12
ATOM     11  N   UNL     1      -1.183   2.070  25.259  0.00  0.00    -0.196 NA
ATOM     12  C   UNL     1      -1.221   1.462  24.704  0.00  0.00    +0.260 C 
ATOM     13  O   UNL     1      -0.597   1.343  24.178  0.00  0.00    -0.272 OA
BRANCH  11   4
ATOM      4  C   UNL     1      -0.520   2.561  25.289  0.00  0.00    +0.179 C 
BRANCH   4   2
ATOM      1  N   UNL     1      -0.181   2.317  26.657  0.00  0.00    -0.086 NA
ATOM      2  C   UNL     1       0.050   2.447  25.875  0.00  0.00    +0.281 C 
ATOM      3  O   UNL     1       0.852   2.463  25.679  0.00  0.00    -0.270 OA
ENDBRANCH   4   2
BRANCH   4   5
ATOM      5  C   UNL     1      -0.427   3.164  24.735  0.00  0.00    +0.064 C 
BRANCH   5   6
ATOM      6  C   UNL     1      -0.769   3.903  24.868  0.00  0.00    +0.010 A 
ATOM      7  C   UNL     1      -1.449   4.050  25.310  0.00  0.00    +0.003 A 
ATOM      8  C   UNL     1      -1.591   4.864  25.296  0.00  0.00    +0.007 A 
ATOM      9  C   UNL     1      -0.998   5.218  24.846  0.00  0.00    +0.035 A 
ATOM     10  S   UNL     1      -0.490   4.624  24.581  0.00  0.00    -0.091 S 
ENDBRANCH   5   6
ENDBRANCH   4   5
ENDBRANCH  11   4
ENDBRANCH  14  12
BRANCH  16  28
ATOM     28  N   UNL     1      -3.991   1.009  25.245  0.00  0.00    -0.202 NA
ATOM     29  C   UNL     1      -4.429   1.572  24.831  0.00  0.00    +0.284 C 
ATOM     30  O   UNL     1      -4.145   1.873  24.117  0.00  0.00    -0.267 OA
BRANCH  29  31
ATOM     31  C   UNL     1      -5.150   1.836  25.131  0.00  0.00    +0.155 A 
ATOM     32  C   UNL     1      -5.171   2.466  25.662  0.00  0.00    +0.123 A 
ATOM     33  N   UNL     1      -5.894   2.729  25.962  0.00  0.00    -0.239 NA
ATOM     34  C   UNL     1      -6.595   2.362  25.729  0.00  0.00    +0.120 A 
ATOM     35  C   UNL     1      -6.574   1.732  25.198  0.00  0.00    +0.120 A 
ATOM     36  N   UNL     1      -5.852   1.469  24.898  0.00  0.00    -0.236 NA
ENDBRANCH  29  31
ENDBRANCH  16  28
BRANCH  20  22
ATOM     22  C   UNL     1      -0.441   0.445  24.073  0.00  0.00    +0.228 C 
BRANCH  22  23
ATOM     23  O   UNL     1       0.100   0.446  23.450  0.00  0.00    -0.333 OA
BRANCH  23  24
ATOM     24  C   UNL     1       0.793   0.002  23.504  0.00  0.00    +0.257 C 
BRANCH  24  25
ATOM     25  C   UNL     1       1.403   0.120  22.962  0.00  0.00    +0.394 C 
ATOM     26  O   UNL     1       2.045   0.600  23.161  0.00  0.00    -0.243 OA
ATOM     27  O   UNL     1       1.372  -0.240  22.221  0.00  0.00    -0.243 OA
ENDBRANCH  24  25
ENDBRANCH  23  24
ENDBRANCH  22  23
ENDBRANCH  20  22
TORSDOF 11
ENDMDL
MODEL 6
REMARK VINA RESULT:      -7.4      2.105      5.876
REMARK  Name = 
REMARK  11 active torsions:
REMARK  status: ('A' for Active; 'I' for Inactive)
REMARK    1  A    between atoms: C_2  and  C_4
REMARK    2  A    between atoms: C_4  and  C_5
REMARK    3  A    between atoms: C_4  and  N_11
REMARK    4  A    between atoms: C_5  and  C_6
REMARK    5  A    between atoms: C_12  and  C_14
REMARK    6  A    between atoms: C_16  and  N_28
REMARK    7  A    between atoms: C_20  and  C_22
REMARK    8  A    between atoms: C_22  and  O_23
REMARK    9  A    between atoms: O_23  and  C_24
REMARK   10  A    between atoms: C_24  and  C_25
REMARK   11  A    between atoms: C_29  and  C_31
REMARK                            x       y       z     vdW  Elec       q    Type
REMARK                         _______ _______ _______ _____ _____    ______ ____
ROOT
ATOM     14  C   UNL     1      -2.703   0.923  24.390  0.00  0.00    +0.155 C 
ATOM     15  C   UNL     1      -2.360   1.673  24.371  0.00  0.00    +0.051 C 
ATOM     16  C   UNL     1      -2.837   2.346  24.356  0.00  0.00    +0.100 C 
ATOM     17  C   UNL     1      -3.660   2.269  24.360  0.00  0.00    +0.043 C 
ATOM     18  C   UNL     1      -4.003   1.518  24.379  0.00  0.00    +0.096 C 
ATOM     19  N   UNL     1      -3.525   0.845  24.394  0.00  0.00    -0.271 N 
ATOM     20  C   UNL     1      -3.869   0.096  24.412  0.00  0.00    +0.256 C 
ATOM     21  O   UNL     1      -4.690   0.019  24.416  0.00  0.00    -0.272 OA
ENDROOT
BRANCH  14  12
ATOM     11  N   UNL     1      -1.436   0.311  24.632  0.00  0.00    -0.196 NA
ATOM     12  C   UNL     1      -2.226   0.251  24.405  0.00  0.00    +0.260 C 
ATOM     13  O   UNL     1      -2.539  -0.482  24.193  0.00  0.00    -0.272 OA
BRANCH  11   4
ATOM      4  C   UNL     1      -0.957  -0.361  24.647  0.00  0.00    +0.179 C 
BRANCH   4   2
ATOM      1  N   UNL     1      -0.673  -1.567  25.361  0.00  0.00    -0.086 NA
ATOM      2  C   UNL     1      -0.823  -0.755  25.359  0.00  0.00    +0.281 C 
ATOM      3  O   UNL     1      -0.837  -0.338  26.071  0.00  0.00    -0.270 OA
ENDBRANCH   4   2
BRANCH   4   5
ATOM      5  C   UNL     1      -0.615  -0.640  23.951  0.00  0.00    +0.064 C 
BRANCH   5   6
ATOM      6  C   UNL     1       0.064  -0.278  23.651  0.00  0.00    +0.010 A 
ATOM      7  C   UNL     1       0.376   0.445  23.895  0.00  0.00    +0.003 A 
ATOM      8  C   UNL     1       1.055   0.593  23.448  0.00  0.00    +0.007 A 
ATOM      9  C   UNL     1       1.160  -0.039  22.928  0.00  0.00    +0.035 A 
ATOM     10  S   UNL     1       0.548  -0.578  23.054  0.00  0.00    -0.091 S 
ENDBRANCH   5   6
ENDBRANCH   4   5
ENDBRANCH  11   4
ENDBRANCH  14  12
BRANCH  16  28
ATOM     28  N   UNL     1      -2.494   3.096  24.337  0.00  0.00    -0.202 NA
ATOM     29  C   UNL     1      -2.256   3.457  25.039  0.00  0.00    +0.284 C 
ATOM     30  O   UNL     1      -2.360   3.070  25.760  0.00  0.00    -0.267 OA
BRANCH  29  31
ATOM     31  C   UNL     1      -1.912   4.207  25.022  0.00  0.00    +0.155 A 
ATOM     32  C   UNL     1      -1.096   4.285  24.940  0.00  0.00    +0.123 A 
ATOM     33  N   UNL     1      -0.753   5.036  24.922  0.00  0.00    -0.239 NA
ATOM     34  C   UNL     1      -1.227   5.707  24.986  0.00  0.00    +0.120 A 
ATOM     35  C   UNL     1      -2.044   5.629  25.068  0.00  0.00    +0.120 A 
ATOM     36  N   UNL     1      -2.387   4.880  25.086  0.00  0.00    -0.236 NA
ENDBRANCH  29  31
ENDBRANCH  16  28
BRANCH  20  22
ATOM     22  C   UNL     1      -3.391  -0.576  24.427  0.00  0.00    +0.228 C 
BRANCH  22  23
ATOM     23  O   UNL     1      -3.661  -1.282  24.096  0.00  0.00    -0.333 OA
BRANCH  23  24
ATOM     24  C   UNL     1      -3.923  -1.893  24.583  0.00  0.00    +0.257 C 
BRANCH  24  25
ATOM     25  C   UNL     1      -3.938  -2.668  24.301  0.00  0.00    +0.394 C 
ATOM     26  O   UNL     1      -3.551  -3.266  24.718  0.00  0.00    -0.243 OA
ATOM     27  O   UNL     1      -4.340  -2.847  23.603  0.00  0.00    -0.243 OA
ENDBRANCH  24  25
ENDBRANCH  23  24
ENDBRANCH  22  23
ENDBRANCH  20  22
TORSDOF 11
ENDMDL
MODEL 7
REMARK VINA RESULT:      -7.3      2.281      3.919
REMARK  Name = 
REMARK  11 active torsions:
REMARK  status: ('A' for Active; 'I' for Inactive)
REMARK    1  A    between atoms: C_2  and  C_4
REMARK    2  A    between atoms: C_4  and  C_5
REMARK    3  A    between atoms: C_4  and  N_11
REMARK    4  A    between atoms: C_5  and  C_6
REMARK    5  A    between atoms: C_12  and  C_14
REMARK    6  A    between atoms: C_16  and  N_28
REMARK    7  A    between atoms: C_20  and  C_22
REMARK    8  A    between atoms: C_22  and  O_23
REMARK    9  A    between atoms: O_23  and  C_24
REMARK   10  A    between atoms: C_24  and  C_25
REMARK   11  A    between atoms: C_29  and  C_31
REMARK                            x       y       z     vdW  Elec       q    Type
REMARK                         _______ _______ _______ _____ _____    ______ ____
ROOT
ATOM     14  C   UNL     1      -2.315   1.741  24.398  0.00  0.00    +0.155 C 
ATOM     15  C   UNL     1      -1.679   1.375  24.021  0.00  0.00    +0.051 C 
ATOM     16  C   UNL     1      -0.998   1.807  23.847  0.00  0.00    +0.100 C 
ATOM     17  C   UNL     1      -0.953   2.606  24.050  0.00  0.00    +0.043 C 
ATOM     18  C   UNL     1      -1.589   2.972  24.427  0.00  0.00    +0.096 C 
ATOM     19  N   UNL     1      -2.270   2.540  24.602  0.00  0.00    -0.271 N 
ATOM     20  C   UNL     1      -2.906   2.906  24.978  0.00  0.00    +0.256 C 
ATOM     21  O   UNL     1      -2.861   3.704  25.182  0.00  0.00    -0.272 OA
ENDROOT
BRANCH  14  12
ATOM     11  N   UNL     1      -3.030   0.505  24.397  0.00  0.00    -0.196 NA
ATOM     12  C   UNL     1      -2.996   1.309  24.572  0.00  0.00    +0.260 C 
ATOM     13  O   UNL     1      -3.643   1.683  24.922  0.00  0.00    -0.272 OA
BRANCH  11   4
ATOM      4  C   UNL     1      -3.710   0.072  24.571  0.00  0.00    +0.179 C 
BRANCH   4   2
ATOM      1  N   UNL     1      -4.104  -0.173  23.219  0.00  0.00    -0.086 NA
ATOM      2  C   UNL     1      -4.303  -0.009  24.003  0.00  0.00    +0.281 C 
ATOM      3  O   UNL     1      -5.095   0.073  24.218  0.00  0.00    -0.270 OA
ENDBRANCH   4   2
BRANCH   4   5
ATOM      5  C   UNL     1      -3.799  -0.279  25.312  0.00  0.00    +0.064 C 
BRANCH   5   6
ATOM      6  C   UNL     1      -3.513  -1.041  25.445  0.00  0.00    +0.010 A 
ATOM      7  C   UNL     1      -3.695  -1.712  25.001  0.00  0.00    +0.003 A 
ATOM      8  C   UNL     1      -3.289  -2.352  25.328  0.00  0.00    +0.007 A 
ATOM      9  C   UNL     1      -2.857  -2.076  25.974  0.00  0.00    +0.035 A 
ATOM     10  S   UNL     1      -2.995  -1.266  26.046  0.00  0.00    -0.091 S 
ENDBRANCH   5   6
ENDBRANCH   4   5
ENDBRANCH  11   4
ENDBRANCH  14  12
BRANCH  16  28
ATOM     28  N   UNL     1      -0.362   1.441  23.470  0.00  0.00    -0.202 NA
ATOM     29  C   UNL     1       0.277   1.165  23.913  0.00  0.00    +0.284 C 
ATOM     30  O   UNL     1       0.280   1.255  24.733  0.00  0.00    -0.267 OA
BRANCH  29  31
ATOM     31  C   UNL     1       0.913   0.799  23.537  0.00  0.00    +0.155 A 
ATOM     32  C   UNL     1       0.805   0.080  23.149  0.00  0.00    +0.123 A 
ATOM     33  N   UNL     1       1.442  -0.286  22.773  0.00  0.00    -0.239 NA
ATOM     34  C   UNL     1       2.187   0.069  22.785  0.00  0.00    +0.120 A 
ATOM     35  C   UNL     1       2.295   0.788  23.172  0.00  0.00    +0.120 A 
ATOM     36  N   UNL     1       1.658   1.154  23.548  0.00  0.00    -0.236 NA
ENDBRANCH  29  31
ENDBRANCH  16  28
BRANCH  20  22
ATOM     22  C   UNL     1      -3.586   2.474  25.152  0.00  0.00    +0.228 C 
BRANCH  22  23
ATOM     23  O   UNL     1      -4.164   2.795  25.646  0.00  0.00    -0.333 OA
BRANCH  23  24
ATOM     24  C   UNL     1      -4.875   3.065  25.328  0.00  0.00    +0.257 C 
BRANCH  24  25
ATOM     25  C   UNL     1      -5.503   3.262  25.826  0.00  0.00    +0.394 C 
ATOM     26  O   UNL     1      -5.856   4.005  25.771  0.00  0.00    -0.243 OA
ATOM     27  O   UNL     1      -5.778   2.716  26.379  0.00  0.00    -0.243 OA
ENDBRANCH  24  25
ENDBRANCH  23  24
ENDBRANCH  22  23
ENDBRANCH  20  22
TORSDOF 11
ENDMDL
MODEL 8
REMARK VINA RESULT:      -7.3      2.156      3.868
REMARK  Name = 
REMARK  11 active torsions:
REMARK  status: ('A' for Active; 'I' for Inactive)
REMARK    1  A    between atoms: C_2  and  C_4
REMARK    2  A    between atoms: C_4  and  C_5
REMARK    3  A    between atoms: C_4  and  N_11
REMARK    4  A    between atoms: C_5  and  C_6
REMARK    5  A    between atoms: C_12  and  C_14
REMARK    6  A    between atoms: C_16  and  N_28
REMARK    7  A    between atoms: C_20  and  C_22
REMARK    8  A    between atoms: C_22  and  O_23
REMARK    9  A    between atoms: O_23  and  C_24
REMARK   10  A    between atoms: C_24  and  C_25
REMARK   11  A    between atoms: C_29  and  C_31
REMARK                            x       y       z     vdW  Elec       q    Type
REMARK                         _______ _______ _______ _____ _____    ______ ____
ROOT
ATOM     14  C   UNL     1      -2.867   1.269  24.454  0.00  0.00    +0.155 C 
ATOM     15  C   UNL     1      -2.132   1.207  24.083  0.00  0.00    +0.051 C 
ATOM     16  C   UNL     1      -1.826   0.465  23.891  0.00  0.00    +0.100 C 
ATOM     17  C   UNL     1      -2.256  -0.217  24.071  0.00  0.00    +0.043 C 
ATOM     18  C   UNL     1      -2.990  -0.156  24.441  0.00  0.00    +0.096 C 
ATOM     19  N   UNL     1      -3.297   0.586  24.633  0.00  0.00    -0.271 N 
ATOM     20  C   UNL     1      -4.031   0.647  25.003  0.00  0.00    +0.256 C 
ATOM     21  O   UNL     1      -4.460  -0.034  25.182  0.00  0.00    -0.272 OA
ENDROOT
BRANCH  14  12
ATOM     11  N   UNL     1      -2.834   2.690  24.325  0.00  0.00    -0.196 NA
ATOM     12  C   UNL     1      -3.172   2.010  24.645  0.00  0.00    +0.260 C 
ATOM     13  O   UNL     1      -3.816   2.071  25.157  0.00  0.00    -0.272 OA
BRANCH  11   4
ATOM      4  C   UNL     1      -3.139   3.433  24.516  0.00  0.00    +0.179 C 
BRANCH   4   2
ATOM      1  N   UNL     1      -3.666   3.675  23.210  0.00  0.00    -0.086 NA
ATOM      2  C   UNL     1      -3.703   3.785  24.027  0.00  0.00    +0.281 C 
ATOM      3  O   UNL     1      -4.303   4.247  24.354  0.00  0.00    -0.270 OA
ENDBRANCH   4   2
BRANCH   4   5
ATOM      5  C   UNL     1      -2.882   3.823  25.195  0.00  0.00    +0.064 C 
BRANCH   5   6
ATOM      6  C   UNL     1      -2.182   4.260  25.181  0.00  0.00    +0.010 A 
ATOM      7  C   UNL     1      -2.117   5.066  25.022  0.00  0.00    +0.003 A 
ATOM      8  C   UNL     1      -1.318   5.272  25.066  0.00  0.00    +0.007 A 
ATOM      9  C   UNL     1      -0.891   4.591  25.252  0.00  0.00    +0.035 A 
ATOM     10  S   UNL     1      -1.425   3.966  25.323  0.00  0.00    -0.091 S 
ENDBRANCH   5   6
ENDBRANCH   4   5
ENDBRANCH  11   4
ENDBRANCH  14  12
BRANCH  16  28
ATOM     28  N   UNL     1      -1.092   0.404  23.521  0.00  0.00    -0.202 NA
ATOM     29  C   UNL     1      -0.405   0.345  23.974  0.00  0.00    +0.284 C 
ATOM     30  O   UNL     1      -0.452   0.346  24.798  0.00  0.00    -0.267 OA
BRANCH  29  31
ATOM     31  C   UNL     1       0.330   0.284  23.605  0.00  0.00    +0.155 A 
ATOM     32  C   UNL     1       0.878   0.895  23.674  0.00  0.00    +0.123 A 
ATOM     33  N   UNL     1       1.614   0.833  23.304  0.00  0.00    -0.239 NA
ATOM     34  C   UNL     1       1.799   0.160  22.865  0.00  0.00    +0.120 A 
ATOM     35  C   UNL     1       1.250  -0.451  22.795  0.00  0.00    +0.120 A 
ATOM     36  N   UNL     1       0.515  -0.390  23.165  0.00  0.00    -0.236 NA
ENDBRANCH  29  31
ENDBRANCH  16  28
BRANCH  20  22
ATOM     22  C   UNL     1      -4.336   1.389  25.195  0.00  0.00    +0.228 C 
BRANCH  22  23
ATOM     23  O   UNL     1      -4.912   1.460  25.781  0.00  0.00    -0.333 OA
BRANCH  23  24
ATOM     24  C   UNL     1      -5.674   1.704  25.583  0.00  0.00    +0.257 C 
BRANCH  24  25
ATOM     25  C   UNL     1      -6.186   1.978  26.169  0.00  0.00    +0.394 C 
ATOM     26  O   UNL     1      -6.819   1.509  26.415  0.00  0.00    -0.243 OA
ATOM     27  O   UNL     1      -6.066   2.719  26.510  0.00  0.00    -0.243 OA
ENDBRANCH  24  25
ENDBRANCH  23  24
ENDBRANCH  22  23
ENDBRANCH  20  22
TORSDOF 11
ENDMDL
MODEL 9
REMARK VINA RESULT:      -7.1      2.584      4.457
REMARK  Name = 
REMARK  11 active torsions:
REMARK  status: ('A' for Active; 'I' for Inactive)
REMARK    1  A    between atoms: C_2  and  C_4
REMARK    2  A    between atoms: C_4  and  C_5
REMARK    3  A    between atoms: C_4  and  N_11
REMARK    4  A    between atoms: C_5  and  C_6
REMARK    5  A    between atoms: C_12  and  C_14
REMARK    6  A    between atoms: C_16  and  N_28
REMARK    7  A    between atoms: C_20  and  C_22
REMARK    8  A    between atoms: C_22  and  O_23
REMARK    9  A    between atoms: O_23  and  C_24
REMARK   10  A    between atoms: C_24  and  C_25
REMARK   11  A    between atoms: C_29  and  C_31
REMARK                            x       y       z     vdW  Elec       q    Type
REMARK                         _______ _______ _______ _____ _____    ______ ____
ROOT
ATOM     14  C   UNL     1      -1.063   0.463  24.263  0.00  0.00    +0.155 C 
ATOM     15  C   UNL     1      -0.289   0.661  24.054  0.00  0.00    +0.051 C 
ATOM     16  C   UNL     1       0.286   0.073  23.992  0.00  0.00    +0.100 C 
ATOM     17  C   UNL     1       0.088  -0.715  24.141  0.00  0.00    +0.043 C 
ATOM     18  C   UNL     1      -0.685  -0.913  24.351  0.00  0.00    +0.096 C 
ATOM     19  N   UNL     1      -1.261  -0.325  24.412  0.00  0.00    -0.271 N 
ATOM     20  C   UNL     1      -2.033  -0.523  24.621  0.00  0.00    +0.256 C 
ATOM     21  O   UNL     1      -2.230  -1.310  24.770  0.00  0.00    -0.272 OA
ENDROOT
BRANCH  14  12
ATOM     11  N   UNL     1      -1.494   1.801  24.014  0.00  0.00    -0.196 NA
ATOM     12  C   UNL     1      -1.637   1.051  24.324  0.00  0.00    +0.260 C 
ATOM     13  O   UNL     1      -2.356   0.888  24.696  0.00  0.00    -0.272 OA
BRANCH  11   4
ATOM      4  C   UNL     1      -2.070   2.390  24.075  0.00  0.00    +0.179 C 
BRANCH   4   2
ATOM      1  N   UNL     1      -2.235   2.526  22.662  0.00  0.00    -0.086 NA
ATOM      2  C   UNL     1      -2.545   2.569  23.426  0.00  0.00    +0.281 C 
ATOM      3  O   UNL     1      -3.331   2.793  23.539  0.00  0.00    -0.270 OA
ENDBRANCH   4   2
BRANCH   4   5
ATOM      5  C   UNL     1      -2.169   2.798  24.784  0.00  0.00    +0.064 C 
BRANCH   5   6
ATOM      6  C   UNL     1      -1.777   3.514  24.908  0.00  0.00    +0.010 A 
ATOM      7  C   UNL     1      -0.986   3.669  24.734  0.00  0.00    +0.003 A 
ATOM      8  C   UNL     1      -0.827   4.452  24.946  0.00  0.00    +0.007 A 
ATOM      9  C   UNL     1      -1.521   4.778  25.250  0.00  0.00    +0.035 A 
ATOM     10  S   UNL     1      -2.108   4.198  25.226  0.00  0.00    -0.091 S 
ENDBRANCH   5   6
ENDBRANCH   4   5
ENDBRANCH  11   4
ENDBRANCH  14  12
BRANCH  16  28
ATOM     28  N   UNL     1       1.059   0.271  23.783  0.00  0.00    -0.202 NA
ATOM     29  C   UNL     1       1.329   0.125  23.017  0.00  0.00    +0.284 C 
ATOM     30  O   UNL     1       0.826  -0.219  22.461  0.00  0.00    -0.267 OA
BRANCH  29  31
ATOM     31  C   UNL     1       2.101   0.323  22.807  0.00  0.00    +0.155 A 
ATOM     32  C   UNL     1       2.491   0.934  23.198  0.00  0.00    +0.123 A 
ATOM     33  N   UNL     1       3.265   1.132  22.987  0.00  0.00    -0.239 NA
ATOM     34  C   UNL     1       3.646   0.718  22.385  0.00  0.00    +0.120 A 
ATOM     35  C   UNL     1       3.256   0.107  21.993  0.00  0.00    +0.120 A 
ATOM     36  N   UNL     1       2.483  -0.091  22.204  0.00  0.00    -0.236 NA
ENDBRANCH  29  31
ENDBRANCH  16  28
BRANCH  20  22
ATOM     22  C   UNL     1      -2.607   0.064  24.683  0.00  0.00    +0.228 C 
BRANCH  22  23
ATOM     23  O   UNL     1      -3.402  -0.120  24.559  0.00  0.00    -0.333 OA
BRANCH  23  24
ATOM     24  C   UNL     1      -3.934  -0.098  25.189  0.00  0.00    +0.257 C 
BRANCH  24  25
ATOM     25  C   UNL     1      -4.729   0.073  25.053  0.00  0.00    +0.394 C 
ATOM     26  O   UNL     1      -5.137  -0.316  24.450  0.00  0.00    -0.243 OA
ATOM     27  O   UNL     1      -5.117   0.633  25.517  0.00  0.00    -0.243 OA
ENDBRANCH  24  25
ENDBRANCH  23  24
ENDBRANCH  22  23
ENDBRANCH  20  22
TORSDOF 11
ENDMDL
MODEL 10
REMARK VINA RESULT:      -6.7      1.548      4.856
REMARK  Name = 
REMARK  11 active torsions:
REMARK  status: ('A' for Active; 'I' for Inactive)
REMARK    1  A    between atoms: C_2  and  C_4
REMARK    2  A    between atoms: C_4  and  C_5
REMARK    3  A    between atoms: C_4  and  N_11
REMARK    4  A    between atoms: C_5  and  C_6
REMARK    5  A    between atoms: C_12  and  C_14
REMARK    6  A    between atoms: C_16  and  N_28
REMARK    7  A    between atoms: C_20  and  C_22
REMARK    8  A    between atoms: C_22  and  O_23
REMARK    9  A    between atoms: O_23  and  C_24
REMARK   10  A    between atoms: C_24  and  C_25
REMARK   11  A    between atoms: C_29  and  C_31
REMARK                            x       y       z     vdW  Elec       q    Type
REMARK                         _______ _______ _______ _____ _____    ______ ____
ROOT
ATOM     14  C   UNL     1      -1.782   0.891  24.822  0.00  0.00    +0.155 C 
ATOM     15  C   UNL     1      -1.777   1.709  24.713  0.00  0.00    +0.051 C 
ATOM     16  C   UNL     1      -1.061   2.119  24.695  0.00  0.00    +0.100 C 
ATOM     17  C   UNL     1      -0.349   1.710  24.787  0.00  0.00    +0.043 C 
ATOM     18  C   UNL     1      -0.355   0.892  24.897  0.00  0.00    +0.096 C 
ATOM     19  N   UNL     1      -1.070   0.482  24.914  0.00  0.00    -0.271 N 
ATOM     20  C   UNL     1      -1.075  -0.335  25.024  0.00  0.00    +0.256 C 
ATOM     21  O   UNL     1      -0.364  -0.743  25.116  0.00  0.00    -0.272 OA
ENDROOT
BRANCH  14  12
ATOM     11  N   UNL     1      -3.151   0.774  24.430  0.00  0.00    -0.196 NA
ATOM     12  C   UNL     1      -2.498   0.481  24.840  0.00  0.00    +0.260 C 
ATOM     13  O   UNL     1      -2.560  -0.222  25.267  0.00  0.00    -0.272 OA
BRANCH  11   4
ATOM      4  C   UNL     1      -3.867   0.364  24.448  0.00  0.00    +0.179 C 
BRANCH   4   2
ATOM      1  N   UNL     1      -4.532  -0.805  23.963  0.00  0.00    -0.086 NA
ATOM      2  C   UNL     1      -4.072  -0.134  23.823  0.00  0.00    +0.281 C 
ATOM      3  O   UNL     1      -3.817   0.038  23.057  0.00  0.00    -0.270 OA
ENDBRANCH   4   2
BRANCH   4   5
ATOM      5  C   UNL     1      -4.378   0.453  25.089  0.00  0.00    +0.064 C 
BRANCH   5   6
ATOM      6  C   UNL     1      -4.888   1.100  25.124  0.00  0.00    +0.010 A 
ATOM      7  C   UNL     1      -4.891   1.744  24.609  0.00  0.00    +0.003 A 
ATOM      8  C   UNL     1      -5.492   2.259  24.848  0.00  0.00    +0.007 A 
ATOM      9  C   UNL     1      -5.858   1.931  25.511  0.00  0.00    +0.035 A 
ATOM     10  S   UNL     1      -5.485   1.215  25.681  0.00  0.00    -0.091 S 
ENDBRANCH   5   6
ENDBRANCH   4   5
ENDBRANCH  11   4
ENDBRANCH  14  12
BRANCH  16  28
ATOM     28  N   UNL     1      -1.056   2.936  24.586  0.00  0.00    -0.202 NA
ATOM     29  C   UNL     1      -1.169   3.439  25.230  0.00  0.00    +0.284 C 
ATOM     30  O   UNL     1      -1.287   3.125  25.983  0.00  0.00    -0.267 OA
BRANCH  29  31
ATOM     31  C   UNL     1      -1.164   4.256  25.121  0.00  0.00    +0.155 A 
ATOM     32  C   UNL     1      -1.807   4.709  25.368  0.00  0.00    +0.123 A 
ATOM     33  N   UNL     1      -1.801   5.528  25.259  0.00  0.00    -0.239 NA
ATOM     34  C   UNL     1      -1.152   5.891  24.903  0.00  0.00    +0.120 A 
ATOM     35  C   UNL     1      -0.510   5.439  24.656  0.00  0.00    +0.120 A 
ATOM     36  N   UNL     1      -0.515   4.621  24.764  0.00  0.00    -0.236 NA
ENDBRANCH  29  31
ENDBRANCH  16  28
BRANCH  20  22
ATOM     22  C   UNL     1      -1.791  -0.744  25.041  0.00  0.00    +0.228 C 
BRANCH  22  23
ATOM     23  O   UNL     1      -1.804  -1.545  25.242  0.00  0.00    -0.333 OA
BRANCH  23  24
ATOM     24  C   UNL     1      -1.610  -2.115  24.680  0.00  0.00    +0.257 C 
BRANCH  24  25
ATOM     25  C   UNL     1      -2.048  -2.813  24.630  0.00  0.00    +0.394 C 
ATOM     26  O   UNL     1      -2.096  -3.219  23.914  0.00  0.00    -0.243 OA
ATOM     27  O   UNL     1      -2.437  -3.104  25.296  0.00  0.00    -0.243 OA
ENDBRANCH  24  25
ENDBRANCH  23  24
ENDBRANCH  22  23
ENDBRANCH  20  22
TORSDOF 11
ENDMDL
