MODEL 1
REMARK VINA RESULT:     -11.6      0.000      0.000
REMARK  Name = 
REMARK  9 active torsions:
REMARK  status: ('A' for Active; 'I' for Inactive)
REMARK    1  A    between atoms: N_2  and  C_3
REMARK    2  A    between atoms: N_2  and  C_23
REMARK    3  A    between atoms: C_3  and  C_4
REMARK    4  A    between atoms: C_6  and  C_7
REMARK    5  A    between atoms: C_7  and  C_8
REMARK    6  A    between atoms: C_8  and  N_12
REMARK    7  A    between atoms: N_12  and  C_13
REMARK    8  A    between atoms: C_13  and  C_14
REMARK    9  A    between atoms: C_23  and  C_24
REMARK                            x       y       z     vdW  Elec       q    Type
REMARK                         _______ _______ _______ _____ _____    ______ ____
ROOT
ATOM      4  C   UNL     1      -4.371   1.052  24.362  0.00  0.00    +0.170 A 
ATOM      5  C   UNL     1      -4.014   1.795  24.317  0.00  0.00    +0.055 A 
ATOM      6  C   UNL     1      -4.531   2.345  24.650  0.00  0.00    +0.102 A 
ATOM     21  N   UNL     1      -5.206   1.944  24.901  0.00  0.00    -0.082 NA
ATOM     22  O   UNL     1      -5.108   1.144  24.723  0.00  0.00    -0.357 OA
ENDROOT
BRANCH   4   3
ATOM      3  C   UNL     1      -4.047   0.342  24.094  0.00  0.00    +0.141 C 
BRANCH   3   2
ATOM      1  C   UNL     1      -2.866  -0.023  24.810  0.00  0.00    +0.090 C 
ATOM      2  N   UNL     1      -3.657  -0.159  24.620  0.00  0.00    -0.261 NA
BRANCH   2  23
ATOM     23  C   UNL     1      -4.059  -0.796  24.957  0.00  0.00    +0.100 C 
BRANCH  23  24
ATOM     24  C   UNL     1      -3.859  -1.569  24.747  0.00  0.00    -0.006 A 
ATOM     25  C   UNL     1      -3.390  -2.024  25.251  0.00  0.00    -0.003 A 
ATOM     26  C   UNL     1      -3.190  -2.796  25.042  0.00  0.00    -0.000 A 
ATOM     27  C   UNL     1      -3.459  -3.113  24.328  0.00  0.00    -0.000 A 
ATOM     28  C   UNL     1      -3.928  -2.658  23.825  0.00  0.00    -0.000 A 
ATOM     29  C   UNL     1      -4.128  -1.885  24.034  0.00  0.00    -0.003 A 
ENDBRANCH  23  24
ENDBRANCH   2  23
ENDBRANCH   3   2
ENDBRANCH   4   3
BRANCH   6   7
ATOM      7  C   UNL     1      -4.396   3.156  24.720  0.00  0.00    +0.070 C 
BRANCH   7   8
ATOM      8  C   UNL     1      -4.337   3.501  25.466  0.00  0.00    +0.120 C 
ATOM      9  C   UNL     1      -4.277   3.847  26.214  0.00  0.00    +0.161 C 
ATOM     10  O   UNL     1      -5.099   3.826  26.288  0.00  0.00    -0.351 OA
ATOM     11  C   UNL     1      -5.158   3.481  25.542  0.00  0.00    +0.161 C 
BRANCH   8  12
ATOM     12  N   UNL     1      -3.515   3.522  25.392  0.00  0.00    -0.211 NA
BRANCH  12  13
ATOM     13  C   UNL     1      -3.085   4.134  25.742  0.00  0.00    +0.115 C 
BRANCH  13  14
ATOM     14  C   UNL     1      -2.299   4.261  25.526  0.00  0.00    -0.005 A 
ATOM     15  C   UNL     1      -2.078   4.979  25.184  0.00  0.00    -0.001 A 
ATOM     16  C   UNL     1      -1.292   5.106  24.967  0.00  0.00    +0.029 A 
ATOM     17  C   UNL     1      -0.729   4.518  25.092  0.00  0.00    +0.140 A 
ATOM     18  F   UNL     1       0.057   4.646  24.875  0.00  0.00    -0.204 F 
ATOM     19  C   UNL     1      -0.950   3.800  25.434  0.00  0.00    +0.029 A 
ATOM     20  C   UNL     1      -1.736   3.673  25.650  0.00  0.00    -0.001 A 
ENDBRANCH  13  14
ENDBRANCH  12  13
ENDBRANCH   8  12
ENDBRANCH   7   8
ENDBRANCH   6   7
TORSDOF 9
ENDMDL
MODEL 2
REMARK VINA RESULT:     -11.0      2.131      3.191
REMARK  Name = 
REMARK  9 active torsions:
REMARK  status: ('A' for Active; 'I' for Inactive)
REMARK    1  A    between atoms: N_2  and  C_3
REMARK    2  A    between atoms: N_2  and  C_23
REMARK    3  A    between atoms: C_3  and  C_4
REMARK    4  A    between atoms: C_6  and  C_7
REMARK    5  A    between atoms: C_7  and  C_8
REMARK    6  A    between atoms: C_8  and  N_12
REMARK    7  A    between atoms: N_12  and  C_13
REMARK    8  A    between atoms: C_13  and  C_14
REMARK    9  A    between atoms: C_23  and  C_24
REMARK                            x       y       z     vdW  Elec       q    Type
REMARK                         _______ _______ _______ _____ _____    ______ ____
ROOT
ATOM      4  C   UNL     1      -1.037   0.430  25.394  0.00  0.00    +0.170 A 
ATOM      5  C   UNL     1      -1.418   1.073  25.744  0.00  0.00    +0.055 A 
ATOM      6  C   UNL     1      -0.994   1.755  25.552  0.00  0.00    +0.102 A 
ATOM     21  N   UNL     1      -0.352   1.534  25.085  0.00  0.00    -0.082 NA
ATOM     22  O   UNL     1      -0.378   0.715  24.986  0.00  0.00    -0.357 OA
ENDROOT
BRANCH   4   3
ATOM      3  C   UNL     1      -1.274  -0.359  25.442  0.00  0.00    +0.141 C 
BRANCH   3   2
ATOM      1  C   UNL     1      -1.638  -0.836  24.146  0.00  0.00    +0.090 C 
ATOM      2  N   UNL     1      -1.844  -0.651  24.923  0.00  0.00    -0.261 NA
BRANCH   2  23
ATOM     23  C   UNL     1      -2.620  -0.759  25.181  0.00  0.00    +0.100 C 
BRANCH  23  24
ATOM     24  C   UNL     1      -3.098  -1.331  24.826  0.00  0.00    -0.006 A 
ATOM     25  C   UNL     1      -3.690  -1.101  24.298  0.00  0.00    -0.003 A 
ATOM     26  C   UNL     1      -4.168  -1.671  23.943  0.00  0.00    -0.000 A 
ATOM     27  C   UNL     1      -4.055  -2.471  24.115  0.00  0.00    -0.000 A 
ATOM     28  C   UNL     1      -3.464  -2.699  24.643  0.00  0.00    -0.000 A 
ATOM     29  C   UNL     1      -2.985  -2.129  24.998  0.00  0.00    -0.003 A 
ENDBRANCH  23  24
ENDBRANCH   2  23
ENDBRANCH   3   2
ENDBRANCH   4   3
BRANCH   6   7
ATOM      7  C   UNL     1      -1.180   2.523  25.788  0.00  0.00    +0.070 C 
BRANCH   7   8
ATOM      8  C   UNL     1      -1.285   3.114  25.222  0.00  0.00    +0.120 C 
ATOM      9  C   UNL     1      -1.390   3.705  24.656  0.00  0.00    +0.161 C 
ATOM     10  O   UNL     1      -0.590   3.900  24.712  0.00  0.00    -0.351 OA
ATOM     11  C   UNL     1      -0.485   3.310  25.278  0.00  0.00    +0.161 C 
BRANCH   8  12
ATOM     12  N   UNL     1      -2.085   2.919  25.166  0.00  0.00    -0.211 NA
BRANCH  12  13
ATOM     13  C   UNL     1      -2.646   3.513  25.047  0.00  0.00    +0.115 C 
BRANCH  13  14
ATOM     14  C   UNL     1      -3.450   3.327  25.054  0.00  0.00    -0.005 A 
ATOM     15  C   UNL     1      -3.928   3.588  25.674  0.00  0.00    -0.001 A 
ATOM     16  C   UNL     1      -4.731   3.402  25.680  0.00  0.00    +0.029 A 
ATOM     17  C   UNL     1      -5.057   2.956  25.069  0.00  0.00    +0.140 A 
ATOM     18  F   UNL     1      -5.861   2.770  25.076  0.00  0.00    -0.204 F 
ATOM     19  C   UNL     1      -4.579   2.694  24.449  0.00  0.00    +0.029 A 
ATOM     20  C   UNL     1      -3.775   2.880  24.442  0.00  0.00    -0.001 A 
ENDBRANCH  13  14
ENDBRANCH  12  13
ENDBRANCH   8  12
ENDBRANCH   7   8
ENDBRANCH   6   7
TORSDOF 9
ENDMDL
MODEL 3
REMARK VINA RESULT:     -10.6      2.006      5.077
REMARK  Name = 
REMARK  9 active torsions:
REMARK  status: ('A' for Active; 'I' for Inactive)
REMARK    1  A    between atoms: N_2  and  C_3
REMARK    2  A    between atoms: N_2  and  C_23
REMARK    3  A    between atoms: C_3  and  C_4
REMARK    4  A    between atoms: C_6  and  C_7
REMARK    5  A    between atoms: C_7  and  C_8
REMARK    6  A    between atoms: C_8  and  N_12
REMARK    7  A    between atoms: N_12  and  C_13
REMARK    8  A    between atoms: C_13  and  C_14
REMARK    9  A    between atoms: C_23  and  C_24
REMARK                            x       y       z     vdW  Elec       q    Type
REMARK                         _______ _______ _______ _____ _____    ______ ____
ROOT
ATOM      4  C   UNL     1      -1.110   0.706  25.140  0.00  0.00    +0.170 A 
ATOM      5  C   UNL     1      -1.838   0.553  25.498  0.00  0.00    +0.055 A 
ATOM      6  C   UNL     1      -2.174  -0.099  25.119  0.00  0.00    +0.102 A 
ATOM     21  N   UNL     1      -1.656  -0.348  24.529  0.00  0.00    -0.082 NA
ATOM     22  O   UNL     1      -0.998   0.150  24.541  0.00  0.00    -0.357 OA
ENDROOT
BRANCH   4   3
ATOM      3  C   UNL     1      -0.588   1.311  25.346  0.00  0.00    +0.141 C 
BRANCH   3   2
ATOM      1  C   UNL     1      -0.851   2.299  24.348  0.00  0.00    +0.090 C 
ATOM      2  N   UNL     1      -0.758   2.091  25.141  0.00  0.00    -0.261 NA
BRANCH   2  23
ATOM     23  C   UNL     1      -0.835   2.664  25.729  0.00  0.00    +0.100 C 
BRANCH  23  24
ATOM     24  C   UNL     1      -1.075   3.429  25.532  0.00  0.00    -0.006 A 
ATOM     25  C   UNL     1      -1.832   3.688  25.736  0.00  0.00    -0.003 A 
ATOM     26  C   UNL     1      -2.072   4.453  25.540  0.00  0.00    -0.000 A 
ATOM     27  C   UNL     1      -1.555   4.958  25.140  0.00  0.00    -0.000 A 
ATOM     28  C   UNL     1      -0.799   4.698  24.937  0.00  0.00    -0.000 A 
ATOM     29  C   UNL     1      -0.559   3.934  25.133  0.00  0.00    -0.003 A 
ENDBRANCH  23  24
ENDBRANCH   2  23
ENDBRANCH   3   2
ENDBRANCH   4   3
BRANCH   6   7
ATOM      7  C   UNL     1      -2.903  -0.442  25.300  0.00  0.00    +0.070 C 
BRANCH   7   8
ATOM      8  C   UNL     1      -3.457  -0.571  24.704  0.00  0.00    +0.120 C 
ATOM      9  C   UNL     1      -4.012  -0.701  24.106  0.00  0.00    +0.161 C 
ATOM     10  O   UNL     1      -3.727  -1.469  24.010  0.00  0.00    -0.351 OA
ATOM     11  C   UNL     1      -3.173  -1.340  24.606  0.00  0.00    +0.161 C 
BRANCH   8  12
ATOM     12  N   UNL     1      -3.742   0.197  24.801  0.00  0.00    -0.211 NA
BRANCH  12  13
ATOM     13  C   UNL     1      -4.547   0.352  24.709  0.00  0.00    +0.115 C 
BRANCH  13  14
ATOM     14  C   UNL     1      -4.842   1.106  24.870  0.00  0.00    -0.005 A 
ATOM     15  C   UNL     1      -5.322   1.228  25.530  0.00  0.00    -0.001 A 
ATOM     16  C   UNL     1      -5.617   1.982  25.691  0.00  0.00    +0.029 A 
ATOM     17  C   UNL     1      -5.433   2.612  25.194  0.00  0.00    +0.140 A 
ATOM     18  F   UNL     1      -5.728   3.366  25.354  0.00  0.00    -0.204 F 
ATOM     19  C   UNL     1      -4.953   2.490  24.533  0.00  0.00    +0.029 A 
ATOM     20  C   UNL     1      -4.658   1.736  24.373  0.00  0.00    -0.001 A 
ENDBRANCH  13  14
ENDBRANCH  12  13
ENDBRANCH   8  12
ENDBRANCH   7   8
ENDBRANCH   6   7
TORSDOF 9
ENDMDL
