REMARK  Name = 
REMARK  8 active torsions:
REMARK  status: ('A' for Active; 'I' for Inactive)
REMARK    1  A    between atoms: C_2  and  C_4
REMARK    2  A    between atoms: C_6  and  C_7
REMARK    3  A    between atoms: C_7  and  C_8
REMARK    4  A    between atoms: C_11  and  C_13
REMARK    5  A    between atoms: C_22  and  C_23
REMARK    6  A    between atoms: C_23  and  N_24
REMARK    7  A    between atoms: N_24  and  C_25
REMARK    8  A    between atoms: C_25  and  C_26
REMARK                            x       y       z     vdW  Elec       q    Type
REMARK                         _______ _______ _______ _____ _____    ______ ____
ROOT
ATOM      4  C   UNL     1       3.086  -2.488   0.000  0.00  0.00    +0.006 C 
ATOM      5  C   UNL     1       2.372  -2.076   0.000  0.00  0.00    +0.005 C 
ATOM      6  C   UNL     1       2.372  -1.251   0.000  0.00  0.00    +0.027 C 
ATOM     19  C   UNL     1       3.086  -0.838   0.000  0.00  0.00    -0.048 C 
ATOM     20  C   UNL     1       3.086  -0.013   0.000  0.00  0.00    +0.026 C 
ATOM     21  C   UNL     1       3.800  -1.251   0.000  0.00  0.00    -0.033 C 
ATOM     22  C   UNL     1       3.800  -2.076   0.000  0.00  0.00    +0.039 C 
ENDROOT
BRANCH   4   2
ATOM      1  C   UNL     1       3.800  -3.726   0.000  0.00  0.00    +0.000 C 
ATOM      2  C   UNL     1       3.086  -3.313   0.000  0.00  0.00    +0.000 C 
ATOM      3  C   UNL     1       2.372  -3.726   0.000  0.00  0.00    +0.000 C 
ENDBRANCH   4   2
BRANCH   6   7
ATOM      7  C   UNL     1       1.657  -0.838   0.000  0.00  0.00    +0.091 C 
BRANCH   7   8
ATOM      8  C   UNL     1       1.657  -0.013   0.000  0.00  0.00    +0.227 A 
ATOM      9  N   UNL     1       0.990   0.472   0.000  0.00  0.00    -0.111 NA
ATOM     10  N   UNL     1       1.244   1.256   0.000  0.00  0.00    -0.107 NA
ATOM     11  C   UNL     1       2.070   1.256   0.000  0.00  0.00    +0.250 A 
ATOM     12  O   UNL     1       2.325   0.472   0.000  0.00  0.00    -0.420 OA
BRANCH  11  13
ATOM     13  C   UNL     1       2.554   1.924   0.000  0.00  0.00    +0.055 A 
ATOM     14  C   UNL     1       2.219   2.677   0.000  0.00  0.00    +0.005 A 
ATOM     15  C   UNL     1       2.704   3.345   0.000  0.00  0.00    +0.000 A 
ATOM     16  C   UNL     1       3.524   3.259   0.000  0.00  0.00    +0.000 A 
ATOM     17  C   UNL     1       3.860   2.505   0.000  0.00  0.00    +0.000 A 
ATOM     18  C   UNL     1       3.375   1.837   0.000  0.00  0.00    +0.005 A 
ENDBRANCH  11  13
ENDBRANCH   7   8
ENDBRANCH   6   7
BRANCH  22  23
ATOM     23  C   UNL     1       4.515  -2.488   0.000  0.00  0.00    +0.094 C 
BRANCH  23  24
ATOM     24  N   UNL     1       5.229  -2.076   0.000  0.00  0.00    -0.204 NA
BRANCH  24  25
ATOM     25  C   UNL     1       5.944  -2.488   0.000  0.00  0.00    +0.165 C 
BRANCH  25  26
ATOM     26  C   UNL     1       6.658  -2.076   0.000  0.00  0.00    -0.059 C 
ATOM     27  C   UNL     1       7.373  -1.663   0.000  0.00  0.00    -0.013 C 
ENDBRANCH  25  26
ENDBRANCH  24  25
ENDBRANCH  23  24
ENDBRANCH  22  23
TORSDOF 8
