MODEL 1
REMARK VINA RESULT:      -9.6      0.000      0.000
REMARK  Name = 
REMARK  7 active torsions:
REMARK  status: ('A' for Active; 'I' for Inactive)
REMARK    1  A    between atoms: C_2  and  C_3
REMARK    2  A    between atoms: C_10  and  C_11
REMARK    3  A    between atoms: C_11  and  O_12
REMARK    4  A    between atoms: O_12  and  C_13
REMARK    5  A    between atoms: N_15  and  C_16
REMARK    6  A    between atoms: C_18  and  O_19
REMARK    7  A    between atoms: C_22  and  O_23
REMARK                            x       y       z     vdW  Elec       q    Type
REMARK                         _______ _______ _______ _____ _____    ______ ____
ROOT
ATOM     13  C   UNL     1      -3.264   0.608  24.707  0.00  0.00    +0.425 C 
ATOM     14  O   UNL     1      -3.195   0.415  23.908  0.00  0.00    -0.224 OA
ATOM     15  N   UNL     1      -3.136   0.032  25.283  0.00  0.00    -0.142 NA
ENDROOT
BRANCH  15  16
ATOM     16  C   UNL     1      -2.940  -0.738  25.060  0.00  0.00    +0.083 A 
ATOM     17  C   UNL     1      -2.149  -0.946  24.950  0.00  0.00    +0.054 A 
ATOM     18  C   UNL     1      -1.952  -1.716  24.727  0.00  0.00    +0.143 A 
ATOM     21  C   UNL     1      -2.546  -2.277  24.613  0.00  0.00    +0.074 A 
ATOM     22  C   UNL     1      -3.337  -2.069  24.723  0.00  0.00    +0.143 A 
ATOM     25  C   UNL     1      -3.534  -1.299  24.946  0.00  0.00    +0.054 A 
BRANCH  18  19
ATOM     19  O   UNL     1      -1.162  -1.924  24.617  0.00  0.00    -0.471 OA
ATOM     20  C   UNL     1      -0.609  -1.777  25.212  0.00  0.00    +0.252 C 
ENDBRANCH  18  19
BRANCH  22  23
ATOM     23  O   UNL     1      -3.931  -2.630  24.609  0.00  0.00    -0.471 OA
ATOM     24  C   UNL     1      -4.197  -2.800  23.847  0.00  0.00    +0.252 C 
ENDBRANCH  22  23
ENDBRANCH  15  16
BRANCH  13  12
ATOM     12  O   UNL     1      -3.461   1.378  24.930  0.00  0.00    -0.432 OA
BRANCH  12  11
ATOM     11  C   UNL     1      -3.130   2.020  24.532  0.00  0.00    +0.226 C 
BRANCH  11  10
ATOM      3  C   UNL     1      -2.079   4.053  25.147  0.00  0.00    +0.016 C 
ATOM      4  C   UNL     1      -1.732   3.616  24.604  0.00  0.00    +0.072 C 
ATOM      5  N   UNL     1      -2.439   3.441  24.993  0.00  0.00    -0.271 NA
ATOM      6  C   UNL     1      -2.630   4.228  25.659  0.00  0.00    +0.072 C 
ATOM      7  C   UNL     1      -3.004   4.507  26.115  0.00  0.00    +0.017 C 
ATOM      8  C   UNL     1      -2.773   3.874  25.524  0.00  0.00    +0.004 C 
ATOM      9  C   UNL     1      -3.320   3.191  25.456  0.00  0.00    +0.020 C 
ATOM     10  C   UNL     1      -3.012   2.734  24.928  0.00  0.00    +0.102 C 
BRANCH   3   2
ATOM      1  C   UNL     1      -1.004   4.982  24.987  0.00  0.00    +0.000 C 
ATOM      2  C   UNL     1      -1.707   4.760  25.357  0.00  0.00    +0.001 C 
ENDBRANCH   3   2
ENDBRANCH  11  10
ENDBRANCH  12  11
ENDBRANCH  13  12
TORSDOF 7
ENDMDL
MODEL 2
REMARK VINA RESULT:      -9.5      1.560      5.334
REMARK  Name = 
REMARK  7 active torsions:
REMARK  status: ('A' for Active; 'I' for Inactive)
REMARK    1  A    between atoms: C_2  and  C_3
REMARK    2  A    between atoms: C_10  and  C_11
REMARK    3  A    between atoms: C_11  and  O_12
REMARK    4  A    between atoms: O_12  and  C_13
REMARK    5  A    between atoms: N_15  and  C_16
REMARK    6  A    between atoms: C_18  and  O_19
REMARK    7  A    between atoms: C_22  and  O_23
REMARK                            x       y       z     vdW  Elec       q    Type
REMARK                         _______ _______ _______ _____ _____    ______ ____
ROOT
ATOM     13  C   UNL     1      -2.999   1.784  24.836  0.00  0.00    +0.425 C 
ATOM     14  O   UNL     1      -3.189   2.094  25.577  0.00  0.00    -0.224 OA
ATOM     15  N   UNL     1      -2.330   2.054  24.436  0.00  0.00    -0.142 NA
ENDROOT
BRANCH  15  16
ATOM     16  C   UNL     1      -1.851   2.633  24.776  0.00  0.00    +0.083 A 
ATOM     17  C   UNL     1      -1.112   2.429  25.081  0.00  0.00    +0.054 A 
ATOM     18  C   UNL     1      -0.632   3.008  25.422  0.00  0.00    +0.143 A 
ATOM     21  C   UNL     1      -0.891   3.790  25.457  0.00  0.00    +0.074 A 
ATOM     22  C   UNL     1      -1.630   3.994  25.152  0.00  0.00    +0.143 A 
ATOM     25  C   UNL     1      -2.110   3.415  24.812  0.00  0.00    +0.054 A 
BRANCH  18  19
ATOM     19  O   UNL     1       0.107   2.804  25.726  0.00  0.00    -0.471 OA
ATOM     20  C   UNL     1       0.166   2.466  26.476  0.00  0.00    +0.252 C 
ENDBRANCH  18  19
BRANCH  22  23
ATOM     23  O   UNL     1      -1.890   4.776  25.188  0.00  0.00    -0.471 OA
ATOM     24  C   UNL     1      -1.392   5.387  24.945  0.00  0.00    +0.252 C 
ENDBRANCH  22  23
ENDBRANCH  15  16
BRANCH  13  12
ATOM     12  O   UNL     1      -3.479   1.206  24.497  0.00  0.00    -0.432 OA
BRANCH  12  11
ATOM     11  C   UNL     1      -3.785   0.597  24.962  0.00  0.00    +0.226 C 
BRANCH  11  10
ATOM      3  C   UNL     1      -3.683  -1.759  24.738  0.00  0.00    +0.016 C 
ATOM      4  C   UNL     1      -3.333  -1.439  25.355  0.00  0.00    +0.072 C 
ATOM      5  N   UNL     1      -3.742  -1.035  24.762  0.00  0.00    -0.271 NA
ATOM      6  C   UNL     1      -4.090  -1.753  24.082  0.00  0.00    +0.072 C 
ATOM      7  C   UNL     1      -4.413  -1.909  23.536  0.00  0.00    +0.017 C 
ATOM      8  C   UNL     1      -4.082  -1.356  24.160  0.00  0.00    +0.004 C 
ATOM      9  C   UNL     1      -4.243  -0.501  24.043  0.00  0.00    +0.020 C 
ATOM     10  C   UNL     1      -3.912  -0.148  24.634  0.00  0.00    +0.102 C 
BRANCH   3   2
ATOM      1  C   UNL     1      -3.216  -3.023  25.215  0.00  0.00    +0.000 C 
ATOM      2  C   UNL     1      -3.643  -2.581  24.666  0.00  0.00    +0.001 C 
ENDBRANCH   3   2
ENDBRANCH  11  10
ENDBRANCH  12  11
ENDBRANCH  13  12
TORSDOF 7
ENDMDL
MODEL 3
REMARK VINA RESULT:      -9.2      1.352      5.494
REMARK  Name = 
REMARK  7 active torsions:
REMARK  status: ('A' for Active; 'I' for Inactive)
REMARK    1  A    between atoms: C_2  and  C_3
REMARK    2  A    between atoms: C_10  and  C_11
REMARK    3  A    between atoms: C_11  and  O_12
REMARK    4  A    between atoms: O_12  and  C_13
REMARK    5  A    between atoms: N_15  and  C_16
REMARK    6  A    between atoms: C_18  and  O_19
REMARK    7  A    between atoms: C_22  and  O_23
REMARK                            x       y       z     vdW  Elec       q    Type
REMARK                         _______ _______ _______ _____ _____    ______ ____
ROOT
ATOM     13  C   UNL     1      -2.022   1.589  24.702  0.00  0.00    +0.425 C 
ATOM     14  O   UNL     1      -2.021   1.980  23.975  0.00  0.00    -0.224 OA
ATOM     15  N   UNL     1      -2.229   1.996  25.388  0.00  0.00    -0.142 NA
ENDROOT
BRANCH  15  16
ATOM     16  C   UNL     1      -2.435   2.795  25.349  0.00  0.00    +0.083 A 
ATOM     17  C   UNL     1      -1.864   3.375  25.482  0.00  0.00    +0.054 A 
ATOM     18  C   UNL     1      -2.070   4.173  25.442  0.00  0.00    +0.143 A 
ATOM     21  C   UNL     1      -2.847   4.391  25.269  0.00  0.00    +0.074 A 
ATOM     22  C   UNL     1      -3.418   3.811  25.135  0.00  0.00    +0.143 A 
ATOM     25  C   UNL     1      -3.212   3.012  25.175  0.00  0.00    +0.054 A 
BRANCH  18  19
ATOM     19  O   UNL     1      -1.499   4.753  25.576  0.00  0.00    -0.471 OA
ATOM     20  C   UNL     1      -1.212   5.203  24.947  0.00  0.00    +0.252 C 
ENDBRANCH  18  19
BRANCH  22  23
ATOM     23  O   UNL     1      -4.194   4.028  24.961  0.00  0.00    -0.471 OA
ATOM     24  C   UNL     1      -4.809   3.798  25.461  0.00  0.00    +0.252 C 
ENDBRANCH  22  23
ENDBRANCH  15  16
BRANCH  13  12
ATOM     12  O   UNL     1      -1.816   0.791  24.741  0.00  0.00    -0.432 OA
BRANCH  12  11
ATOM     11  C   UNL     1      -2.163   0.249  24.225  0.00  0.00    +0.226 C 
BRANCH  11  10
ATOM      3  C   UNL     1      -2.916  -1.982  24.486  0.00  0.00    +0.016 C 
ATOM      4  C   UNL     1      -3.436  -1.449  24.261  0.00  0.00    +0.072 C 
ATOM      5  N   UNL     1      -2.638  -1.314  24.420  0.00  0.00    -0.271 NA
ATOM      6  C   UNL     1      -2.218  -2.234  24.697  0.00  0.00    +0.072 C 
ATOM      7  C   UNL     1      -1.703  -2.590  24.886  0.00  0.00    +0.017 C 
ATOM      8  C   UNL     1      -2.134  -1.842  24.640  0.00  0.00    +0.004 C 
ATOM      9  C   UNL     1      -1.650  -1.111  24.609  0.00  0.00    +0.020 C 
ATOM     10  C   UNL     1      -2.128  -0.557  24.390  0.00  0.00    +0.102 C 
BRANCH   3   2
ATOM      1  C   UNL     1      -3.930  -2.971  24.292  0.00  0.00    +0.000 C 
ATOM      2  C   UNL     1      -3.186  -2.758  24.575  0.00  0.00    +0.001 C 
ENDBRANCH   3   2
ENDBRANCH  11  10
ENDBRANCH  12  11
ENDBRANCH  13  12
TORSDOF 7
ENDMDL
MODEL 4
REMARK VINA RESULT:      -8.9      1.570      5.657
REMARK  Name = 
REMARK  7 active torsions:
REMARK  status: ('A' for Active; 'I' for Inactive)
REMARK    1  A    between atoms: C_2  and  C_3
REMARK    2  A    between atoms: C_10  and  C_11
REMARK    3  A    between atoms: C_11  and  O_12
REMARK    4  A    between atoms: O_12  and  C_13
REMARK    5  A    between atoms: N_15  and  C_16
REMARK    6  A    between atoms: C_18  and  O_19
REMARK    7  A    between atoms: C_22  and  O_23
REMARK                            x       y       z     vdW  Elec       q    Type
REMARK                         _______ _______ _______ _____ _____    ______ ____
ROOT
ATOM     13  C   UNL     1      -4.478   1.228  24.620  0.00  0.00    +0.425 C 
ATOM     14  O   UNL     1      -4.494   1.683  23.931  0.00  0.00    -0.224 OA
ATOM     15  N   UNL     1      -4.457   1.598  25.357  0.00  0.00    -0.142 NA
ENDROOT
BRANCH  15  16
ATOM     16  C   UNL     1      -4.451   2.422  25.406  0.00  0.00    +0.083 A 
ATOM     17  C   UNL     1      -5.148   2.829  25.575  0.00  0.00    +0.054 A 
ATOM     18  C   UNL     1      -5.143   3.653  25.624  0.00  0.00    +0.143 A 
ATOM     21  C   UNL     1      -4.441   4.069  25.504  0.00  0.00    +0.074 A 
ATOM     22  C   UNL     1      -3.744   3.661  25.334  0.00  0.00    +0.143 A 
ATOM     25  C   UNL     1      -3.749   2.838  25.285  0.00  0.00    +0.054 A 
BRANCH  18  19
ATOM     19  O   UNL     1      -5.840   4.061  25.793  0.00  0.00    -0.471 OA
ATOM     20  C   UNL     1      -6.014   4.763  25.398  0.00  0.00    +0.252 C 
ENDBRANCH  18  19
BRANCH  22  23
ATOM     23  O   UNL     1      -3.042   4.078  25.214  0.00  0.00    -0.471 OA
ATOM     24  C   UNL     1      -2.477   4.115  25.814  0.00  0.00    +0.252 C 
ENDBRANCH  22  23
ENDBRANCH  15  16
BRANCH  13  12
ATOM     12  O   UNL     1      -4.483   0.405  24.570  0.00  0.00    -0.432 OA
BRANCH  12  11
ATOM     11  C   UNL     1      -3.946   0.017  24.078  0.00  0.00    +0.226 C 
BRANCH  11  10
ATOM      3  C   UNL     1      -2.726  -1.979  24.452  0.00  0.00    +0.016 C 
ATOM      4  C   UNL     1      -2.331  -1.309  24.448  0.00  0.00    +0.072 C 
ATOM      5  N   UNL     1      -3.144  -1.396  24.333  0.00  0.00    -0.271 NA
ATOM      6  C   UNL     1      -3.358  -2.421  24.399  0.00  0.00    +0.072 C 
ATOM      7  C   UNL     1      -3.786  -2.914  24.381  0.00  0.00    +0.017 C 
ATOM      8  C   UNL     1      -3.524  -2.057  24.339  0.00  0.00    +0.004 C 
ATOM      9  C   UNL     1      -4.157  -1.467  24.188  0.00  0.00    +0.020 C 
ATOM     10  C   UNL     1      -3.807  -0.789  24.176  0.00  0.00    +0.102 C 
BRANCH   3   2
ATOM      1  C   UNL     1      -1.479  -2.635  24.691  0.00  0.00    +0.000 C 
ATOM      2  C   UNL     1      -2.295  -2.672  24.582  0.00  0.00    +0.001 C 
ENDBRANCH   3   2
ENDBRANCH  11  10
ENDBRANCH  12  11
ENDBRANCH  13  12
TORSDOF 7
ENDMDL
MODEL 5
REMARK VINA RESULT:      -8.7      2.198      3.245
REMARK  Name = 
REMARK  7 active torsions:
REMARK  status: ('A' for Active; 'I' for Inactive)
REMARK    1  A    between atoms: C_2  and  C_3
REMARK    2  A    between atoms: C_10  and  C_11
REMARK    3  A    between atoms: C_11  and  O_12
REMARK    4  A    between atoms: O_12  and  C_13
REMARK    5  A    between atoms: N_15  and  C_16
REMARK    6  A    between atoms: C_18  and  O_19
REMARK    7  A    between atoms: C_22  and  O_23
REMARK                            x       y       z     vdW  Elec       q    Type
REMARK                         _______ _______ _______ _____ _____    ______ ____
ROOT
ATOM     13  C   UNL     1      -1.921   1.571  23.873  0.00  0.00    +0.425 C 
ATOM     14  O   UNL     1      -1.993   1.174  23.154  0.00  0.00    -0.224 OA
ATOM     15  N   UNL     1      -1.337   1.347  24.411  0.00  0.00    -0.142 NA
ENDROOT
BRANCH  15  16
ATOM     16  C   UNL     1      -0.825   0.725  24.229  0.00  0.00    +0.083 A 
ATOM     17  C   UNL     1      -1.008  -0.043  24.469  0.00  0.00    +0.054 A 
ATOM     18  C   UNL     1      -0.496  -0.664  24.287  0.00  0.00    +0.143 A 
ATOM     21  C   UNL     1       0.198  -0.518  23.866  0.00  0.00    +0.074 A 
ATOM     22  C   UNL     1       0.381   0.250  23.626  0.00  0.00    +0.143 A 
ATOM     25  C   UNL     1      -0.131   0.872  23.808  0.00  0.00    +0.054 A 
BRANCH  18  19
ATOM     19  O   UNL     1      -0.679  -1.432  24.526  0.00  0.00    -0.471 OA
ATOM     20  C   UNL     1      -0.602  -1.647  25.319  0.00  0.00    +0.252 C 
ENDBRANCH  18  19
BRANCH  22  23
ATOM     23  O   UNL     1       1.075   0.397  23.205  0.00  0.00    -0.471 OA
ATOM     24  C   UNL     1       1.286  -0.093  22.576  0.00  0.00    +0.252 C 
ENDBRANCH  22  23
ENDBRANCH  15  16
BRANCH  13  12
ATOM     12  O   UNL     1      -2.432   2.192  24.054  0.00  0.00    -0.432 OA
BRANCH  12  11
ATOM     11  C   UNL     1      -3.238   2.126  23.888  0.00  0.00    +0.226 C 
BRANCH  11  10
ATOM      3  C   UNL     1      -5.171   2.469  25.215  0.00  0.00    +0.016 C 
ATOM      4  C   UNL     1      -5.048   1.754  24.933  0.00  0.00    +0.072 C 
ATOM      5  N   UNL     1      -4.566   2.414  24.815  0.00  0.00    -0.271 NA
ATOM      6  C   UNL     1      -5.010   3.216  25.325  0.00  0.00    +0.072 C 
ATOM      7  C   UNL     1      -5.011   3.844  25.504  0.00  0.00    +0.017 C 
ATOM      8  C   UNL     1      -4.694   3.112  25.095  0.00  0.00    +0.004 C 
ATOM      9  C   UNL     1      -3.945   3.214  24.648  0.00  0.00    +0.020 C 
ATOM     10  C   UNL     1      -3.788   2.528  24.352  0.00  0.00    +0.102 C 
BRANCH   3   2
ATOM      1  C   UNL     1      -6.318   1.937  25.881  0.00  0.00    +0.000 C 
ATOM      2  C   UNL     1      -5.847   2.582  25.676  0.00  0.00    +0.001 C 
ENDBRANCH   3   2
ENDBRANCH  11  10
ENDBRANCH  12  11
ENDBRANCH  13  12
TORSDOF 7
ENDMDL
