MODEL 1
REMARK VINA RESULT:     -12.0      0.000      0.000
REMARK  Name = 
REMARK  6 active torsions:
REMARK  status: ('A' for Active; 'I' for Inactive)
REMARK    1  A    between atoms: C_4  and  C_14
REMARK    2  A    between atoms: N_5  and  C_6
REMARK    3  A    between atoms: C_6  and  C_7
REMARK    4  A    between atoms: C_16  and  C_17
REMARK    5  A    between atoms: C_17  and  S_18
REMARK    6  A    between atoms: S_18  and  C_21
REMARK                            x       y       z     vdW  Elec       q    Type
REMARK                         _______ _______ _______ _____ _____    ______ ____
ROOT
ATOM     14  C   UNL     1      -1.686   1.490  24.915  0.00  0.00    +0.251 A 
ATOM     15  N   UNL     1      -2.412   1.243  25.218  0.00  0.00    -0.192 NA
ATOM     16  C   UNL     1      -2.793   0.799  24.636  0.00  0.00    +0.205 A 
ATOM     28  N   UNL     1      -2.303   0.772  23.973  0.00  0.00    -0.059 NA
ATOM     29  O   UNL     1      -1.619   1.199  24.145  0.00  0.00    -0.336 OA
ENDROOT
BRANCH  14   4
ATOM      1  O   UNL     1       0.497   2.290  26.655  0.00  0.00    -0.222 OA
ATOM      2  C   UNL     1      -0.122   2.316  26.110  0.00  0.00    +0.170 C 
ATOM      3  C   UNL     1      -0.568   1.672  25.852  0.00  0.00    +0.060 C 
ATOM      4  C   UNL     1      -1.126   1.948  25.310  0.00  0.00    +0.140 C 
ATOM      5  N   UNL     1      -1.024   2.764  25.234  0.00  0.00    -0.260 NA
ATOM     13  C   UNL     1      -0.404   2.991  25.728  0.00  0.00    +0.106 C 
BRANCH   5   6
ATOM      6  C   UNL     1      -1.465   3.264  24.748  0.00  0.00    +0.100 C 
BRANCH   6   7
ATOM      7  C   UNL     1      -1.427   4.082  24.854  0.00  0.00    -0.006 A 
ATOM      8  C   UNL     1      -0.799   4.510  24.535  0.00  0.00    -0.003 A 
ATOM      9  C   UNL     1      -0.761   5.327  24.641  0.00  0.00    -0.000 A 
ATOM     10  C   UNL     1      -1.351   5.716  25.067  0.00  0.00    -0.000 A 
ATOM     11  C   UNL     1      -1.979   5.287  25.386  0.00  0.00    -0.000 A 
ATOM     12  C   UNL     1      -2.017   4.470  25.280  0.00  0.00    -0.003 A 
ENDBRANCH   6   7
ENDBRANCH   5   6
ENDBRANCH  14   4
BRANCH  16  17
ATOM     17  C   UNL     1      -3.535   0.444  24.706  0.00  0.00    +0.224 C 
BRANCH  17  18
ATOM     18  S   UNL     1      -3.610  -0.374  24.626  0.00  0.00    +0.016 S 
ATOM     19  O   UNL     1      -3.505  -0.463  25.439  0.00  0.00    -0.168 OA
ATOM     20  O   UNL     1      -3.715  -0.285  23.812  0.00  0.00    -0.168 OA
BRANCH  18  21
ATOM     21  C   UNL     1      -3.685  -1.192  24.546  0.00  0.00    +0.106 A 
ATOM     22  C   UNL     1      -4.111  -1.506  23.913  0.00  0.00    +0.021 A 
ATOM     23  C   UNL     1      -4.186  -2.324  23.834  0.00  0.00    +0.031 A 
ATOM     24  C   UNL     1      -3.837  -2.826  24.387  0.00  0.00    +0.140 A 
ATOM     25  F   UNL     1      -3.913  -3.644  24.307  0.00  0.00    -0.204 F 
ATOM     26  C   UNL     1      -3.412  -2.512  25.020  0.00  0.00    +0.031 A 
ATOM     27  C   UNL     1      -3.336  -1.694  25.100  0.00  0.00    +0.021 A 
ENDBRANCH  18  21
ENDBRANCH  17  18
ENDBRANCH  16  17
TORSDOF 6
ENDMDL
MODEL 2
REMARK VINA RESULT:     -11.9      1.720      2.283
REMARK  Name = 
REMARK  6 active torsions:
REMARK  status: ('A' for Active; 'I' for Inactive)
REMARK    1  A    between atoms: C_4  and  C_14
REMARK    2  A    between atoms: N_5  and  C_6
REMARK    3  A    between atoms: C_6  and  C_7
REMARK    4  A    between atoms: C_16  and  C_17
REMARK    5  A    between atoms: C_17  and  S_18
REMARK    6  A    between atoms: S_18  and  C_21
REMARK                            x       y       z     vdW  Elec       q    Type
REMARK                         _______ _______ _______ _____ _____    ______ ____
ROOT
ATOM     14  C   UNL     1      -0.878   1.505  24.566  0.00  0.00    +0.251 A 
ATOM     15  N   UNL     1      -0.975   0.889  25.106  0.00  0.00    -0.192 NA
ATOM     16  C   UNL     1      -0.691   0.198  24.756  0.00  0.00    +0.205 A 
ATOM     28  N   UNL     1      -0.419   0.386  24.001  0.00  0.00    -0.059 NA
ATOM     29  O   UNL     1      -0.534   1.194  23.883  0.00  0.00    -0.336 OA
ENDROOT
BRANCH  14   4
ATOM      1  O   UNL     1      -0.749   4.321  25.267  0.00  0.00    -0.222 OA
ATOM      2  C   UNL     1      -1.028   3.588  25.010  0.00  0.00    +0.170 C 
ATOM      3  C   UNL     1      -0.593   2.888  24.978  0.00  0.00    +0.060 C 
ATOM      4  C   UNL     1      -1.087   2.293  24.688  0.00  0.00    +0.140 C 
ATOM      5  N   UNL     1      -1.827   2.627  24.541  0.00  0.00    -0.260 NA
ATOM     13  C   UNL     1      -1.791   3.427  24.740  0.00  0.00    +0.106 C 
BRANCH   5   6
ATOM      6  C   UNL     1      -2.488   2.231  24.247  0.00  0.00    +0.100 C 
BRANCH   6   7
ATOM      7  C   UNL     1      -3.244   2.537  24.374  0.00  0.00    -0.006 A 
ATOM      8  C   UNL     1      -3.656   2.347  25.063  0.00  0.00    -0.003 A 
ATOM      9  C   UNL     1      -4.411   2.653  25.189  0.00  0.00    -0.000 A 
ATOM     10  C   UNL     1      -4.755   3.150  24.627  0.00  0.00    -0.000 A 
ATOM     11  C   UNL     1      -4.343   3.339  23.938  0.00  0.00    -0.000 A 
ATOM     12  C   UNL     1      -3.587   3.033  23.811  0.00  0.00    -0.003 A 
ENDBRANCH   6   7
ENDBRANCH   5   6
ENDBRANCH  14   4
BRANCH  16  17
ATOM     17  C   UNL     1      -0.682  -0.552  25.102  0.00  0.00    +0.224 C 
BRANCH  17  18
ATOM     18  S   UNL     1      -1.336  -1.049  25.029  0.00  0.00    +0.016 S 
ATOM     19  O   UNL     1      -1.589  -0.825  25.781  0.00  0.00    -0.168 OA
ATOM     20  O   UNL     1      -1.083  -1.271  24.275  0.00  0.00    -0.168 OA
BRANCH  18  21
ATOM     21  C   UNL     1      -1.991  -1.545  24.956  0.00  0.00    +0.106 A 
ATOM     22  C   UNL     1      -1.922  -2.261  24.552  0.00  0.00    +0.021 A 
ATOM     23  C   UNL     1      -2.577  -2.757  24.479  0.00  0.00    +0.031 A 
ATOM     24  C   UNL     1      -3.300  -2.538  24.811  0.00  0.00    +0.140 A 
ATOM     25  F   UNL     1      -3.954  -3.035  24.738  0.00  0.00    -0.204 F 
ATOM     26  C   UNL     1      -3.369  -1.823  25.215  0.00  0.00    +0.031 A 
ATOM     27  C   UNL     1      -2.714  -1.326  25.288  0.00  0.00    +0.021 A 
ENDBRANCH  18  21
ENDBRANCH  17  18
ENDBRANCH  16  17
TORSDOF 6
ENDMDL
MODEL 3
REMARK VINA RESULT:     -11.9      2.391      4.820
REMARK  Name = 
REMARK  6 active torsions:
REMARK  status: ('A' for Active; 'I' for Inactive)
REMARK    1  A    between atoms: C_4  and  C_14
REMARK    2  A    between atoms: N_5  and  C_6
REMARK    3  A    between atoms: C_6  and  C_7
REMARK    4  A    between atoms: C_16  and  C_17
REMARK    5  A    between atoms: C_17  and  S_18
REMARK    6  A    between atoms: S_18  and  C_21
REMARK                            x       y       z     vdW  Elec       q    Type
REMARK                         _______ _______ _______ _____ _____    ______ ____
ROOT
ATOM     14  C   UNL     1      -1.265   1.063  24.982  0.00  0.00    +0.251 A 
ATOM     15  N   UNL     1      -1.708   1.609  24.549  0.00  0.00    -0.192 NA
ATOM     16  C   UNL     1      -1.773   2.297  25.000  0.00  0.00    +0.205 A 
ATOM     28  N   UNL     1      -1.371   2.177  25.710  0.00  0.00    -0.059 NA
ATOM     29  O   UNL     1      -1.057   1.415  25.699  0.00  0.00    -0.336 OA
ENDROOT
BRANCH  14   4
ATOM      1  O   UNL     1       0.200  -1.192  23.884  0.00  0.00    -0.222 OA
ATOM      2  C   UNL     1      -0.391  -0.736  24.236  0.00  0.00    +0.170 C 
ATOM      3  C   UNL     1      -0.355   0.075  24.384  0.00  0.00    +0.060 C 
ATOM      4  C   UNL     1      -1.065   0.300  24.740  0.00  0.00    +0.140 C 
ATOM      5  N   UNL     1      -1.539  -0.371  24.813  0.00  0.00    -0.260 NA
ATOM     13  C   UNL     1      -1.122  -1.012  24.501  0.00  0.00    +0.106 C 
BRANCH   5   6
ATOM      6  C   UNL     1      -2.295  -0.398  25.139  0.00  0.00    +0.100 C 
BRANCH   6   7
ATOM      7  C   UNL     1      -2.816  -1.003  24.927  0.00  0.00    -0.006 A 
ATOM      8  C   UNL     1      -3.316  -0.908  24.278  0.00  0.00    -0.003 A 
ATOM      9  C   UNL     1      -3.836  -1.512  24.066  0.00  0.00    -0.000 A 
ATOM     10  C   UNL     1      -3.856  -2.212  24.503  0.00  0.00    -0.000 A 
ATOM     11  C   UNL     1      -3.355  -2.307  25.152  0.00  0.00    -0.000 A 
ATOM     12  C   UNL     1      -2.835  -1.702  25.364  0.00  0.00    -0.003 A 
ENDBRANCH   6   7
ENDBRANCH   5   6
ENDBRANCH  14   4
BRANCH  16  17
ATOM     17  C   UNL     1      -2.171   2.985  24.778  0.00  0.00    +0.224 C 
BRANCH  17  18
ATOM     18  S   UNL     1      -2.977   3.065  24.936  0.00  0.00    +0.016 S 
ATOM     19  O   UNL     1      -3.149   2.843  24.160  0.00  0.00    -0.168 OA
ATOM     20  O   UNL     1      -2.804   3.286  25.711  0.00  0.00    -0.168 OA
BRANCH  18  21
ATOM     21  C   UNL     1      -3.783   3.144  25.092  0.00  0.00    +0.106 A 
ATOM     22  C   UNL     1      -4.046   3.732  25.608  0.00  0.00    +0.021 A 
ATOM     23  C   UNL     1      -4.852   3.811  25.765  0.00  0.00    +0.031 A 
ATOM     24  C   UNL     1      -5.394   3.303  25.406  0.00  0.00    +0.140 A 
ATOM     25  F   UNL     1      -6.200   3.383  25.563  0.00  0.00    -0.204 F 
ATOM     26  C   UNL     1      -5.131   2.716  24.890  0.00  0.00    +0.031 A 
ATOM     27  C   UNL     1      -4.325   2.636  24.733  0.00  0.00    +0.021 A 
ENDBRANCH  18  21
ENDBRANCH  17  18
ENDBRANCH  16  17
TORSDOF 6
ENDMDL
MODEL 4
REMARK VINA RESULT:     -11.9      2.559      5.210
REMARK  Name = 
REMARK  6 active torsions:
REMARK  status: ('A' for Active; 'I' for Inactive)
REMARK    1  A    between atoms: C_4  and  C_14
REMARK    2  A    between atoms: N_5  and  C_6
REMARK    3  A    between atoms: C_6  and  C_7
REMARK    4  A    between atoms: C_16  and  C_17
REMARK    5  A    between atoms: C_17  and  S_18
REMARK    6  A    between atoms: S_18  and  C_21
REMARK                            x       y       z     vdW  Elec       q    Type
REMARK                         _______ _______ _______ _____ _____    ______ ____
ROOT
ATOM     14  C   UNL     1      -4.297   0.270  24.755  0.00  0.00    +0.251 A 
ATOM     15  N   UNL     1      -4.153   0.966  24.336  0.00  0.00    -0.192 NA
ATOM     16  C   UNL     1      -4.517   1.587  24.739  0.00  0.00    +0.205 A 
ATOM     28  N   UNL     1      -4.886   1.275  25.408  0.00  0.00    -0.059 NA
ATOM     29  O   UNL     1      -4.751   0.462  25.418  0.00  0.00    -0.336 OA
ENDROOT
BRANCH  14   4
ATOM      1  O   UNL     1      -4.203  -2.417  23.658  0.00  0.00    -0.222 OA
ATOM      2  C   UNL     1      -3.992  -1.719  24.045  0.00  0.00    +0.170 C 
ATOM      3  C   UNL     1      -4.464  -1.047  24.125  0.00  0.00    +0.060 C 
ATOM      4  C   UNL     1      -4.035  -0.484  24.549  0.00  0.00    +0.140 C 
ATOM      5  N   UNL     1      -3.298  -0.808  24.731  0.00  0.00    -0.260 NA
ATOM     13  C   UNL     1      -3.272  -1.571  24.419  0.00  0.00    +0.106 C 
BRANCH   5   6
ATOM      6  C   UNL     1      -2.695  -0.434  25.150  0.00  0.00    +0.100 C 
BRANCH   6   7
ATOM      7  C   UNL     1      -1.912  -0.677  25.052  0.00  0.00    -0.006 A 
ATOM      8  C   UNL     1      -1.444  -0.334  24.466  0.00  0.00    -0.003 A 
ATOM      9  C   UNL     1      -0.662  -0.576  24.367  0.00  0.00    -0.000 A 
ATOM     10  C   UNL     1      -0.347  -1.163  24.856  0.00  0.00    -0.000 A 
ATOM     11  C   UNL     1      -0.815  -1.506  25.442  0.00  0.00    -0.000 A 
ATOM     12  C   UNL     1      -1.598  -1.263  25.540  0.00  0.00    -0.003 A 
ENDBRANCH   6   7
ENDBRANCH   5   6
ENDBRANCH  14   4
BRANCH  16  17
ATOM     17  C   UNL     1      -4.513   2.380  24.513  0.00  0.00    +0.224 C 
BRANCH  17  18
ATOM     18  S   UNL     1      -3.892   2.872  24.746  0.00  0.00    +0.016 S 
ATOM     19  O   UNL     1      -4.244   2.963  25.486  0.00  0.00    -0.168 OA
ATOM     20  O   UNL     1      -3.542   2.781  24.004  0.00  0.00    -0.168 OA
BRANCH  18  21
ATOM     21  C   UNL     1      -3.273   3.364  24.979  0.00  0.00    +0.106 A 
ATOM     22  C   UNL     1      -3.379   3.889  25.607  0.00  0.00    +0.021 A 
ATOM     23  C   UNL     1      -2.759   4.381  25.840  0.00  0.00    +0.031 A 
ATOM     24  C   UNL     1      -2.035   4.349  25.447  0.00  0.00    +0.140 A 
ATOM     25  F   UNL     1      -1.416   4.841  25.681  0.00  0.00    -0.204 F 
ATOM     26  C   UNL     1      -1.929   3.824  24.820  0.00  0.00    +0.031 A 
ATOM     27  C   UNL     1      -2.549   3.332  24.585  0.00  0.00    +0.021 A 
ENDBRANCH  18  21
ENDBRANCH  17  18
ENDBRANCH  16  17
TORSDOF 6
ENDMDL
MODEL 5
REMARK VINA RESULT:     -11.8      2.432      5.225
REMARK  Name = 
REMARK  6 active torsions:
REMARK  status: ('A' for Active; 'I' for Inactive)
REMARK    1  A    between atoms: C_4  and  C_14
REMARK    2  A    between atoms: N_5  and  C_6
REMARK    3  A    between atoms: C_6  and  C_7
REMARK    4  A    between atoms: C_16  and  C_17
REMARK    5  A    between atoms: C_17  and  S_18
REMARK    6  A    between atoms: S_18  and  C_21
REMARK                            x       y       z     vdW  Elec       q    Type
REMARK                         _______ _______ _______ _____ _____    ______ ____
ROOT
ATOM     14  C   UNL     1      -0.568   0.317  24.616  0.00  0.00    +0.251 A 
ATOM     15  N   UNL     1      -0.456   0.877  25.211  0.00  0.00    -0.192 NA
ATOM     16  C   UNL     1      -0.073   1.528  24.879  0.00  0.00    +0.205 A 
ATOM     28  N   UNL     1       0.053   1.371  24.079  0.00  0.00    -0.059 NA
ATOM     29  O   UNL     1      -0.253   0.622  23.916  0.00  0.00    -0.336 OA
ENDROOT
BRANCH  14   4
ATOM      1  O   UNL     1      -0.991  -2.507  25.144  0.00  0.00    -0.222 OA
ATOM      2  C   UNL     1      -1.125  -1.717  24.947  0.00  0.00    +0.170 C 
ATOM      3  C   UNL     1      -0.556  -1.119  24.929  0.00  0.00    +0.060 C 
ATOM      4  C   UNL     1      -0.930  -0.419  24.704  0.00  0.00    +0.140 C 
ATOM      5  N   UNL     1      -1.729  -0.584  24.583  0.00  0.00    -0.260 NA
ATOM     13  C   UNL     1      -1.849  -1.386  24.733  0.00  0.00    +0.106 C 
BRANCH   5   6
ATOM      6  C   UNL     1      -2.306  -0.042  24.352  0.00  0.00    +0.100 C 
BRANCH   6   7
ATOM      7  C   UNL     1      -3.106  -0.222  24.454  0.00  0.00    -0.006 A 
ATOM      8  C   UNL     1      -3.497   0.012  25.141  0.00  0.00    -0.003 A 
ATOM      9  C   UNL     1      -4.296  -0.168  25.243  0.00  0.00    -0.000 A 
ATOM     10  C   UNL     1      -4.703  -0.582  24.656  0.00  0.00    -0.000 A 
ATOM     11  C   UNL     1      -4.312  -0.815  23.969  0.00  0.00    -0.000 A 
ATOM     12  C   UNL     1      -3.513  -0.635  23.867  0.00  0.00    -0.003 A 
ENDBRANCH   6   7
ENDBRANCH   5   6
ENDBRANCH  14   4
BRANCH  16  17
ATOM     17  C   UNL     1       0.147   2.217  25.277  0.00  0.00    +0.224 C 
BRANCH  17  18
ATOM     18  S   UNL     1      -0.369   2.860  25.305  0.00  0.00    +0.016 S 
ATOM     19  O   UNL     1      -0.576   2.659  26.078  0.00  0.00    -0.168 OA
ATOM     20  O   UNL     1      -0.161   3.060  24.532  0.00  0.00    -0.168 OA
BRANCH  18  21
ATOM     21  C   UNL     1      -0.885   3.503  25.334  0.00  0.00    +0.106 A 
ATOM     22  C   UNL     1      -0.668   4.220  24.989  0.00  0.00    +0.021 A 
ATOM     23  C   UNL     1      -1.184   4.863  25.018  0.00  0.00    +0.031 A 
ATOM     24  C   UNL     1      -1.916   4.789  25.391  0.00  0.00    +0.140 A 
ATOM     25  F   UNL     1      -2.432   5.432  25.420  0.00  0.00    -0.204 F 
ATOM     26  C   UNL     1      -2.133   4.072  25.736  0.00  0.00    +0.031 A 
ATOM     27  C   UNL     1      -1.617   3.428  25.707  0.00  0.00    +0.021 A 
ENDBRANCH  18  21
ENDBRANCH  17  18
ENDBRANCH  16  17
TORSDOF 6
ENDMDL
MODEL 6
REMARK VINA RESULT:     -11.7      2.508      5.354
REMARK  Name = 
REMARK  6 active torsions:
REMARK  status: ('A' for Active; 'I' for Inactive)
REMARK    1  A    between atoms: C_4  and  C_14
REMARK    2  A    between atoms: N_5  and  C_6
REMARK    3  A    between atoms: C_6  and  C_7
REMARK    4  A    between atoms: C_16  and  C_17
REMARK    5  A    between atoms: C_17  and  S_18
REMARK    6  A    between atoms: S_18  and  C_21
REMARK                            x       y       z     vdW  Elec       q    Type
REMARK                         _______ _______ _______ _____ _____    ______ ____
ROOT
ATOM     14  C   UNL     1      -4.269   2.781  24.599  0.00  0.00    +0.251 A 
ATOM     15  N   UNL     1      -3.716   3.095  25.124  0.00  0.00    -0.192 NA
ATOM     16  C   UNL     1      -3.250   3.635  24.710  0.00  0.00    +0.205 A 
ATOM     28  N   UNL     1      -3.515   3.655  23.929  0.00  0.00    -0.059 NA
ATOM     29  O   UNL     1      -4.145   3.127  23.860  0.00  0.00    -0.336 OA
ENDROOT
BRANCH  14   4
ATOM      1  O   UNL     1      -6.777   1.559  25.406  0.00  0.00    -0.222 OA
ATOM      2  C   UNL     1      -5.999   1.658  25.151  0.00  0.00    +0.170 C 
ATOM      3  C   UNL     1      -5.614   2.379  25.036  0.00  0.00    +0.060 C 
ATOM      4  C   UNL     1      -4.845   2.220  24.781  0.00  0.00    +0.140 C 
ATOM      5  N   UNL     1      -4.755   1.401  24.739  0.00  0.00    -0.260 NA
ATOM     13  C   UNL     1      -5.468   1.054  24.968  0.00  0.00    +0.106 C 
BRANCH   5   6
ATOM      6  C   UNL     1      -4.073   0.999  24.508  0.00  0.00    +0.100 C 
BRANCH   6   7
ATOM      7  C   UNL     1      -4.013   0.184  24.626  0.00  0.00    -0.006 A 
ATOM      8  C   UNL     1      -3.733  -0.110  25.344  0.00  0.00    -0.003 A 
ATOM      9  C   UNL     1      -3.673  -0.924  25.461  0.00  0.00    -0.000 A 
ATOM     10  C   UNL     1      -3.894  -1.445  24.861  0.00  0.00    -0.000 A 
ATOM     11  C   UNL     1      -4.175  -1.151  24.143  0.00  0.00    -0.000 A 
ATOM     12  C   UNL     1      -4.235  -0.336  24.025  0.00  0.00    -0.003 A 
ENDBRANCH   6   7
ENDBRANCH   5   6
ENDBRANCH  14   4
BRANCH  16  17
ATOM     17  C   UNL     1      -2.627   4.078  25.022  0.00  0.00    +0.224 C 
BRANCH  17  18
ATOM     18  S   UNL     1      -1.922   3.706  25.234  0.00  0.00    +0.016 S 
ATOM     19  O   UNL     1      -2.147   3.733  26.027  0.00  0.00    -0.168 OA
ATOM     20  O   UNL     1      -1.697   3.680  24.440  0.00  0.00    -0.168 OA
BRANCH  18  21
ATOM     21  C   UNL     1      -1.216   3.335  25.446  0.00  0.00    +0.106 A 
ATOM     22  C   UNL     1      -1.149   2.973  26.184  0.00  0.00    +0.021 A 
ATOM     23  C   UNL     1      -0.444   2.601  26.397  0.00  0.00    +0.031 A 
ATOM     24  C   UNL     1       0.193   2.592  25.872  0.00  0.00    +0.140 A 
ATOM     25  F   UNL     1       0.898   2.220  26.086  0.00  0.00    -0.204 F 
ATOM     26  C   UNL     1       0.125   2.954  25.135  0.00  0.00    +0.031 A 
ATOM     27  C   UNL     1      -0.580   3.325  24.921  0.00  0.00    +0.021 A 
ENDBRANCH  18  21
ENDBRANCH  17  18
ENDBRANCH  16  17
TORSDOF 6
ENDMDL
MODEL 7
REMARK VINA RESULT:     -11.7      2.089      2.900
REMARK  Name = 
REMARK  6 active torsions:
REMARK  status: ('A' for Active; 'I' for Inactive)
REMARK    1  A    between atoms: C_4  and  C_14
REMARK    2  A    between atoms: N_5  and  C_6
REMARK    3  A    between atoms: C_6  and  C_7
REMARK    4  A    between atoms: C_16  and  C_17
REMARK    5  A    between atoms: C_17  and  S_18
REMARK    6  A    between atoms: S_18  and  C_21
REMARK                            x       y       z     vdW  Elec       q    Type
REMARK                         _______ _______ _______ _____ _____    ______ ____
ROOT
ATOM     14  C   UNL     1      -4.456   1.328  24.836  0.00  0.00    +0.251 A 
ATOM     15  N   UNL     1      -4.265   0.687  25.319  0.00  0.00    -0.192 NA
ATOM     16  C   UNL     1      -4.141   0.032  24.833  0.00  0.00    +0.205 A 
ATOM     28  N   UNL     1      -4.254   0.267  24.051  0.00  0.00    -0.059 NA
ATOM     29  O   UNL     1      -4.449   1.068  24.052  0.00  0.00    -0.336 OA
ENDROOT
BRANCH  14   4
ATOM      1  O   UNL     1      -5.856   3.641  25.897  0.00  0.00    -0.222 OA
ATOM      2  C   UNL     1      -5.268   3.158  25.579  0.00  0.00    +0.170 C 
ATOM      3  C   UNL     1      -5.345   2.357  25.395  0.00  0.00    +0.060 C 
ATOM      4  C   UNL     1      -4.624   2.094  25.091  0.00  0.00    +0.140 C 
ATOM      5  N   UNL     1      -4.102   2.733  25.087  0.00  0.00    -0.260 NA
ATOM     13  C   UNL     1      -4.500   3.390  25.388  0.00  0.00    +0.106 C 
BRANCH   5   6
ATOM      6  C   UNL     1      -3.319   2.717  24.827  0.00  0.00    +0.100 C 
BRANCH   6   7
ATOM      7  C   UNL     1      -2.794   3.309  25.062  0.00  0.00    -0.006 A 
ATOM      8  C   UNL     1      -2.324   3.202  25.731  0.00  0.00    -0.003 A 
ATOM      9  C   UNL     1      -1.799   3.793  25.965  0.00  0.00    -0.000 A 
ATOM     10  C   UNL     1      -1.744   4.493  25.531  0.00  0.00    -0.000 A 
ATOM     11  C   UNL     1      -2.215   4.600  24.862  0.00  0.00    -0.000 A 
ATOM     12  C   UNL     1      -2.740   4.008  24.627  0.00  0.00    -0.003 A 
ENDBRANCH   6   7
ENDBRANCH   5   6
ENDBRANCH  14   4
BRANCH  16  17
ATOM     17  C   UNL     1      -3.938  -0.727  25.087  0.00  0.00    +0.224 C 
BRANCH  17  18
ATOM     18  S   UNL     1      -3.144  -0.948  25.134  0.00  0.00    +0.016 S 
ATOM     19  O   UNL     1      -3.159  -0.822  25.949  0.00  0.00    -0.168 OA
ATOM     20  O   UNL     1      -3.130  -1.074  24.319  0.00  0.00    -0.168 OA
BRANCH  18  21
ATOM     21  C   UNL     1      -2.351  -1.169  25.183  0.00  0.00    +0.106 A 
ATOM     22  C   UNL     1      -2.089  -1.850  24.797  0.00  0.00    +0.021 A 
ATOM     23  C   UNL     1      -1.296  -2.071  24.846  0.00  0.00    +0.031 A 
ATOM     24  C   UNL     1      -0.765  -1.612  25.279  0.00  0.00    +0.140 A 
ATOM     25  F   UNL     1       0.028  -1.834  25.327  0.00  0.00    -0.204 F 
ATOM     26  C   UNL     1      -1.027  -0.932  25.664  0.00  0.00    +0.031 A 
ATOM     27  C   UNL     1      -1.820  -0.710  25.616  0.00  0.00    +0.021 A 
ENDBRANCH  18  21
ENDBRANCH  17  18
ENDBRANCH  16  17
TORSDOF 6
ENDMDL
