MODEL 1
REMARK VINA RESULT:      -9.7      0.000      0.000
REMARK  Name = 
REMARK  7 active torsions:
REMARK  status: ('A' for Active; 'I' for Inactive)
REMARK    1  A    between atoms: C_2  and  C_5
REMARK    2  A    between atoms: C_5  and  C_6
REMARK    3  A    between atoms: N_8  and  C_9
REMARK    4  A    between atoms: C_9  and  C_10
REMARK    5  A    between atoms: C_13  and  N_14
REMARK    6  A    between atoms: N_14  and  C_15
REMARK    7  A    between atoms: C_15  and  C_16
REMARK                            x       y       z     vdW  Elec       q    Type
REMARK                         _______ _______ _______ _____ _____    ______ ____
ROOT
ATOM     10  C   UNL     1      -3.701   2.024  24.613  0.00  0.00    +0.169 C 
ATOM     11  O   UNL     1      -4.272   1.823  25.173  0.00  0.00    -0.350 OA
ATOM     12  C   UNL     1      -4.420   1.015  25.108  0.00  0.00    +0.162 C 
ATOM     13  C   UNL     1      -3.941   0.715  24.507  0.00  0.00    +0.135 C 
ATOM     22  C   UNL     1      -3.496   1.338  24.201  0.00  0.00    +0.199 C 
ATOM     23  O   UNL     1      -2.944   1.286  23.591  0.00  0.00    -0.219 OA
ENDROOT
BRANCH  10   9
ATOM      9  C   UNL     1      -3.389   2.777  24.487  0.00  0.00    +0.147 C 
BRANCH   9   8
ATOM      6  C   UNL     1      -2.572   3.866  24.921  0.00  0.00    +0.241 C 
ATOM      7  O   UNL     1      -2.828   4.315  24.278  0.00  0.00    -0.273 OA
ATOM      8  N   UNL     1      -2.853   3.097  25.025  0.00  0.00    -0.203 NA
BRANCH   6   5
ATOM      5  C   UNL     1      -2.036   4.186  25.460  0.00  0.00    +0.087 C 
BRANCH   5   2
ATOM      1  C   UNL     1      -0.823   5.171  24.931  0.00  0.00    +0.000 C 
ATOM      2  C   UNL     1      -1.430   4.679  25.196  0.00  0.00    +0.009 C 
ATOM      3  C   UNL     1      -0.927   4.027  25.135  0.00  0.00    +0.000 C 
ATOM      4  C   UNL     1      -1.932   5.330  25.257  0.00  0.00    +0.000 C 
ENDBRANCH   5   2
ENDBRANCH   6   5
ENDBRANCH   9   8
ENDBRANCH  10   9
BRANCH  13  14
ATOM     14  N   UNL     1      -3.912  -0.071  24.256  0.00  0.00    -0.209 NA
BRANCH  14  15
ATOM     15  C   UNL     1      -4.149  -0.675  24.765  0.00  0.00    +0.117 C 
BRANCH  15  16
ATOM     16  C   UNL     1      -3.986  -1.461  24.576  0.00  0.00    +0.014 A 
ATOM     17  C   UNL     1      -3.492  -1.909  25.064  0.00  0.00    +0.000 A 
ATOM     18  C   UNL     1      -3.329  -2.694  24.875  0.00  0.00    +0.020 A 
ATOM     19  C   UNL     1      -3.658  -3.034  24.198  0.00  0.00    +0.099 A 
ATOM     20  N   UNL     1      -4.151  -2.586  23.711  0.00  0.00    -0.243 NA
ATOM     21  C   UNL     1      -4.315  -1.800  23.900  0.00  0.00    +0.096 A 
ENDBRANCH  15  16
ENDBRANCH  14  15
ENDBRANCH  13  14
TORSDOF 7
ENDMDL
MODEL 2
REMARK VINA RESULT:      -9.4      1.770      5.882
REMARK  Name = 
REMARK  7 active torsions:
REMARK  status: ('A' for Active; 'I' for Inactive)
REMARK    1  A    between atoms: C_2  and  C_5
REMARK    2  A    between atoms: C_5  and  C_6
REMARK    3  A    between atoms: N_8  and  C_9
REMARK    4  A    between atoms: C_9  and  C_10
REMARK    5  A    between atoms: C_13  and  N_14
REMARK    6  A    between atoms: N_14  and  C_15
REMARK    7  A    between atoms: C_15  and  C_16
REMARK                            x       y       z     vdW  Elec       q    Type
REMARK                         _______ _______ _______ _____ _____    ______ ____
ROOT
ATOM     10  C   UNL     1      -1.422   0.294  24.950  0.00  0.00    +0.169 C 
ATOM     11  O   UNL     1      -1.105   0.429  25.699  0.00  0.00    -0.350 OA
ATOM     12  C   UNL     1      -0.938   1.234  25.764  0.00  0.00    +0.162 C 
ATOM     13  C   UNL     1      -1.151   1.596  25.055  0.00  0.00    +0.135 C 
ATOM     22  C   UNL     1      -1.451   1.016  24.552  0.00  0.00    +0.199 C 
ATOM     23  O   UNL     1      -1.729   1.136  23.785  0.00  0.00    -0.219 OA
ENDROOT
BRANCH  10   9
ATOM      9  C   UNL     1      -1.667  -0.435  24.651  0.00  0.00    +0.147 C 
BRANCH   9   8
ATOM      6  C   UNL     1      -2.592  -1.524  24.659  0.00  0.00    +0.241 C 
ATOM      7  O   UNL     1      -2.086  -1.958  24.175  0.00  0.00    -0.273 OA
ATOM      8  N   UNL     1      -2.383  -0.761  24.898  0.00  0.00    -0.203 NA
BRANCH   6   5
ATOM      5  C   UNL     1      -3.309  -1.850  24.906  0.00  0.00    +0.087 C 
BRANCH   5   2
ATOM      1  C   UNL     1      -4.215  -2.741  23.853  0.00  0.00    +0.000 C 
ATOM      2  C   UNL     1      -3.762  -2.296  24.380  0.00  0.00    +0.009 C 
ATOM      3  C   UNL     1      -3.392  -2.984  24.644  0.00  0.00    +0.000 C 
ATOM      4  C   UNL     1      -4.132  -1.607  24.116  0.00  0.00    +0.000 C 
ENDBRANCH   5   2
ENDBRANCH   6   5
ENDBRANCH   9   8
ENDBRANCH  10   9
BRANCH  13  14
ATOM     14  N   UNL     1      -1.078   2.400  24.880  0.00  0.00    -0.209 NA
BRANCH  14  15
ATOM     15  C   UNL     1      -1.056   2.955  25.490  0.00  0.00    +0.117 C 
BRANCH  15  16
ATOM     16  C   UNL     1      -1.144   3.757  25.321  0.00  0.00    +0.014 A 
ATOM     17  C   UNL     1      -1.844   4.146  25.522  0.00  0.00    +0.000 A 
ATOM     18  C   UNL     1      -1.932   4.949  25.353  0.00  0.00    +0.020 A 
ATOM     19  C   UNL     1      -1.322   5.362  24.982  0.00  0.00    +0.099 A 
ATOM     20  N   UNL     1      -0.623   4.973  24.782  0.00  0.00    -0.243 NA
ATOM     21  C   UNL     1      -0.534   4.171  24.951  0.00  0.00    +0.096 A 
ENDBRANCH  15  16
ENDBRANCH  14  15
ENDBRANCH  13  14
TORSDOF 7
ENDMDL
MODEL 3
REMARK VINA RESULT:      -9.1      1.565      1.832
REMARK  Name = 
REMARK  7 active torsions:
REMARK  status: ('A' for Active; 'I' for Inactive)
REMARK    1  A    between atoms: C_2  and  C_5
REMARK    2  A    between atoms: C_5  and  C_6
REMARK    3  A    between atoms: N_8  and  C_9
REMARK    4  A    between atoms: C_9  and  C_10
REMARK    5  A    between atoms: C_13  and  N_14
REMARK    6  A    between atoms: N_14  and  C_15
REMARK    7  A    between atoms: C_15  and  C_16
REMARK                            x       y       z     vdW  Elec       q    Type
REMARK                         _______ _______ _______ _____ _____    ______ ____
ROOT
ATOM     10  C   UNL     1      -1.189   1.267  24.866  0.00  0.00    +0.169 C 
ATOM     11  O   UNL     1      -1.136   0.903  25.604  0.00  0.00    -0.350 OA
ATOM     12  C   UNL     1      -1.503   0.167  25.553  0.00  0.00    +0.162 C 
ATOM     13  C   UNL     1      -1.783   0.075  24.782  0.00  0.00    +0.135 C 
ATOM     22  C   UNL     1      -1.589   0.754  24.357  0.00  0.00    +0.199 C 
ATOM     23  O   UNL     1      -1.764   0.897  23.565  0.00  0.00    -0.219 OA
ENDROOT
BRANCH  10   9
ATOM      9  C   UNL     1      -0.894   2.012  24.670  0.00  0.00    +0.147 C 
BRANCH   9   8
ATOM      6  C   UNL     1      -0.818   3.413  24.939  0.00  0.00    +0.241 C 
ATOM      7  O   UNL     1      -0.523   3.543  24.180  0.00  0.00    -0.273 OA
ATOM      8  N   UNL     1      -1.004   2.647  25.184  0.00  0.00    -0.203 NA
BRANCH   6   5
ATOM      5  C   UNL     1      -0.929   4.049  25.454  0.00  0.00    +0.087 C 
BRANCH   5   2
ATOM      1  C   UNL     1      -1.634   5.438  24.909  0.00  0.00    +0.000 C 
ATOM      2  C   UNL     1      -1.281   4.743  25.182  0.00  0.00    +0.009 C 
ATOM      3  C   UNL     1      -2.004   4.499  25.496  0.00  0.00    +0.000 C 
ATOM      4  C   UNL     1      -0.558   4.987  24.868  0.00  0.00    +0.000 C 
ENDBRANCH   5   2
ENDBRANCH   6   5
ENDBRANCH   9   8
ENDBRANCH  10   9
BRANCH  13  14
ATOM     14  N   UNL     1      -2.186  -0.583  24.488  0.00  0.00    -0.209 NA
BRANCH  14  15
ATOM     15  C   UNL     1      -2.743  -0.970  24.958  0.00  0.00    +0.117 C 
BRANCH  15  16
ATOM     16  C   UNL     1      -3.190  -1.588  24.644  0.00  0.00    +0.014 A 
ATOM     17  C   UNL     1      -3.886  -1.425  24.232  0.00  0.00    +0.000 A 
ATOM     18  C   UNL     1      -4.333  -2.042  23.917  0.00  0.00    +0.020 A 
ATOM     19  C   UNL     1      -4.084  -2.823  24.014  0.00  0.00    +0.099 A 
ATOM     20  N   UNL     1      -3.388  -2.986  24.426  0.00  0.00    -0.243 NA
ATOM     21  C   UNL     1      -2.941  -2.368  24.741  0.00  0.00    +0.096 A 
ENDBRANCH  15  16
ENDBRANCH  14  15
ENDBRANCH  13  14
TORSDOF 7
ENDMDL
