MODEL 1
REMARK VINA RESULT:      -8.1      0.000      0.000
REMARK  Name = 
REMARK  9 active torsions:
REMARK  status: ('A' for Active; 'I' for Inactive)
REMARK    1  A    between atoms: C_2  and  C_4
REMARK    2  A    between atoms: C_6  and  C_7
REMARK    3  A    between atoms: C_7  and  C_8
REMARK    4  A    between atoms: N_10  and  C_11
REMARK    5  A    between atoms: C_11  and  C_12
REMARK    6  A    between atoms: C_12  and  N_13
REMARK    7  A    between atoms: C_19  and  C_20
REMARK    8  A    between atoms: C_20  and  N_21
REMARK    9  A    between atoms: N_24  and  C_25
REMARK                            x       y       z     vdW  Elec       q    Type
REMARK                         _______ _______ _______ _____ _____    ______ ____
ROOT
ATOM      4  C   UNL     1      -0.439   1.412  24.389  0.00  0.00    +0.006 C 
ATOM      5  C   UNL     1       0.160   0.909  24.128  0.00  0.00    +0.005 C 
ATOM      6  C   UNL     1      -0.012   0.126  23.936  0.00  0.00    +0.027 C 
ATOM     16  C   UNL     1      -0.785  -0.155  24.004  0.00  0.00    -0.048 C 
ATOM     17  C   UNL     1      -0.958  -0.939  23.811  0.00  0.00    +0.026 C 
ATOM     18  C   UNL     1      -1.386   0.348  24.265  0.00  0.00    -0.033 C 
ATOM     19  C   UNL     1      -1.212   1.131  24.457  0.00  0.00    +0.043 C 
ENDROOT
BRANCH   4   2
ATOM      1  C   UNL     1      -0.010   2.386  25.342  0.00  0.00    +0.000 C 
ATOM      2  C   UNL     1      -0.267   2.194  24.581  0.00  0.00    +0.000 C 
ATOM      3  C   UNL     1      -0.351   2.788  24.013  0.00  0.00    +0.000 C 
ENDBRANCH   4   2
BRANCH   6   7
ATOM      7  C   UNL     1       0.587  -0.378  23.675  0.00  0.00    +0.091 C 
BRANCH   7   8
ATOM      8  C   UNL     1       1.131  -0.116  23.113  0.00  0.00    +0.242 C 
ATOM      9  O   UNL     1       0.876   0.085  22.355  0.00  0.00    -0.273 OA
ATOM     10  N   UNL     1       1.929  -0.056  23.309  0.00  0.00    -0.204 NA
BRANCH  10  11
ATOM     11  C   UNL     1       2.474   0.206  22.747  0.00  0.00    +0.132 C 
BRANCH  11  12
ATOM     12  C   UNL     1       3.249  -0.073  22.761  0.00  0.00    +0.096 C 
BRANCH  12  13
ATOM     13  N   UNL     1       3.880   0.459  22.762  0.00  0.00    -0.269 NA
ATOM     14  C   UNL     1       3.810   1.183  22.374  0.00  0.00    +0.090 C 
ATOM     15  C   UNL     1       4.582   0.265  23.151  0.00  0.00    +0.090 C 
ENDBRANCH  12  13
ENDBRANCH  11  12
ENDBRANCH  10  11
ENDBRANCH   7   8
ENDBRANCH   6   7
BRANCH  19  20
ATOM     20  C   UNL     1      -1.812   1.633  24.718  0.00  0.00    +0.121 C 
BRANCH  20  21
ATOM     21  N   UNL     1      -2.575   1.557  24.414  0.00  0.00    -0.187 NA
ATOM     22  C   UNL     1      -3.214   1.892  24.815  0.00  0.00    +0.344 C 
ATOM     23  O   UNL     1      -3.089   2.301  25.520  0.00  0.00    -0.249 OA
ATOM     24  N   UNL     1      -3.978   1.815  24.512  0.00  0.00    -0.161 NA
BRANCH  24  25
ATOM     25  C   UNL     1      -4.616   2.149  24.912  0.00  0.00    +0.075 A 
ATOM     26  C   UNL     1      -5.166   1.663  25.289  0.00  0.00    +0.017 A 
ATOM     27  C   UNL     1      -5.806   1.997  25.690  0.00  0.00    +0.001 A 
ATOM     28  C   UNL     1      -5.893   2.817  25.715  0.00  0.00    +0.000 A 
ATOM     29  C   UNL     1      -5.343   3.303  25.339  0.00  0.00    +0.001 A 
ATOM     30  C   UNL     1      -4.705   2.969  24.938  0.00  0.00    +0.017 A 
ENDBRANCH  24  25
ENDBRANCH  20  21
ENDBRANCH  19  20
TORSDOF 9
ENDMDL
MODEL 2
REMARK VINA RESULT:      -7.9      2.679      4.532
REMARK  Name = 
REMARK  9 active torsions:
REMARK  status: ('A' for Active; 'I' for Inactive)
REMARK    1  A    between atoms: C_2  and  C_4
REMARK    2  A    between atoms: C_6  and  C_7
REMARK    3  A    between atoms: C_7  and  C_8
REMARK    4  A    between atoms: N_10  and  C_11
REMARK    5  A    between atoms: C_11  and  C_12
REMARK    6  A    between atoms: C_12  and  N_13
REMARK    7  A    between atoms: C_19  and  C_20
REMARK    8  A    between atoms: C_20  and  N_21
REMARK    9  A    between atoms: N_24  and  C_25
REMARK                            x       y       z     vdW  Elec       q    Type
REMARK                         _______ _______ _______ _____ _____    ______ ____
ROOT
ATOM      4  C   UNL     1      -0.299  -0.005  24.160  0.00  0.00    +0.006 C 
ATOM      5  C   UNL     1      -0.474  -0.789  24.344  0.00  0.00    +0.005 C 
ATOM      6  C   UNL     1      -0.823  -0.976  25.068  0.00  0.00    +0.027 C 
ATOM     16  C   UNL     1      -0.995  -0.378  25.609  0.00  0.00    -0.048 C 
ATOM     17  C   UNL     1      -1.344  -0.564  26.334  0.00  0.00    +0.026 C 
ATOM     18  C   UNL     1      -0.820   0.408  25.425  0.00  0.00    -0.033 C 
ATOM     19  C   UNL     1      -0.471   0.594  24.701  0.00  0.00    +0.043 C 
ENDROOT
BRANCH   4   2
ATOM      1  C   UNL     1      -0.422   0.392  22.793  0.00  0.00    +0.000 C 
ATOM      2  C   UNL     1       0.049   0.181  23.436  0.00  0.00    +0.000 C 
ATOM      3  C   UNL     1       0.871   0.157  23.355  0.00  0.00    +0.000 C 
ENDBRANCH   4   2
BRANCH   6   7
ATOM      7  C   UNL     1      -0.998  -1.761  25.252  0.00  0.00    +0.091 C 
BRANCH   7   8
ATOM      8  C   UNL     1      -1.507  -2.195  24.770  0.00  0.00    +0.242 C 
ATOM      9  O   UNL     1      -1.200  -2.679  24.177  0.00  0.00    -0.273 OA
ATOM     10  N   UNL     1      -2.323  -2.144  24.880  0.00  0.00    -0.204 NA
BRANCH  10  11
ATOM     11  C   UNL     1      -2.833  -2.577  24.397  0.00  0.00    +0.132 C 
BRANCH  11  12
ATOM     12  C   UNL     1      -3.640  -2.597  24.562  0.00  0.00    +0.096 C 
BRANCH  12  13
ATOM     13  N   UNL     1      -4.186  -2.378  23.983  0.00  0.00    -0.269 NA
ATOM     14  C   UNL     1      -4.495  -2.945  23.471  0.00  0.00    +0.090 C 
ATOM     15  C   UNL     1      -4.422  -1.590  23.916  0.00  0.00    +0.090 C 
ENDBRANCH  12  13
ENDBRANCH  11  12
ENDBRANCH  10  11
ENDBRANCH   7   8
ENDBRANCH   6   7
BRANCH  19  20
ATOM     20  C   UNL     1      -0.296   1.379  24.518  0.00  0.00    +0.121 C 
BRANCH  20  21
ATOM     21  N   UNL     1      -0.335   1.957  25.103  0.00  0.00    -0.187 NA
ATOM     22  C   UNL     1      -0.634   2.706  24.924  0.00  0.00    +0.344 C 
ATOM     23  O   UNL     1      -0.893   2.874  24.160  0.00  0.00    -0.249 OA
ATOM     24  N   UNL     1      -0.673   3.285  25.511  0.00  0.00    -0.161 NA
BRANCH  24  25
ATOM     25  C   UNL     1      -0.971   4.033  25.332  0.00  0.00    +0.075 A 
ATOM     26  C   UNL     1      -1.749   4.225  25.529  0.00  0.00    +0.017 A 
ATOM     27  C   UNL     1      -2.048   4.973  25.350  0.00  0.00    +0.001 A 
ATOM     28  C   UNL     1      -1.568   5.529  24.974  0.00  0.00    +0.000 A 
ATOM     29  C   UNL     1      -0.791   5.337  24.776  0.00  0.00    +0.001 A 
ATOM     30  C   UNL     1      -0.493   4.590  24.955  0.00  0.00    +0.017 A 
ENDBRANCH  24  25
ENDBRANCH  20  21
ENDBRANCH  19  20
TORSDOF 9
ENDMDL
MODEL 3
REMARK VINA RESULT:      -7.9      1.086      6.385
REMARK  Name = 
REMARK  9 active torsions:
REMARK  status: ('A' for Active; 'I' for Inactive)
REMARK    1  A    between atoms: C_2  and  C_4
REMARK    2  A    between atoms: C_6  and  C_7
REMARK    3  A    between atoms: C_7  and  C_8
REMARK    4  A    between atoms: N_10  and  C_11
REMARK    5  A    between atoms: C_11  and  C_12
REMARK    6  A    between atoms: C_12  and  N_13
REMARK    7  A    between atoms: C_19  and  C_20
REMARK    8  A    between atoms: C_20  and  N_21
REMARK    9  A    between atoms: N_24  and  C_25
REMARK                            x       y       z     vdW  Elec       q    Type
REMARK                         _______ _______ _______ _____ _____    ______ ____
ROOT
ATOM      4  C   UNL     1      -1.077   1.147  24.289  0.00  0.00    +0.006 C 
ATOM      5  C   UNL     1      -1.810   0.869  24.546  0.00  0.00    +0.005 C 
ATOM      6  C   UNL     1      -1.940   0.058  24.624  0.00  0.00    +0.027 C 
ATOM     16  C   UNL     1      -1.336  -0.475  24.444  0.00  0.00    -0.048 C 
ATOM     17  C   UNL     1      -1.465  -1.287  24.521  0.00  0.00    +0.026 C 
ATOM     18  C   UNL     1      -0.603  -0.197  24.186  0.00  0.00    -0.033 C 
ATOM     19  C   UNL     1      -0.474   0.614  24.109  0.00  0.00    +0.043 C 
ENDROOT
BRANCH   4   2
ATOM      1  C   UNL     1      -1.112   2.336  23.497  0.00  0.00    +0.000 C 
ATOM      2  C   UNL     1      -0.948   1.958  24.212  0.00  0.00    +0.000 C 
ATOM      3  C   UNL     1      -0.654   2.391  24.850  0.00  0.00    +0.000 C 
ENDBRANCH   4   2
BRANCH   6   7
ATOM      7  C   UNL     1      -2.672  -0.221  24.881  0.00  0.00    +0.091 C 
BRANCH   7   8
ATOM      8  C   UNL     1      -3.367   0.132  24.611  0.00  0.00    +0.242 C 
ATOM      9  O   UNL     1      -3.591   0.050  23.822  0.00  0.00    -0.273 OA
ATOM     10  N   UNL     1      -3.837   0.567  25.130  0.00  0.00    -0.204 NA
BRANCH  10  11
ATOM     11  C   UNL     1      -4.532   0.921  24.860  0.00  0.00    +0.132 C 
BRANCH  11  12
ATOM     12  C   UNL     1      -5.076   1.225  25.399  0.00  0.00    +0.096 C 
BRANCH  12  13
ATOM     13  N   UNL     1      -5.541   1.875  25.195  0.00  0.00    -0.269 NA
ATOM     14  C   UNL     1      -5.234   2.638  25.254  0.00  0.00    +0.090 C 
ATOM     15  C   UNL     1      -6.315   1.762  24.930  0.00  0.00    +0.090 C 
ENDBRANCH  12  13
ENDBRANCH  11  12
ENDBRANCH  10  11
ENDBRANCH   7   8
ENDBRANCH   6   7
BRANCH  19  20
ATOM     20  C   UNL     1       0.259   0.892  23.852  0.00  0.00    +0.121 C 
BRANCH  20  21
ATOM     21  N   UNL     1       0.742   0.412  23.387  0.00  0.00    -0.187 NA
ATOM     22  C   UNL     1       1.556   0.547  23.362  0.00  0.00    +0.344 C 
ATOM     23  O   UNL     1       1.885   1.162  23.802  0.00  0.00    -0.249 OA
ATOM     24  N   UNL     1       2.039   0.067  22.897  0.00  0.00    -0.161 NA
BRANCH  24  25
ATOM     25  C   UNL     1       2.852   0.201  22.872  0.00  0.00    +0.075 A 
ATOM     26  C   UNL     1       3.368  -0.316  23.255  0.00  0.00    +0.017 A 
ATOM     27  C   UNL     1       4.182  -0.182  23.230  0.00  0.00    +0.001 A 
ATOM     28  C   UNL     1       4.479   0.471  22.822  0.00  0.00    +0.000 A 
ATOM     29  C   UNL     1       3.964   0.988  22.438  0.00  0.00    +0.001 A 
ATOM     30  C   UNL     1       3.151   0.853  22.463  0.00  0.00    +0.017 A 
ENDBRANCH  24  25
ENDBRANCH  20  21
ENDBRANCH  19  20
TORSDOF 9
ENDMDL
MODEL 4
REMARK VINA RESULT:      -7.8      3.358      5.236
REMARK  Name = 
REMARK  9 active torsions:
REMARK  status: ('A' for Active; 'I' for Inactive)
REMARK    1  A    between atoms: C_2  and  C_4
REMARK    2  A    between atoms: C_6  and  C_7
REMARK    3  A    between atoms: C_7  and  C_8
REMARK    4  A    between atoms: N_10  and  C_11
REMARK    5  A    between atoms: C_11  and  C_12
REMARK    6  A    between atoms: C_12  and  N_13
REMARK    7  A    between atoms: C_19  and  C_20
REMARK    8  A    between atoms: C_20  and  N_21
REMARK    9  A    between atoms: N_24  and  C_25
REMARK                            x       y       z     vdW  Elec       q    Type
REMARK                         _______ _______ _______ _____ _____    ______ ____
ROOT
ATOM      4  C   UNL     1      -3.362   2.068  23.647  0.00  0.00    +0.006 C 
ATOM      5  C   UNL     1      -3.496   2.840  23.901  0.00  0.00    +0.005 C 
ATOM      6  C   UNL     1      -4.035   2.989  24.508  0.00  0.00    +0.027 C 
ATOM     16  C   UNL     1      -4.440   2.363  24.861  0.00  0.00    -0.048 C 
ATOM     17  C   UNL     1      -4.979   2.510  25.469  0.00  0.00    +0.026 C 
ATOM     18  C   UNL     1      -4.306   1.588  24.608  0.00  0.00    -0.033 C 
ATOM     19  C   UNL     1      -3.767   1.442  24.001  0.00  0.00    +0.043 C 
ENDROOT
BRANCH   4   2
ATOM      1  C   UNL     1      -3.063   1.974  22.253  0.00  0.00    +0.000 C 
ATOM      2  C   UNL     1      -2.824   1.920  23.041  0.00  0.00    +0.000 C 
ATOM      3  C   UNL     1      -2.043   1.718  23.222  0.00  0.00    +0.000 C 
ENDBRANCH   4   2
BRANCH   6   7
ATOM      7  C   UNL     1      -4.170   3.762  24.762  0.00  0.00    +0.091 C 
BRANCH   7   8
ATOM      8  C   UNL     1      -3.594   4.341  24.647  0.00  0.00    +0.242 C 
ATOM      9  O   UNL     1      -3.674   4.886  24.034  0.00  0.00    -0.273 OA
ATOM     10  N   UNL     1      -2.938   4.374  25.145  0.00  0.00    -0.204 NA
BRANCH  10  11
ATOM     11  C   UNL     1      -2.361   4.953  25.031  0.00  0.00    +0.132 C 
BRANCH  11  12
ATOM     12  C   UNL     1      -1.664   4.935  25.471  0.00  0.00    +0.096 C 
BRANCH  12  13
ATOM     13  N   UNL     1      -0.934   4.979  25.090  0.00  0.00    -0.269 NA
ATOM     14  C   UNL     1      -0.437   4.321  25.072  0.00  0.00    +0.090 C 
ATOM     15  C   UNL     1      -0.700   5.682  24.728  0.00  0.00    +0.090 C 
ENDBRANCH  12  13
ENDBRANCH  11  12
ENDBRANCH  10  11
ENDBRANCH   7   8
ENDBRANCH   6   7
BRANCH  19  20
ATOM     20  C   UNL     1      -3.633   0.668  23.748  0.00  0.00    +0.121 C 
BRANCH  20  21
ATOM     21  N   UNL     1      -4.102   0.054  24.033  0.00  0.00    -0.187 NA
ATOM     22  C   UNL     1      -3.788  -0.707  24.106  0.00  0.00    +0.344 C 
ATOM     23  O   UNL     1      -3.004  -0.850  23.892  0.00  0.00    -0.249 OA
ATOM     24  N   UNL     1      -4.258  -1.322  24.391  0.00  0.00    -0.161 NA
BRANCH  24  25
ATOM     25  C   UNL     1      -3.944  -2.080  24.464  0.00  0.00    +0.075 A 
ATOM     26  C   UNL     1      -4.068  -2.637  23.868  0.00  0.00    +0.017 A 
ATOM     27  C   UNL     1      -3.754  -3.397  23.940  0.00  0.00    +0.001 A 
ATOM     28  C   UNL     1      -3.315  -3.599  24.608  0.00  0.00    +0.000 A 
ATOM     29  C   UNL     1      -3.191  -3.043  25.205  0.00  0.00    +0.001 A 
ATOM     30  C   UNL     1      -3.505  -2.284  25.132  0.00  0.00    +0.017 A 
ENDBRANCH  24  25
ENDBRANCH  20  21
ENDBRANCH  19  20
TORSDOF 9
ENDMDL
MODEL 5
REMARK VINA RESULT:      -7.2      1.143      6.528
REMARK  Name = 
REMARK  9 active torsions:
REMARK  status: ('A' for Active; 'I' for Inactive)
REMARK    1  A    between atoms: C_2  and  C_4
REMARK    2  A    between atoms: C_6  and  C_7
REMARK    3  A    between atoms: C_7  and  C_8
REMARK    4  A    between atoms: N_10  and  C_11
REMARK    5  A    between atoms: C_11  and  C_12
REMARK    6  A    between atoms: C_12  and  N_13
REMARK    7  A    between atoms: C_19  and  C_20
REMARK    8  A    between atoms: C_20  and  N_21
REMARK    9  A    between atoms: N_24  and  C_25
REMARK                            x       y       z     vdW  Elec       q    Type
REMARK                         _______ _______ _______ _____ _____    ______ ____
ROOT
ATOM      4  C   UNL     1      -1.334   0.939  24.455  0.00  0.00    +0.006 C 
ATOM      5  C   UNL     1      -2.126   1.125  24.326  0.00  0.00    +0.005 C 
ATOM      6  C   UNL     1      -2.372   1.402  23.589  0.00  0.00    +0.027 C 
ATOM     16  C   UNL     1      -1.823   1.494  22.980  0.00  0.00    -0.048 C 
ATOM     17  C   UNL     1      -2.067   1.772  22.242  0.00  0.00    +0.026 C 
ATOM     18  C   UNL     1      -1.028   1.309  23.108  0.00  0.00    -0.033 C 
ATOM     19  C   UNL     1      -0.785   1.031  23.846  0.00  0.00    +0.043 C 
ENDROOT
BRANCH   4   2
ATOM      1  C   UNL     1      -1.145  -0.142  25.370  0.00  0.00    +0.000 C 
ATOM      2  C   UNL     1      -1.089   0.662  25.192  0.00  0.00    +0.000 C 
ATOM      3  C   UNL     1      -0.788   1.189  25.752  0.00  0.00    +0.000 C 
ENDBRANCH   4   2
BRANCH   6   7
ATOM      7  C   UNL     1      -3.165   1.588  23.459  0.00  0.00    +0.091 C 
BRANCH   7   8
ATOM      8  C   UNL     1      -3.555   2.111  23.964  0.00  0.00    +0.242 C 
ATOM      9  O   UNL     1      -3.235   2.857  24.111  0.00  0.00    -0.273 OA
ATOM     10  N   UNL     1      -4.263   1.888  24.322  0.00  0.00    -0.204 NA
BRANCH  10  11
ATOM     11  C   UNL     1      -4.653   2.411  24.828  0.00  0.00    +0.132 C 
BRANCH  11  12
ATOM     12  C   UNL     1      -5.450   2.296  25.005  0.00  0.00    +0.096 C 
BRANCH  12  13
ATOM     13  N   UNL     1      -5.780   2.653  25.672  0.00  0.00    -0.269 NA
ATOM     14  C   UNL     1      -5.807   3.475  25.730  0.00  0.00    +0.090 C 
ATOM     15  C   UNL     1      -6.083   2.187  26.281  0.00  0.00    +0.090 C 
ENDBRANCH  12  13
ENDBRANCH  11  12
ENDBRANCH  10  11
ENDBRANCH   7   8
ENDBRANCH   6   7
BRANCH  19  20
ATOM     20  C   UNL     1       0.009   0.846  23.974  0.00  0.00    +0.121 C 
BRANCH  20  21
ATOM     21  N   UNL     1       0.465   0.540  23.360  0.00  0.00    -0.187 NA
ATOM     22  C   UNL     1       1.289   0.588  23.394  0.00  0.00    +0.344 C 
ATOM     23  O   UNL     1       1.654   0.942  24.043  0.00  0.00    -0.249 OA
ATOM     24  N   UNL     1       1.746   0.281  22.779  0.00  0.00    -0.161 NA
BRANCH  24  25
ATOM     25  C   UNL     1       2.568   0.329  22.814  0.00  0.00    +0.075 A 
ATOM     26  C   UNL     1       3.011  -0.334  23.025  0.00  0.00    +0.017 A 
ATOM     27  C   UNL     1       3.835  -0.287  23.060  0.00  0.00    +0.001 A 
ATOM     28  C   UNL     1       4.214   0.424  22.882  0.00  0.00    +0.000 A 
ATOM     29  C   UNL     1       3.771   1.087  22.671  0.00  0.00    +0.001 A 
ATOM     30  C   UNL     1       2.949   1.039  22.637  0.00  0.00    +0.017 A 
ENDBRANCH  24  25
ENDBRANCH  20  21
ENDBRANCH  19  20
TORSDOF 9
ENDMDL
MODEL 6
REMARK VINA RESULT:      -7.2      1.548      2.642
REMARK  Name = 
REMARK  9 active torsions:
REMARK  status: ('A' for Active; 'I' for Inactive)
REMARK    1  A    between atoms: C_2  and  C_4
REMARK    2  A    between atoms: C_6  and  C_7
REMARK    3  A    between atoms: C_7  and  C_8
REMARK    4  A    between atoms: N_10  and  C_11
REMARK    5  A    between atoms: C_11  and  C_12
REMARK    6  A    between atoms: C_12  and  N_13
REMARK    7  A    between atoms: C_19  and  C_20
REMARK    8  A    between atoms: C_20  and  N_21
REMARK    9  A    between atoms: N_24  and  C_25
REMARK                            x       y       z     vdW  Elec       q    Type
REMARK                         _______ _______ _______ _____ _____    ______ ____
ROOT
ATOM      4  C   UNL     1      -2.708  -1.177  24.787  0.00  0.00    +0.006 C 
ATOM      5  C   UNL     1      -1.903  -1.354  24.789  0.00  0.00    +0.005 C 
ATOM      6  C   UNL     1      -1.355  -0.783  25.022  0.00  0.00    +0.027 C 
ATOM     16  C   UNL     1      -1.613  -0.034  25.252  0.00  0.00    -0.048 C 
ATOM     17  C   UNL     1      -1.065   0.538  25.485  0.00  0.00    +0.026 C 
ATOM     18  C   UNL     1      -2.420   0.143  25.250  0.00  0.00    -0.033 C 
ATOM     19  C   UNL     1      -2.967  -0.428  25.018  0.00  0.00    +0.043 C 
ENDROOT
BRANCH   4   2
ATOM      1  C   UNL     1      -3.561  -1.741  23.788  0.00  0.00    +0.000 C 
ATOM      2  C   UNL     1      -3.256  -1.748  24.555  0.00  0.00    +0.000 C 
ATOM      3  C   UNL     1      -3.499  -2.329  25.090  0.00  0.00    +0.000 C 
ENDBRANCH   4   2
BRANCH   6   7
ATOM      7  C   UNL     1      -0.549  -0.960  25.024  0.00  0.00    +0.091 C 
BRANCH   7   8
ATOM      8  C   UNL     1      -0.149  -1.074  24.313  0.00  0.00    +0.242 C 
ATOM      9  O   UNL     1      -0.235  -1.783  23.900  0.00  0.00    -0.273 OA
ATOM     10  N   UNL     1       0.337  -0.479  24.013  0.00  0.00    -0.204 NA
BRANCH  10  11
ATOM     11  C   UNL     1       0.738  -0.593  23.301  0.00  0.00    +0.132 C 
BRANCH  11  12
ATOM     12  C   UNL     1       1.094   0.046  22.921  0.00  0.00    +0.096 C 
BRANCH  12  13
ATOM     13  N   UNL     1       1.731  -0.078  22.412  0.00  0.00    -0.269 NA
ATOM     14  C   UNL     1       2.498   0.097  22.659  0.00  0.00    +0.090 C 
ATOM     15  C   UNL     1       1.601  -0.378  21.654  0.00  0.00    +0.090 C 
ENDBRANCH  12  13
ENDBRANCH  11  12
ENDBRANCH  10  11
ENDBRANCH   7   8
ENDBRANCH   6   7
BRANCH  19  20
ATOM     20  C   UNL     1      -3.772  -0.251  25.016  0.00  0.00    +0.121 C 
BRANCH  20  21
ATOM     21  N   UNL     1      -4.047   0.415  24.615  0.00  0.00    -0.187 NA
ATOM     22  C   UNL     1      -4.533   0.959  25.001  0.00  0.00    +0.344 C 
ATOM     23  O   UNL     1      -4.744   0.835  25.789  0.00  0.00    -0.249 OA
ATOM     24  N   UNL     1      -4.808   1.625  24.600  0.00  0.00    -0.161 NA
BRANCH  24  25
ATOM     25  C   UNL     1      -5.293   2.167  24.986  0.00  0.00    +0.075 A 
ATOM     26  C   UNL     1      -4.989   2.895  25.227  0.00  0.00    +0.017 A 
ATOM     27  C   UNL     1      -5.475   3.439  25.614  0.00  0.00    +0.001 A 
ATOM     28  C   UNL     1      -6.265   3.254  25.760  0.00  0.00    +0.000 A 
ATOM     29  C   UNL     1      -6.570   2.526  25.519  0.00  0.00    +0.001 A 
ATOM     30  C   UNL     1      -6.084   1.983  25.133  0.00  0.00    +0.017 A 
ENDBRANCH  24  25
ENDBRANCH  20  21
ENDBRANCH  19  20
TORSDOF 9
ENDMDL
