MODEL 1
REMARK VINA RESULT:      -9.3      0.000      0.000
REMARK  Name = 
REMARK  9 active torsions:
REMARK  status: ('A' for Active; 'I' for Inactive)
REMARK    1  A    between atoms: O_2  and  C_3
REMARK    2  A    between atoms: C_3  and  C_4
REMARK    3  A    between atoms: C_4  and  O_5
REMARK    4  A    between atoms: O_5  and  C_6
REMARK    5  A    between atoms: C_8  and  C_12
REMARK    6  A    between atoms: C_15  and  C_17
REMARK    7  A    between atoms: N_21  and  C_22
REMARK    8  A    between atoms: C_22  and  C_23
REMARK    9  A    between atoms: C_26  and  C_27
REMARK                            x       y       z     vdW  Elec       q    Type
REMARK                         _______ _______ _______ _____ _____    ______ ____
ROOT
ATOM     12  C   UNL     1      -0.754   2.580  25.243  0.00  0.00    +0.221 A 
ATOM     13  N   UNL     1      -0.262   2.265  25.825  0.00  0.00    -0.054 NA
ATOM     14  O   UNL     1       0.041   1.551  25.544  0.00  0.00    -0.336 OA
ATOM     15  C   UNL     1      -0.265   1.424  24.789  0.00  0.00    +0.251 A 
ATOM     16  N   UNL     1      -0.756   2.060  24.602  0.00  0.00    -0.188 NA
ENDROOT
BRANCH  12   8
ATOM      6  C   UNL     1      -2.357   4.007  25.642  0.00  0.00    +0.142 A 
ATOM      7  C   UNL     1      -1.940   3.297  25.592  0.00  0.00    +0.059 A 
ATOM      8  C   UNL     1      -1.171   3.290  25.293  0.00  0.00    +0.123 A 
ATOM      9  N   UNL     1      -0.820   3.994  25.043  0.00  0.00    -0.240 NA
ATOM     10  C   UNL     1      -1.237   4.704  25.093  0.00  0.00    +0.102 A 
ATOM     11  C   UNL     1      -2.006   4.709  25.393  0.00  0.00    +0.058 A 
BRANCH   6   5
ATOM      5  O   UNL     1      -3.126   4.012  25.941  0.00  0.00    -0.473 OA
BRANCH   5   4
ATOM      4  C   UNL     1      -3.753   3.753  25.472  0.00  0.00    +0.237 C 
BRANCH   4   3
ATOM      3  C   UNL     1      -4.503   3.653  25.802  0.00  0.00    +0.189 C 
BRANCH   3   2
ATOM      1  C   UNL     1      -5.665   2.865  25.537  0.00  0.00    +0.174 C 
ATOM      2  O   UNL     1      -5.145   3.468  25.319  0.00  0.00    -0.347 OA
ENDBRANCH   3   2
ENDBRANCH   4   3
ENDBRANCH   5   4
ENDBRANCH   6   5
ENDBRANCH  12   8
BRANCH  15  17
ATOM     17  C   UNL     1      -0.107   0.775  24.304  0.00  0.00    +0.138 C 
ATOM     18  C   UNL     1       0.371   0.777  23.632  0.00  0.00    +0.027 C 
ATOM     19  C   UNL     1       0.374   0.013  23.320  0.00  0.00    +0.019 C 
ATOM     20  C   UNL     1      -0.102  -0.461  23.799  0.00  0.00    +0.073 C 
ATOM     21  N   UNL     1      -0.399   0.010  24.407  0.00  0.00    -0.260 NA
BRANCH  21  22
ATOM     22  C   UNL     1      -0.901  -0.239  25.013  0.00  0.00    +0.138 C 
BRANCH  22  23
ATOM     23  C   UNL     1      -1.365  -0.914  24.912  0.00  0.00    +0.139 A 
ATOM     24  C   UNL     1      -1.127  -1.691  25.051  0.00  0.00    +0.037 A 
ATOM     25  C   UNL     1      -1.764  -2.186  24.878  0.00  0.00    +0.038 A 
ATOM     26  C   UNL     1      -2.395  -1.716  24.633  0.00  0.00    +0.156 A 
ATOM     29  O   UNL     1      -2.149  -0.928  24.654  0.00  0.00    -0.458 OA
BRANCH  26  27
ATOM     27  C   UNL     1      -3.141  -1.985  24.407  0.00  0.00    +0.246 C 
ATOM     28  O   UNL     1      -3.404  -2.728  24.651  0.00  0.00    -0.212 OA
ENDBRANCH  26  27
ENDBRANCH  22  23
ENDBRANCH  21  22
ENDBRANCH  15  17
TORSDOF 9
ENDMDL
MODEL 2
REMARK VINA RESULT:      -9.2      1.752      3.886
REMARK  Name = 
REMARK  9 active torsions:
REMARK  status: ('A' for Active; 'I' for Inactive)
REMARK    1  A    between atoms: O_2  and  C_3
REMARK    2  A    between atoms: C_3  and  C_4
REMARK    3  A    between atoms: C_4  and  O_5
REMARK    4  A    between atoms: O_5  and  C_6
REMARK    5  A    between atoms: C_8  and  C_12
REMARK    6  A    between atoms: C_15  and  C_17
REMARK    7  A    between atoms: N_21  and  C_22
REMARK    8  A    between atoms: C_22  and  C_23
REMARK    9  A    between atoms: C_26  and  C_27
REMARK                            x       y       z     vdW  Elec       q    Type
REMARK                         _______ _______ _______ _____ _____    ______ ____
ROOT
ATOM     12  C   UNL     1      -3.150   3.488  24.754  0.00  0.00    +0.221 A 
ATOM     13  N   UNL     1      -3.652   3.706  24.137  0.00  0.00    -0.054 NA
ATOM     14  O   UNL     1      -4.333   3.245  24.187  0.00  0.00    -0.336 OA
ATOM     15  C   UNL     1      -4.253   2.740  24.834  0.00  0.00    +0.251 A 
ATOM     16  N   UNL     1      -3.522   2.890  25.185  0.00  0.00    -0.188 NA
ENDROOT
BRANCH  12   8
ATOM      6  C   UNL     1      -1.002   3.641  25.109  0.00  0.00    +0.142 A 
ATOM      7  C   UNL     1      -1.745   3.319  24.951  0.00  0.00    +0.059 A 
ATOM      8  C   UNL     1      -2.407   3.809  24.912  0.00  0.00    +0.123 A 
ATOM      9  N   UNL     1      -2.326   4.622  25.032  0.00  0.00    -0.240 NA
ATOM     10  C   UNL     1      -1.583   4.944  25.190  0.00  0.00    +0.102 A 
ATOM     11  C   UNL     1      -0.921   4.453  25.229  0.00  0.00    +0.058 A 
BRANCH   6   5
ATOM      5  O   UNL     1      -0.340   3.150  25.147  0.00  0.00    -0.473 OA
BRANCH   5   4
ATOM      4  C   UNL     1      -0.145   2.671  24.505  0.00  0.00    +0.237 C 
BRANCH   4   3
ATOM      3  C   UNL     1       0.330   2.005  24.615  0.00  0.00    +0.189 C 
BRANCH   3   2
ATOM      1  C   UNL     1       0.744   0.909  23.797  0.00  0.00    +0.174 C 
ATOM      2  O   UNL     1       0.780   1.711  23.989  0.00  0.00    -0.347 OA
ENDBRANCH   3   2
ENDBRANCH   4   3
ENDBRANCH   5   4
ENDBRANCH   6   5
ENDBRANCH  12   8
BRANCH  15  17
ATOM     17  C   UNL     1      -4.807   2.183  25.087  0.00  0.00    +0.138 C 
ATOM     18  C   UNL     1      -5.485   2.340  25.529  0.00  0.00    +0.027 C 
ATOM     19  C   UNL     1      -5.878   1.626  25.657  0.00  0.00    +0.019 C 
ATOM     20  C   UNL     1      -5.441   1.027  25.294  0.00  0.00    +0.073 C 
ATOM     21  N   UNL     1      -4.780   1.372  24.942  0.00  0.00    -0.260 NA
BRANCH  21  22
ATOM     22  C   UNL     1      -4.193   0.974  24.518  0.00  0.00    +0.138 C 
BRANCH  22  23
ATOM     23  C   UNL     1      -4.109   0.158  24.599  0.00  0.00    +0.139 A 
ATOM     24  C   UNL     1      -4.402  -0.415  24.083  0.00  0.00    +0.037 A 
ATOM     25  C   UNL     1      -4.190  -1.155  24.377  0.00  0.00    +0.038 A 
ATOM     26  C   UNL     1      -3.765  -1.041  25.074  0.00  0.00    +0.156 A 
ATOM     29  O   UNL     1      -3.715  -0.229  25.213  0.00  0.00    -0.458 OA
BRANCH  26  27
ATOM     27  C   UNL     1      -3.447  -1.635  25.550  0.00  0.00    +0.246 C 
ATOM     28  O   UNL     1      -3.518  -2.426  25.327  0.00  0.00    -0.212 OA
ENDBRANCH  26  27
ENDBRANCH  22  23
ENDBRANCH  21  22
ENDBRANCH  15  17
TORSDOF 9
ENDMDL
MODEL 3
REMARK VINA RESULT:      -9.1      0.756      4.659
REMARK  Name = 
REMARK  9 active torsions:
REMARK  status: ('A' for Active; 'I' for Inactive)
REMARK    1  A    between atoms: O_2  and  C_3
REMARK    2  A    between atoms: C_3  and  C_4
REMARK    3  A    between atoms: C_4  and  O_5
REMARK    4  A    between atoms: O_5  and  C_6
REMARK    5  A    between atoms: C_8  and  C_12
REMARK    6  A    between atoms: C_15  and  C_17
REMARK    7  A    between atoms: N_21  and  C_22
REMARK    8  A    between atoms: C_22  and  C_23
REMARK    9  A    between atoms: C_26  and  C_27
REMARK                            x       y       z     vdW  Elec       q    Type
REMARK                         _______ _______ _______ _____ _____    ______ ____
ROOT
ATOM     12  C   UNL     1      -0.341   1.724  24.995  0.00  0.00    +0.221 A 
ATOM     13  N   UNL     1      -0.013   1.933  25.723  0.00  0.00    -0.054 NA
ATOM     14  O   UNL     1      -0.248   2.705  25.896  0.00  0.00    -0.336 OA
ATOM     15  C   UNL     1      -0.721   2.973  25.275  0.00  0.00    +0.251 A 
ATOM     16  N   UNL     1      -0.778   2.367  24.719  0.00  0.00    -0.188 NA
ENDROOT
BRANCH  12   8
ATOM      6  C   UNL     1      -0.527  -0.398  24.522  0.00  0.00    +0.142 A 
ATOM      7  C   UNL     1      -0.621   0.326  24.906  0.00  0.00    +0.059 A 
ATOM      8  C   UNL     1      -0.248   1.000  24.611  0.00  0.00    +0.123 A 
ATOM      9  N   UNL     1       0.219   0.950  23.932  0.00  0.00    -0.240 NA
ATOM     10  C   UNL     1       0.312   0.226  23.548  0.00  0.00    +0.102 A 
ATOM     11  C   UNL     1      -0.061  -0.448  23.844  0.00  0.00    +0.058 A 
BRANCH   6   5
ATOM      5  O   UNL     1      -0.901  -1.072  24.817  0.00  0.00    -0.473 OA
BRANCH   5   4
ATOM      4  C   UNL     1      -1.599  -1.342  24.469  0.00  0.00    +0.237 C 
BRANCH   4   3
ATOM      3  C   UNL     1      -2.006  -1.978  24.800  0.00  0.00    +0.189 C 
BRANCH   3   2
ATOM      1  C   UNL     1      -3.314  -2.553  24.758  0.00  0.00    +0.174 C 
ATOM      2  O   UNL     1      -2.612  -2.346  24.377  0.00  0.00    -0.347 OA
ENDBRANCH   3   2
ENDBRANCH   4   3
ENDBRANCH   5   4
ENDBRANCH   6   5
ENDBRANCH  12   8
BRANCH  15  17
ATOM     17  C   UNL     1      -1.074   3.717  25.222  0.00  0.00    +0.138 C 
ATOM     18  C   UNL     1      -0.736   4.391  24.889  0.00  0.00    +0.027 C 
ATOM     19  C   UNL     1      -1.280   5.007  24.953  0.00  0.00    +0.019 C 
ATOM     20  C   UNL     1      -1.956   4.713  25.325  0.00  0.00    +0.073 C 
ATOM     21  N   UNL     1      -1.828   3.916  25.491  0.00  0.00    -0.260 NA
BRANCH  21  22
ATOM     22  C   UNL     1      -2.361   3.406  25.862  0.00  0.00    +0.138 C 
BRANCH  22  23
ATOM     23  C   UNL     1      -3.164   3.447  25.680  0.00  0.00    +0.139 A 
ATOM     24  C   UNL     1      -3.717   3.949  26.031  0.00  0.00    +0.037 A 
ATOM     25  C   UNL     1      -4.449   3.805  25.682  0.00  0.00    +0.038 A 
ATOM     26  C   UNL     1      -4.352   3.214  25.116  0.00  0.00    +0.156 A 
ATOM     29  O   UNL     1      -3.556   2.992  25.114  0.00  0.00    -0.458 OA
BRANCH  26  27
ATOM     27  C   UNL     1      -4.943   2.899  24.635  0.00  0.00    +0.246 C 
ATOM     28  O   UNL     1      -5.511   2.394  24.956  0.00  0.00    -0.212 OA
ENDBRANCH  26  27
ENDBRANCH  22  23
ENDBRANCH  21  22
ENDBRANCH  15  17
TORSDOF 9
ENDMDL
MODEL 4
REMARK VINA RESULT:      -9.1      1.970      3.511
REMARK  Name = 
REMARK  9 active torsions:
REMARK  status: ('A' for Active; 'I' for Inactive)
REMARK    1  A    between atoms: O_2  and  C_3
REMARK    2  A    between atoms: C_3  and  C_4
REMARK    3  A    between atoms: C_4  and  O_5
REMARK    4  A    between atoms: O_5  and  C_6
REMARK    5  A    between atoms: C_8  and  C_12
REMARK    6  A    between atoms: C_15  and  C_17
REMARK    7  A    between atoms: N_21  and  C_22
REMARK    8  A    between atoms: C_22  and  C_23
REMARK    9  A    between atoms: C_26  and  C_27
REMARK                            x       y       z     vdW  Elec       q    Type
REMARK                         _______ _______ _______ _____ _____    ______ ____
ROOT
ATOM     12  C   UNL     1      -4.409   0.642  25.153  0.00  0.00    +0.221 A 
ATOM     13  N   UNL     1      -4.566   0.229  25.850  0.00  0.00    -0.054 NA
ATOM     14  O   UNL     1      -4.287  -0.542  25.757  0.00  0.00    -0.336 OA
ATOM     15  C   UNL     1      -3.957  -0.605  25.004  0.00  0.00    +0.251 A 
ATOM     16  N   UNL     1      -4.032   0.126  24.630  0.00  0.00    -0.188 NA
ENDROOT
BRANCH  12   8
ATOM      6  C   UNL     1      -4.188   2.754  24.648  0.00  0.00    +0.142 A 
ATOM      7  C   UNL     1      -4.001   1.964  24.796  0.00  0.00    +0.059 A 
ATOM      8  C   UNL     1      -4.595   1.432  25.006  0.00  0.00    +0.123 A 
ATOM      9  N   UNL     1      -5.377   1.690  25.067  0.00  0.00    -0.240 NA
ATOM     10  C   UNL     1      -5.564   2.480  24.919  0.00  0.00    +0.102 A 
ATOM     11  C   UNL     1      -4.968   3.012  24.710  0.00  0.00    +0.058 A 
BRANCH   6   5
ATOM      5  O   UNL     1      -3.592   3.286  24.438  0.00  0.00    -0.473 OA
BRANCH   5   4
ATOM      4  C   UNL     1      -3.172   3.685  25.025  0.00  0.00    +0.237 C 
BRANCH   4   3
ATOM      3  C   UNL     1      -2.542   4.176  24.819  0.00  0.00    +0.189 C 
BRANCH   3   2
ATOM      1  C   UNL     1      -1.442   5.004  25.202  0.00  0.00    +0.174 C 
ATOM      2  O   UNL     1      -2.096   4.545  25.408  0.00  0.00    -0.347 OA
ENDBRANCH   3   2
ENDBRANCH   4   3
ENDBRANCH   5   4
ENDBRANCH   6   5
ENDBRANCH  12   8
BRANCH  15  17
ATOM     17  C   UNL     1      -3.612  -1.282  24.681  0.00  0.00    +0.138 C 
ATOM     18  C   UNL     1      -3.987  -1.833  24.196  0.00  0.00    +0.027 C 
ATOM     19  C   UNL     1      -3.438  -2.417  24.002  0.00  0.00    +0.019 C 
ATOM     20  C   UNL     1      -2.723  -2.226  24.366  0.00  0.00    +0.073 C 
ATOM     21  N   UNL     1      -2.830  -1.525  24.786  0.00  0.00    -0.260 NA
BRANCH  21  22
ATOM     22  C   UNL     1      -2.257  -1.134  25.233  0.00  0.00    +0.138 C 
BRANCH  22  23
ATOM     23  C   UNL     1      -1.481  -1.087  24.956  0.00  0.00    +0.139 A 
ATOM     24  C   UNL     1      -0.870  -1.613  25.131  0.00  0.00    +0.037 A 
ATOM     25  C   UNL     1      -0.193  -1.356  24.739  0.00  0.00    +0.038 A 
ATOM     26  C   UNL     1      -0.383  -0.671  24.321  0.00  0.00    +0.156 A 
ATOM     29  O   UNL     1      -1.180  -0.504  24.455  0.00  0.00    -0.458 OA
BRANCH  26  27
ATOM     27  C   UNL     1       0.132  -0.230  23.852  0.00  0.00    +0.246 C 
ATOM     28  O   UNL     1       0.552  -0.596  23.243  0.00  0.00    -0.212 OA
ENDBRANCH  26  27
ENDBRANCH  22  23
ENDBRANCH  21  22
ENDBRANCH  15  17
TORSDOF 9
ENDMDL
MODEL 5
REMARK VINA RESULT:      -8.9      1.971      5.837
REMARK  Name = 
REMARK  9 active torsions:
REMARK  status: ('A' for Active; 'I' for Inactive)
REMARK    1  A    between atoms: O_2  and  C_3
REMARK    2  A    between atoms: C_3  and  C_4
REMARK    3  A    between atoms: C_4  and  O_5
REMARK    4  A    between atoms: O_5  and  C_6
REMARK    5  A    between atoms: C_8  and  C_12
REMARK    6  A    between atoms: C_15  and  C_17
REMARK    7  A    between atoms: N_21  and  C_22
REMARK    8  A    between atoms: C_22  and  C_23
REMARK    9  A    between atoms: C_26  and  C_27
REMARK                            x       y       z     vdW  Elec       q    Type
REMARK                         _______ _______ _______ _____ _____    ______ ____
ROOT
ATOM     12  C   UNL     1      -4.050  -0.355  24.746  0.00  0.00    +0.221 A 
ATOM     13  N   UNL     1      -4.567  -0.275  24.108  0.00  0.00    -0.054 NA
ATOM     14  O   UNL     1      -4.984   0.430  24.204  0.00  0.00    -0.336 OA
ATOM     15  C   UNL     1      -4.724   0.786  24.901  0.00  0.00    +0.251 A 
ATOM     16  N   UNL     1      -4.148   0.302  25.236  0.00  0.00    -0.188 NA
ENDROOT
BRANCH  12   8
ATOM      6  C   UNL     1      -2.193  -1.468  25.018  0.00  0.00    +0.142 A 
ATOM      7  C   UNL     1      -2.715  -0.842  24.892  0.00  0.00    +0.059 A 
ATOM      8  C   UNL     1      -3.528  -0.981  24.871  0.00  0.00    +0.123 A 
ATOM      9  N   UNL     1      -3.818  -1.747  24.977  0.00  0.00    -0.240 NA
ATOM     10  C   UNL     1      -3.296  -2.373  25.102  0.00  0.00    +0.102 A 
ATOM     11  C   UNL     1      -2.483  -2.233  25.123  0.00  0.00    +0.058 A 
BRANCH   6   5
ATOM      5  O   UNL     1      -1.380  -1.329  25.039  0.00  0.00    -0.473 OA
BRANCH   5   4
ATOM      4  C   UNL     1      -0.969  -1.180  24.339  0.00  0.00    +0.237 C 
BRANCH   4   3
ATOM      3  C   UNL     1      -0.237  -0.802  24.362  0.00  0.00    +0.189 C 
BRANCH   3   2
ATOM      1  C   UNL     1       0.585  -0.093  23.433  0.00  0.00    +0.174 C 
ATOM      2  O   UNL     1       0.248  -0.799  23.694  0.00  0.00    -0.347 OA
ENDBRANCH   3   2
ENDBRANCH   4   3
ENDBRANCH   5   4
ENDBRANCH   6   5
ENDBRANCH  12   8
BRANCH  15  17
ATOM     17  C   UNL     1      -4.995   1.503  25.209  0.00  0.00    +0.138 C 
ATOM     18  C   UNL     1      -5.636   1.600  25.719  0.00  0.00    +0.027 C 
ATOM     19  C   UNL     1      -5.709   2.404  25.886  0.00  0.00    +0.019 C 
ATOM     20  C   UNL     1      -5.112   2.805  25.480  0.00  0.00    +0.073 C 
ATOM     21  N   UNL     1      -4.671   2.247  25.062  0.00  0.00    -0.260 NA
BRANCH  21  22
ATOM     22  C   UNL     1      -4.020   2.406  24.580  0.00  0.00    +0.138 C 
BRANCH  22  23
ATOM     23  C   UNL     1      -3.570   3.085  24.707  0.00  0.00    +0.139 A 
ATOM     24  C   UNL     1      -3.683   3.818  24.346  0.00  0.00    +0.037 A 
ATOM     25  C   UNL     1      -3.110   4.335  24.635  0.00  0.00    +0.038 A 
ATOM     26  C   UNL     1      -2.642   3.924  25.174  0.00  0.00    +0.156 A 
ATOM     29  O   UNL     1      -2.926   3.150  25.220  0.00  0.00    -0.458 OA
BRANCH  26  27
ATOM     27  C   UNL     1      -2.002   4.230  25.595  0.00  0.00    +0.246 C 
ATOM     28  O   UNL     1      -1.703   4.976  25.406  0.00  0.00    -0.212 OA
ENDBRANCH  26  27
ENDBRANCH  22  23
ENDBRANCH  21  22
ENDBRANCH  15  17
TORSDOF 9
ENDMDL
MODEL 6
REMARK VINA RESULT:      -8.9      1.641      4.212
REMARK  Name = 
REMARK  9 active torsions:
REMARK  status: ('A' for Active; 'I' for Inactive)
REMARK    1  A    between atoms: O_2  and  C_3
REMARK    2  A    between atoms: C_3  and  C_4
REMARK    3  A    between atoms: C_4  and  O_5
REMARK    4  A    between atoms: O_5  and  C_6
REMARK    5  A    between atoms: C_8  and  C_12
REMARK    6  A    between atoms: C_15  and  C_17
REMARK    7  A    between atoms: N_21  and  C_22
REMARK    8  A    between atoms: C_22  and  C_23
REMARK    9  A    between atoms: C_26  and  C_27
REMARK                            x       y       z     vdW  Elec       q    Type
REMARK                         _______ _______ _______ _____ _____    ______ ____
ROOT
ATOM     12  C   UNL     1      -3.936   3.373  25.672  0.00  0.00    +0.221 A 
ATOM     13  N   UNL     1      -3.873   3.816  26.365  0.00  0.00    -0.054 NA
ATOM     14  O   UNL     1      -3.153   4.218  26.346  0.00  0.00    -0.336 OA
ATOM     15  C   UNL     1      -2.771   4.024  25.641  0.00  0.00    +0.251 A 
ATOM     16  N   UNL     1      -3.254   3.501  25.225  0.00  0.00    -0.188 NA
ENDROOT
BRANCH  12   8
ATOM      6  C   UNL     1      -5.062   1.686  24.866  0.00  0.00    +0.142 A 
ATOM      7  C   UNL     1      -4.429   2.172  25.075  0.00  0.00    +0.059 A 
ATOM      8  C   UNL     1      -4.568   2.887  25.463  0.00  0.00    +0.123 A 
ATOM      9  N   UNL     1      -5.341   3.116  25.641  0.00  0.00    -0.240 NA
ATOM     10  C   UNL     1      -5.974   2.629  25.432  0.00  0.00    +0.102 A 
ATOM     11  C   UNL     1      -5.834   1.915  25.044  0.00  0.00    +0.058 A 
BRANCH   6   5
ATOM      5  O   UNL     1      -4.922   0.971  24.478  0.00  0.00    -0.473 OA
BRANCH   5   4
ATOM      4  C   UNL     1      -4.543   0.355  24.875  0.00  0.00    +0.237 C 
BRANCH   4   3
ATOM      3  C   UNL     1      -4.338  -0.333  24.469  0.00  0.00    +0.189 C 
BRANCH   3   2
ATOM      1  C   UNL     1      -3.836  -1.671  24.475  0.00  0.00    +0.174 C 
ATOM      2  O   UNL     1      -4.062  -0.991  24.884  0.00  0.00    -0.347 OA
ENDBRANCH   3   2
ENDBRANCH   4   3
ENDBRANCH   5   4
ENDBRANCH   6   5
ENDBRANCH  12   8
BRANCH  15  17
ATOM     17  C   UNL     1      -2.033   4.303  25.397  0.00  0.00    +0.138 C 
ATOM     18  C   UNL     1      -1.884   5.036  25.050  0.00  0.00    +0.027 C 
ATOM     19  C   UNL     1      -1.075   5.084  24.895  0.00  0.00    +0.019 C 
ATOM     20  C   UNL     1      -0.725   4.380  25.146  0.00  0.00    +0.073 C 
ATOM     21  N   UNL     1      -1.317   3.897  25.456  0.00  0.00    -0.260 NA
BRANCH  21  22
ATOM     22  C   UNL     1      -1.213   3.141  25.770  0.00  0.00    +0.138 C 
BRANCH  22  23
ATOM     23  C   UNL     1      -0.659   2.630  25.436  0.00  0.00    +0.139 A 
ATOM     24  C   UNL     1       0.105   2.491  25.716  0.00  0.00    +0.037 A 
ATOM     25  C   UNL     1       0.463   1.943  25.216  0.00  0.00    +0.038 A 
ATOM     26  C   UNL     1      -0.077   1.742  24.626  0.00  0.00    +0.156 A 
ATOM     29  O   UNL     1      -0.772   2.167  24.762  0.00  0.00    -0.458 OA
BRANCH  26  27
ATOM     27  C   UNL     1       0.053   1.211  24.010  0.00  0.00    +0.246 C 
ATOM     28  O   UNL     1      -0.184   0.423  24.086  0.00  0.00    -0.212 OA
ENDBRANCH  26  27
ENDBRANCH  22  23
ENDBRANCH  21  22
ENDBRANCH  15  17
TORSDOF 9
ENDMDL
MODEL 7
REMARK VINA RESULT:      -8.5      1.645      5.388
REMARK  Name = 
REMARK  9 active torsions:
REMARK  status: ('A' for Active; 'I' for Inactive)
REMARK    1  A    between atoms: O_2  and  C_3
REMARK    2  A    between atoms: C_3  and  C_4
REMARK    3  A    between atoms: C_4  and  O_5
REMARK    4  A    between atoms: O_5  and  C_6
REMARK    5  A    between atoms: C_8  and  C_12
REMARK    6  A    between atoms: C_15  and  C_17
REMARK    7  A    between atoms: N_21  and  C_22
REMARK    8  A    between atoms: C_22  and  C_23
REMARK    9  A    between atoms: C_26  and  C_27
REMARK                            x       y       z     vdW  Elec       q    Type
REMARK                         _______ _______ _______ _____ _____    ______ ____
ROOT
ATOM     12  C   UNL     1      -0.518   1.406  24.965  0.00  0.00    +0.221 A 
ATOM     13  N   UNL     1      -0.348   1.549  25.759  0.00  0.00    -0.054 NA
ATOM     14  O   UNL     1      -0.661   2.285  25.958  0.00  0.00    -0.336 OA
ATOM     15  C   UNL     1      -1.025   2.598  25.287  0.00  0.00    +0.251 A 
ATOM     16  N   UNL     1      -0.937   2.054  24.673  0.00  0.00    -0.188 NA
ENDROOT
BRANCH  12   8
ATOM      6  C   UNL     1       0.461   0.112  23.504  0.00  0.00    +0.142 A 
ATOM      7  C   UNL     1       0.250   0.785  23.932  0.00  0.00    +0.059 A 
ATOM      8  C   UNL     1      -0.308   0.732  24.537  0.00  0.00    +0.123 A 
ATOM      9  N   UNL     1      -0.655   0.005  24.715  0.00  0.00    -0.240 NA
ATOM     10  C   UNL     1      -0.444  -0.668  24.288  0.00  0.00    +0.102 A 
ATOM     11  C   UNL     1       0.114  -0.614  23.682  0.00  0.00    +0.058 A 
BRANCH   6   5
ATOM      5  O   UNL     1       1.019   0.167  22.899  0.00  0.00    -0.473 OA
BRANCH   5   4
ATOM      4  C   UNL     1       1.818   0.041  23.063  0.00  0.00    +0.237 C 
BRANCH   4   3
ATOM      3  C   UNL     1       2.388   0.216  22.493  0.00  0.00    +0.189 C 
BRANCH   3   2
ATOM      1  C   UNL     1       3.753   0.640  22.503  0.00  0.00    +0.174 C 
ATOM      2  O   UNL     1       3.184   0.059  22.644  0.00  0.00    -0.347 OA
ENDBRANCH   3   2
ENDBRANCH   4   3
ENDBRANCH   5   4
ENDBRANCH   6   5
ENDBRANCH  12   8
BRANCH  15  17
ATOM     17  C   UNL     1      -1.410   3.327  25.239  0.00  0.00    +0.138 C 
ATOM     18  C   UNL     1      -1.047   4.067  25.240  0.00  0.00    +0.027 C 
ATOM     19  C   UNL     1      -1.637   4.640  25.183  0.00  0.00    +0.019 C 
ATOM     20  C   UNL     1      -2.366   4.253  25.147  0.00  0.00    +0.073 C 
ATOM     21  N   UNL     1      -2.225   3.442  25.181  0.00  0.00    -0.260 NA
BRANCH  21  22
ATOM     22  C   UNL     1      -2.798   2.848  25.162  0.00  0.00    +0.138 C 
BRANCH  22  23
ATOM     23  C   UNL     1      -3.593   3.047  25.074  0.00  0.00    +0.139 A 
ATOM     24  C   UNL     1      -3.986   3.173  24.360  0.00  0.00    +0.037 A 
ATOM     25  C   UNL     1      -4.771   3.359  24.530  0.00  0.00    +0.038 A 
ATOM     26  C   UNL     1      -4.865   3.348  25.350  0.00  0.00    +0.156 A 
ATOM     29  O   UNL     1      -4.136   3.155  25.687  0.00  0.00    -0.458 OA
BRANCH  26  27
ATOM     27  C   UNL     1      -5.563   3.502  25.760  0.00  0.00    +0.246 C 
ATOM     28  O   UNL     1      -5.921   4.243  25.702  0.00  0.00    -0.212 OA
ENDBRANCH  26  27
ENDBRANCH  22  23
ENDBRANCH  21  22
ENDBRANCH  15  17
TORSDOF 9
ENDMDL
MODEL 8
REMARK VINA RESULT:      -8.1      1.401      4.275
REMARK  Name = 
REMARK  9 active torsions:
REMARK  status: ('A' for Active; 'I' for Inactive)
REMARK    1  A    between atoms: O_2  and  C_3
REMARK    2  A    between atoms: C_3  and  C_4
REMARK    3  A    between atoms: C_4  and  O_5
REMARK    4  A    between atoms: O_5  and  C_6
REMARK    5  A    between atoms: C_8  and  C_12
REMARK    6  A    between atoms: C_15  and  C_17
REMARK    7  A    between atoms: N_21  and  C_22
REMARK    8  A    between atoms: C_22  and  C_23
REMARK    9  A    between atoms: C_26  and  C_27
REMARK                            x       y       z     vdW  Elec       q    Type
REMARK                         _______ _______ _______ _____ _____    ______ ____
ROOT
ATOM     12  C   UNL     1      -1.767  -1.012  24.619  0.00  0.00    +0.221 A 
ATOM     13  N   UNL     1      -1.161  -1.351  25.063  0.00  0.00    -0.054 NA
ATOM     14  O   UNL     1      -0.488  -0.881  24.977  0.00  0.00    -0.336 OA
ATOM     15  C   UNL     1      -0.679  -0.251  24.480  0.00  0.00    +0.251 A 
ATOM     16  N   UNL     1      -1.469  -0.332  24.258  0.00  0.00    -0.188 NA
ENDROOT
BRANCH  12   8
ATOM      6  C   UNL     1      -3.945  -1.070  24.483  0.00  0.00    +0.142 A 
ATOM      7  C   UNL     1      -3.176  -0.780  24.555  0.00  0.00    +0.059 A 
ATOM      8  C   UNL     1      -2.536  -1.301  24.547  0.00  0.00    +0.123 A 
ATOM      9  N   UNL     1      -2.667  -2.113  24.468  0.00  0.00    -0.240 NA
ATOM     10  C   UNL     1      -3.436  -2.402  24.397  0.00  0.00    +0.102 A 
ATOM     11  C   UNL     1      -4.075  -1.880  24.404  0.00  0.00    +0.058 A 
BRANCH   6   5
ATOM      5  O   UNL     1      -4.584  -0.547  24.491  0.00  0.00    -0.473 OA
BRANCH   5   4
ATOM      4  C   UNL     1      -4.548   0.141  24.944  0.00  0.00    +0.237 C 
BRANCH   4   3
ATOM      3  C   UNL     1      -5.138   0.713  24.874  0.00  0.00    +0.189 C 
BRANCH   3   2
ATOM      1  C   UNL     1      -5.617   2.012  25.228  0.00  0.00    +0.174 C 
ATOM      2  O   UNL     1      -5.168   1.343  25.406  0.00  0.00    -0.347 OA
ENDBRANCH   3   2
ENDBRANCH   4   3
ENDBRANCH   5   4
ENDBRANCH   6   5
ENDBRANCH  12   8
BRANCH  15  17
ATOM     17  C   UNL     1      -0.168   0.353  24.246  0.00  0.00    +0.138 C 
ATOM     18  C   UNL     1       0.341   0.334  23.597  0.00  0.00    +0.027 C 
ATOM     19  C   UNL     1       0.746   1.051  23.570  0.00  0.00    +0.019 C 
ATOM     20  C   UNL     1       0.487   1.515  24.202  0.00  0.00    +0.073 C 
ATOM     21  N   UNL     1      -0.078   1.083  24.619  0.00  0.00    -0.260 NA
BRANCH  21  22
ATOM     22  C   UNL     1      -0.482   1.337  25.293  0.00  0.00    +0.138 C 
BRANCH  22  23
ATOM     23  C   UNL     1      -0.626   2.141  25.408  0.00  0.00    +0.139 A 
ATOM     24  C   UNL     1      -0.146   2.666  25.824  0.00  0.00    +0.037 A 
ATOM     25  C   UNL     1      -0.501   3.410  25.799  0.00  0.00    +0.038 A 
ATOM     26  C   UNL     1      -1.200   3.345  25.368  0.00  0.00    +0.156 A 
ATOM     29  O   UNL     1      -1.279   2.560  25.125  0.00  0.00    -0.458 OA
BRANCH  26  27
ATOM     27  C   UNL     1      -1.729   3.957  25.207  0.00  0.00    +0.246 C 
ATOM     28  O   UNL     1      -1.507   4.741  25.339  0.00  0.00    -0.212 OA
ENDBRANCH  26  27
ENDBRANCH  22  23
ENDBRANCH  21  22
ENDBRANCH  15  17
TORSDOF 9
ENDMDL
