MODEL 1
REMARK VINA RESULT:     -11.4      0.000      0.000
REMARK  Name = 
REMARK  5 active torsions:
REMARK  status: ('A' for Active; 'I' for Inactive)
REMARK    1  A    between atoms: C_2  and  C_5
REMARK    2  A    between atoms: C_7  and  C_8
REMARK    3  A    between atoms: C_8  and  N_9
REMARK    4  A    between atoms: C_14  and  O_16
REMARK    5  A    between atoms: O_16  and  C_17
REMARK                            x       y       z     vdW  Elec       q    Type
REMARK                         _______ _______ _______ _____ _____    ______ ____
ROOT
ATOM      9  N   UNL     1      -3.240   1.176  24.238  0.00  0.00    -0.264 NA
ATOM     10  C   UNL     1      -3.223   1.108  23.417  0.00  0.00    +0.105 C 
ATOM     11  C   UNL     1      -2.690   1.441  22.884  0.00  0.00    +0.160 C 
ATOM     12  O   UNL     1      -2.041   1.926  23.041  0.00  0.00    -0.348 OA
ATOM     13  C   UNL     1      -1.765   2.197  23.769  0.00  0.00    +0.187 C 
ATOM     14  C   UNL     1      -2.071   2.050  24.521  0.00  0.00    +0.213 C 
ATOM     15  C   UNL     1      -2.727   1.596  24.730  0.00  0.00    +0.119 C 
ENDROOT
BRANCH   9   8
ATOM      8  C   UNL     1      -3.850   0.773  24.620  0.00  0.00    +0.099 C 
BRANCH   8   7
ATOM      5  C   UNL     1      -3.932  -1.401  24.445  0.00  0.00    +0.071 A 
ATOM      6  C   UNL     1      -4.018  -0.601  24.265  0.00  0.00    +0.001 A 
ATOM      7  C   UNL     1      -3.764  -0.028  24.800  0.00  0.00    -0.006 A 
ATOM     23  C   UNL     1      -3.425  -0.255  25.517  0.00  0.00    -0.003 A 
ATOM     24  C   UNL     1      -3.339  -1.056  25.698  0.00  0.00    -0.000 A 
ATOM     25  C   UNL     1      -3.592  -1.629  25.162  0.00  0.00    +0.004 A 
BRANCH   5   2
ATOM      1  F   UNL     1      -4.439  -2.548  23.372  0.00  0.00    -0.166 F 
ATOM      2  C   UNL     1      -4.186  -1.975  23.908  0.00  0.00    +0.419 C 
ATOM      3  F   UNL     1      -4.956  -1.686  23.964  0.00  0.00    -0.166 F 
ATOM      4  F   UNL     1      -3.415  -2.264  23.853  0.00  0.00    -0.166 F 
ENDBRANCH   5   2
ENDBRANCH   8   7
ENDBRANCH   9   8
BRANCH  14  16
ATOM     16  O   UNL     1      -1.666   2.403  25.147  0.00  0.00    -0.459 OA
BRANCH  16  17
ATOM     17  C   UNL     1      -1.644   3.225  25.212  0.00  0.00    +0.245 A 
ATOM     18  C   UNL     1      -0.980   3.642  24.953  0.00  0.00    +0.156 A 
ATOM     19  N   UNL     1      -0.958   4.463  25.017  0.00  0.00    -0.236 NA
ATOM     20  C   UNL     1      -1.598   4.870  25.342  0.00  0.00    +0.120 A 
ATOM     21  C   UNL     1      -2.261   4.453  25.601  0.00  0.00    +0.123 A 
ATOM     22  N   UNL     1      -2.284   3.631  25.537  0.00  0.00    -0.207 NA
ENDBRANCH  16  17
ENDBRANCH  14  16
TORSDOF 5
ENDMDL
MODEL 2
REMARK VINA RESULT:     -11.3      1.489      2.233
REMARK  Name = 
REMARK  5 active torsions:
REMARK  status: ('A' for Active; 'I' for Inactive)
REMARK    1  A    between atoms: C_2  and  C_5
REMARK    2  A    between atoms: C_7  and  C_8
REMARK    3  A    between atoms: C_8  and  N_9
REMARK    4  A    between atoms: C_14  and  O_16
REMARK    5  A    between atoms: O_16  and  C_17
REMARK                            x       y       z     vdW  Elec       q    Type
REMARK                         _______ _______ _______ _____ _____    ______ ____
ROOT
ATOM      9  N   UNL     1      -2.137   0.730  24.592  0.00  0.00    -0.264 NA
ATOM     10  C   UNL     1      -1.526   0.926  25.110  0.00  0.00    +0.105 C 
ATOM     11  C   UNL     1      -1.376   1.646  25.481  0.00  0.00    +0.160 C 
ATOM     12  O   UNL     1      -1.802   2.351  25.426  0.00  0.00    -0.348 OA
ATOM     13  C   UNL     1      -2.482   2.509  24.987  0.00  0.00    +0.187 C 
ATOM     14  C   UNL     1      -2.905   1.999  24.494  0.00  0.00    +0.213 C 
ATOM     15  C   UNL     1      -2.751   1.209  24.318  0.00  0.00    +0.119 C 
ENDROOT
BRANCH   9   8
ATOM      8  C   UNL     1      -2.135  -0.045  24.311  0.00  0.00    +0.099 C 
BRANCH   8   7
ATOM      5  C   UNL     1      -3.664  -1.590  24.520  0.00  0.00    +0.071 A 
ATOM      6  C   UNL     1      -3.164  -1.028  24.180  0.00  0.00    +0.001 A 
ATOM      7  C   UNL     1      -2.635  -0.608  24.652  0.00  0.00    -0.006 A 
ATOM     23  C   UNL     1      -2.603  -0.749  25.464  0.00  0.00    -0.003 A 
ATOM     24  C   UNL     1      -3.102  -1.312  25.804  0.00  0.00    -0.000 A 
ATOM     25  C   UNL     1      -3.632  -1.732  25.333  0.00  0.00    +0.004 A 
BRANCH   5   2
ATOM      1  F   UNL     1      -4.724  -2.430  23.576  0.00  0.00    -0.166 F 
ATOM      2  C   UNL     1      -4.194  -2.010  24.048  0.00  0.00    +0.419 C 
ATOM      3  F   UNL     1      -3.671  -2.648  24.029  0.00  0.00    -0.166 F 
ATOM      4  F   UNL     1      -4.717  -1.372  24.067  0.00  0.00    -0.166 F 
ENDBRANCH   5   2
ENDBRANCH   8   7
ENDBRANCH   9   8
BRANCH  14  16
ATOM     16  O   UNL     1      -3.568   2.325  24.127  0.00  0.00    -0.459 OA
BRANCH  16  17
ATOM     17  C   UNL     1      -4.238   2.507  24.573  0.00  0.00    +0.245 A 
ATOM     18  C   UNL     1      -4.319   3.255  24.910  0.00  0.00    +0.156 A 
ATOM     19  N   UNL     1      -4.989   3.437  25.355  0.00  0.00    -0.236 NA
ATOM     20  C   UNL     1      -5.578   2.870  25.465  0.00  0.00    +0.120 A 
ATOM     21  C   UNL     1      -5.497   2.121  25.128  0.00  0.00    +0.123 A 
ATOM     22  N   UNL     1      -4.827   1.940  24.683  0.00  0.00    -0.207 NA
ENDBRANCH  16  17
ENDBRANCH  14  16
TORSDOF 5
ENDMDL
MODEL 3
REMARK VINA RESULT:     -11.1      1.415      1.947
REMARK  Name = 
REMARK  5 active torsions:
REMARK  status: ('A' for Active; 'I' for Inactive)
REMARK    1  A    between atoms: C_2  and  C_5
REMARK    2  A    between atoms: C_7  and  C_8
REMARK    3  A    between atoms: C_8  and  N_9
REMARK    4  A    between atoms: C_14  and  O_16
REMARK    5  A    between atoms: O_16  and  C_17
REMARK                            x       y       z     vdW  Elec       q    Type
REMARK                         _______ _______ _______ _____ _____    ______ ____
ROOT
ATOM      9  N   UNL     1      -4.034   0.787  24.303  0.00  0.00    -0.264 NA
ATOM     10  C   UNL     1      -4.463   1.290  24.796  0.00  0.00    +0.105 C 
ATOM     11  C   UNL     1      -4.308   2.076  24.989  0.00  0.00    +0.160 C 
ATOM     12  O   UNL     1      -3.686   2.555  24.736  0.00  0.00    -0.348 OA
ATOM     13  C   UNL     1      -3.064   2.366  24.228  0.00  0.00    +0.187 C 
ATOM     14  C   UNL     1      -2.913   1.650  23.847  0.00  0.00    +0.213 C 
ATOM     15  C   UNL     1      -3.344   0.948  23.880  0.00  0.00    +0.119 C 
ENDROOT
BRANCH   9   8
ATOM      8  C   UNL     1      -4.335   0.023  24.221  0.00  0.00    +0.099 C 
BRANCH   8   7
ATOM      5  C   UNL     1      -3.439  -1.903  24.720  0.00  0.00    +0.071 A 
ATOM      6  C   UNL     1      -3.762  -1.284  24.281  0.00  0.00    +0.001 A 
ATOM      7  C   UNL     1      -4.011  -0.596  24.660  0.00  0.00    -0.006 A 
ATOM     23  C   UNL     1      -3.937  -0.526  25.479  0.00  0.00    -0.003 A 
ATOM     24  C   UNL     1      -3.613  -1.145  25.918  0.00  0.00    -0.000 A 
ATOM     25  C   UNL     1      -3.364  -1.833  25.539  0.00  0.00    +0.004 A 
BRANCH   5   2
ATOM      1  F   UNL     1      -2.940  -3.281  23.961  0.00  0.00    -0.166 F 
ATOM      2  C   UNL     1      -3.189  -2.592  24.340  0.00  0.00    +0.419 C 
ATOM      3  F   UNL     1      -3.961  -2.884  24.363  0.00  0.00    -0.166 F 
ATOM      4  F   UNL     1      -2.418  -2.300  24.317  0.00  0.00    -0.166 F 
ENDBRANCH   5   2
ENDBRANCH   8   7
ENDBRANCH   9   8
BRANCH  14  16
ATOM     16  O   UNL     1      -2.240   1.634  23.370  0.00  0.00    -0.459 OA
BRANCH  16  17
ATOM     17  C   UNL     1      -1.490   1.633  23.713  0.00  0.00    +0.245 A 
ATOM     18  C   UNL     1      -1.118   2.347  23.894  0.00  0.00    +0.156 A 
ATOM     19  N   UNL     1      -0.368   2.345  24.238  0.00  0.00    -0.236 NA
ATOM     20  C   UNL     1       0.010   1.631  24.400  0.00  0.00    +0.120 A 
ATOM     21  C   UNL     1      -0.362   0.917  24.218  0.00  0.00    +0.123 A 
ATOM     22  N   UNL     1      -1.112   0.918  23.875  0.00  0.00    -0.207 NA
ENDBRANCH  16  17
ENDBRANCH  14  16
TORSDOF 5
ENDMDL
MODEL 4
REMARK VINA RESULT:     -11.0      3.004      4.742
REMARK  Name = 
REMARK  5 active torsions:
REMARK  status: ('A' for Active; 'I' for Inactive)
REMARK    1  A    between atoms: C_2  and  C_5
REMARK    2  A    between atoms: C_7  and  C_8
REMARK    3  A    between atoms: C_8  and  N_9
REMARK    4  A    between atoms: C_14  and  O_16
REMARK    5  A    between atoms: O_16  and  C_17
REMARK                            x       y       z     vdW  Elec       q    Type
REMARK                         _______ _______ _______ _____ _____    ______ ____
ROOT
ATOM      9  N   UNL     1      -3.924   2.416  24.457  0.00  0.00    -0.264 NA
ATOM     10  C   UNL     1      -4.679   2.309  24.769  0.00  0.00    +0.105 C 
ATOM     11  C   UNL     1      -5.067   1.604  24.949  0.00  0.00    +0.160 C 
ATOM     12  O   UNL     1      -4.794   0.830  24.861  0.00  0.00    -0.348 OA
ATOM     13  C   UNL     1      -4.066   0.570  24.571  0.00  0.00    +0.187 C 
ATOM     14  C   UNL     1      -3.432   1.022  24.298  0.00  0.00    +0.213 C 
ATOM     15  C   UNL     1      -3.368   1.842  24.247  0.00  0.00    +0.119 C 
ENDROOT
BRANCH   9   8
ATOM      8  C   UNL     1      -3.692   3.198  24.338  0.00  0.00    +0.099 C 
BRANCH   8   7
ATOM      5  C   UNL     1      -2.096   4.290  25.352  0.00  0.00    +0.071 A 
ATOM      6  C   UNL     1      -2.518   3.891  24.765  0.00  0.00    +0.001 A 
ATOM      7  C   UNL     1      -3.270   3.597  24.926  0.00  0.00    -0.006 A 
ATOM     23  C   UNL     1      -3.603   3.699  25.674  0.00  0.00    -0.003 A 
ATOM     24  C   UNL     1      -3.181   4.098  26.261  0.00  0.00    -0.000 A 
ATOM     25  C   UNL     1      -2.429   4.393  26.100  0.00  0.00    +0.004 A 
BRANCH   5   2
ATOM      1  F   UNL     1      -0.589   4.880  25.029  0.00  0.00    -0.166 F 
ATOM      2  C   UNL     1      -1.343   4.585  25.191  0.00  0.00    +0.419 C 
ATOM      3  F   UNL     1      -1.017   3.846  25.362  0.00  0.00    -0.166 F 
ATOM      4  F   UNL     1      -1.668   5.323  25.019  0.00  0.00    -0.166 F 
ENDBRANCH   5   2
ENDBRANCH   8   7
ENDBRANCH   9   8
BRANCH  14  16
ATOM     16  O   UNL     1      -2.773   0.595  24.042  0.00  0.00    -0.459 OA
BRANCH  16  17
ATOM     17  C   UNL     1      -2.297   0.204  24.590  0.00  0.00    +0.245 A 
ATOM     18  C   UNL     1      -2.433  -0.591  24.762  0.00  0.00    +0.156 A 
ATOM     19  N   UNL     1      -1.956  -0.982  25.309  0.00  0.00    -0.236 NA
ATOM     20  C   UNL     1      -1.343  -0.579  25.685  0.00  0.00    +0.120 A 
ATOM     21  C   UNL     1      -1.207   0.217  25.514  0.00  0.00    +0.123 A 
ATOM     22  N   UNL     1      -1.684   0.608  24.966  0.00  0.00    -0.207 NA
ENDBRANCH  16  17
ENDBRANCH  14  16
TORSDOF 5
ENDMDL
MODEL 5
REMARK VINA RESULT:     -10.8      3.127      4.692
REMARK  Name = 
REMARK  5 active torsions:
REMARK  status: ('A' for Active; 'I' for Inactive)
REMARK    1  A    between atoms: C_2  and  C_5
REMARK    2  A    between atoms: C_7  and  C_8
REMARK    3  A    between atoms: C_8  and  N_9
REMARK    4  A    between atoms: C_14  and  O_16
REMARK    5  A    between atoms: O_16  and  C_17
REMARK                            x       y       z     vdW  Elec       q    Type
REMARK                         _______ _______ _______ _____ _____    ______ ____
ROOT
ATOM      9  N   UNL     1      -2.062   1.698  24.164  0.00  0.00    -0.264 NA
ATOM     10  C   UNL     1      -1.807   0.965  24.442  0.00  0.00    +0.105 C 
ATOM     11  C   UNL     1      -2.261   0.318  24.677  0.00  0.00    +0.160 C 
ATOM     12  O   UNL     1      -3.083   0.244  24.691  0.00  0.00    -0.348 OA
ATOM     13  C   UNL     1      -3.653   0.799  24.474  0.00  0.00    +0.187 C 
ATOM     14  C   UNL     1      -3.542   1.565  24.190  0.00  0.00    +0.213 C 
ATOM     15  C   UNL     1      -2.835   1.966  24.052  0.00  0.00    +0.119 C 
ENDROOT
BRANCH   9   8
ATOM      8  C   UNL     1      -1.466   2.236  23.973  0.00  0.00    +0.099 C 
BRANCH   8   7
ATOM      5  C   UNL     1      -1.027   4.023  25.146  0.00  0.00    +0.071 A 
ATOM      6  C   UNL     1      -1.340   3.531  24.563  0.00  0.00    +0.001 A 
ATOM      7  C   UNL     1      -1.153   2.728  24.557  0.00  0.00    -0.006 A 
ATOM     23  C   UNL     1      -0.652   2.416  25.133  0.00  0.00    -0.003 A 
ATOM     24  C   UNL     1      -0.338   2.909  25.717  0.00  0.00    -0.000 A 
ATOM     25  C   UNL     1      -0.525   3.711  25.723  0.00  0.00    +0.004 A 
BRANCH   5   2
ATOM      1  F   UNL     1      -1.402   5.630  25.160  0.00  0.00    -0.166 F 
ATOM      2  C   UNL     1      -1.215   4.826  25.153  0.00  0.00    +0.419 C 
ATOM      3  F   UNL     1      -0.570   4.981  24.662  0.00  0.00    -0.166 F 
ATOM      4  F   UNL     1      -1.860   4.672  25.644  0.00  0.00    -0.166 F 
ENDBRANCH   5   2
ENDBRANCH   8   7
ENDBRANCH   9   8
BRANCH  14  16
ATOM     16  O   UNL     1      -4.231   1.988  24.021  0.00  0.00    -0.459 OA
BRANCH  16  17
ATOM     17  C   UNL     1      -4.717   2.247  24.634  0.00  0.00    +0.245 A 
ATOM     18  C   UNL     1      -5.368   1.796  24.864  0.00  0.00    +0.156 A 
ATOM     19  N   UNL     1      -5.854   2.056  25.477  0.00  0.00    -0.236 NA
ATOM     20  C   UNL     1      -5.689   2.767  25.862  0.00  0.00    +0.120 A 
ATOM     21  C   UNL     1      -5.037   3.217  25.633  0.00  0.00    +0.123 A 
ATOM     22  N   UNL     1      -4.551   2.958  25.019  0.00  0.00    -0.207 NA
ENDBRANCH  16  17
ENDBRANCH  14  16
TORSDOF 5
ENDMDL
MODEL 6
REMARK VINA RESULT:     -10.8      2.655      4.782
REMARK  Name = 
REMARK  5 active torsions:
REMARK  status: ('A' for Active; 'I' for Inactive)
REMARK    1  A    between atoms: C_2  and  C_5
REMARK    2  A    between atoms: C_7  and  C_8
REMARK    3  A    between atoms: C_8  and  N_9
REMARK    4  A    between atoms: C_14  and  O_16
REMARK    5  A    between atoms: O_16  and  C_17
REMARK                            x       y       z     vdW  Elec       q    Type
REMARK                         _______ _______ _______ _____ _____    ______ ____
ROOT
ATOM      9  N   UNL     1      -0.462   1.945  25.396  0.00  0.00    -0.264 NA
ATOM     10  C   UNL     1       0.032   2.037  24.742  0.00  0.00    +0.105 C 
ATOM     11  C   UNL     1       0.202   1.495  24.145  0.00  0.00    +0.160 C 
ATOM     12  O   UNL     1      -0.080   0.725  24.055  0.00  0.00    -0.348 OA
ATOM     13  C   UNL     1      -0.601   0.307  24.538  0.00  0.00    +0.187 C 
ATOM     14  C   UNL     1      -0.970   0.558  25.233  0.00  0.00    +0.213 C 
ATOM     15  C   UNL     1      -0.908   1.286  25.614  0.00  0.00    +0.119 C 
ENDROOT
BRANCH   9   8
ATOM      8  C   UNL     1      -0.518   2.597  25.898  0.00  0.00    +0.099 C 
BRANCH   8   7
ATOM      5  C   UNL     1      -2.212   3.954  25.664  0.00  0.00    +0.071 A 
ATOM      6  C   UNL     1      -1.763   3.299  25.888  0.00  0.00    +0.001 A 
ATOM      7  C   UNL     1      -0.968   3.253  25.674  0.00  0.00    -0.006 A 
ATOM     23  C   UNL     1      -0.622   3.860  25.236  0.00  0.00    -0.003 A 
ATOM     24  C   UNL     1      -1.072   4.515  25.012  0.00  0.00    -0.000 A 
ATOM     25  C   UNL     1      -1.866   4.562  25.226  0.00  0.00    +0.004 A 
BRANCH   5   2
ATOM      1  F   UNL     1      -3.803   4.047  26.092  0.00  0.00    -0.166 F 
ATOM      2  C   UNL     1      -3.008   4.001  25.878  0.00  0.00    +0.419 C 
ATOM      3  F   UNL     1      -3.221   3.647  25.164  0.00  0.00    -0.166 F 
ATOM      4  F   UNL     1      -2.795   4.354  26.592  0.00  0.00    -0.166 F 
ENDBRANCH   5   2
ENDBRANCH   8   7
ENDBRANCH   9   8
BRANCH  14  16
ATOM     16  O   UNL     1      -1.466   0.006  25.593  0.00  0.00    -0.459 OA
BRANCH  16  17
ATOM     17  C   UNL     1      -2.150  -0.248  25.208  0.00  0.00    +0.245 A 
ATOM     18  C   UNL     1      -2.162  -0.982  24.830  0.00  0.00    +0.156 A 
ATOM     19  N   UNL     1      -2.845  -1.236  24.445  0.00  0.00    -0.236 NA
ATOM     20  C   UNL     1      -3.516  -0.758  24.436  0.00  0.00    +0.120 A 
ATOM     21  C   UNL     1      -3.504  -0.024  24.814  0.00  0.00    +0.123 A 
ATOM     22  N   UNL     1      -2.821   0.230  25.199  0.00  0.00    -0.207 NA
ENDBRANCH  16  17
ENDBRANCH  14  16
TORSDOF 5
ENDMDL
