MODEL 1
REMARK VINA RESULT:     -11.0      0.000      0.000
REMARK  Name = 
REMARK  1 active torsions:
REMARK  status: ('A' for Active; 'I' for Inactive)
REMARK    1  A    between atoms: C_7  and  C_9
REMARK                            x       y       z     vdW  Elec       q    Type
REMARK                         _______ _______ _______ _____ _____    ______ ____
ROOT
ATOM      9  C   UNL     1      -4.199   0.188  24.751  0.00  0.00    +0.207 A 
ATOM     10  N   UNL     1      -3.875  -0.283  25.345  0.00  0.00    -0.212 NA
ATOM     11  C   UNL     1      -3.822  -1.054  25.058  0.00  0.00    +0.121 A 
ATOM     12  C   UNL     1      -4.113  -1.060  24.287  0.00  0.00    +0.165 A 
ATOM     13  O   UNL     1      -4.346  -0.293  24.096  0.00  0.00    -0.438 OA
ATOM     14  C   UNL     1      -4.128  -1.765  23.857  0.00  0.00    +0.041 A 
ATOM     15  C   UNL     1      -3.852  -2.462  24.199  0.00  0.00    +0.033 A 
ATOM     16  C   UNL     1      -3.561  -2.456  24.970  0.00  0.00    +0.142 A 
ATOM     17  F   UNL     1      -3.284  -3.154  25.313  0.00  0.00    -0.204 F 
ATOM     18  C   UNL     1      -3.545  -1.753  25.401  0.00  0.00    +0.052 A 
ENDROOT
BRANCH   9   7
ATOM      1  C   UNL     1      -4.315   3.747  24.799  0.00  0.00    +0.095 C 
ATOM      2  C   UNL     1      -3.865   3.071  24.652  0.00  0.00    +0.226 C 
ATOM      3  O   UNL     1      -3.082   3.145  24.401  0.00  0.00    -0.275 OA
ATOM      4  N   UNL     1      -4.196   2.323  24.756  0.00  0.00    -0.279 N 
ATOM      5  C   UNL     1      -4.967   2.164  25.004  0.00  0.00    +0.094 C 
ATOM      6  C   UNL     1      -5.062   1.345  25.032  0.00  0.00    +0.032 C 
ATOM      7  C   UNL     1      -4.349   0.998  24.802  0.00  0.00    +0.098 C 
ATOM      8  C   UNL     1      -3.815   1.602  24.632  0.00  0.00    +0.103 C 
ENDBRANCH   9   7
TORSDOF 1
ENDMDL
MODEL 2
REMARK VINA RESULT:     -10.6      2.025      4.305
REMARK  Name = 
REMARK  1 active torsions:
REMARK  status: ('A' for Active; 'I' for Inactive)
REMARK    1  A    between atoms: C_7  and  C_9
REMARK                            x       y       z     vdW  Elec       q    Type
REMARK                         _______ _______ _______ _____ _____    ______ ____
ROOT
ATOM      9  C   UNL     1      -4.280   0.523  25.064  0.00  0.00    +0.207 A 
ATOM     10  N   UNL     1      -3.861   1.168  24.766  0.00  0.00    -0.212 NA
ATOM     11  C   UNL     1      -4.305   1.848  24.911  0.00  0.00    +0.121 A 
ATOM     12  C   UNL     1      -4.998   1.623  25.298  0.00  0.00    +0.165 A 
ATOM     13  O   UNL     1      -4.982   0.804  25.393  0.00  0.00    -0.438 OA
ATOM     14  C   UNL     1      -5.553   2.194  25.514  0.00  0.00    +0.041 A 
ATOM     15  C   UNL     1      -5.416   2.989  25.343  0.00  0.00    +0.033 A 
ATOM     16  C   UNL     1      -4.723   3.213  24.956  0.00  0.00    +0.142 A 
ATOM     17  F   UNL     1      -4.585   4.008  24.784  0.00  0.00    -0.204 F 
ATOM     18  C   UNL     1      -4.167   2.644  24.739  0.00  0.00    +0.052 A 
ENDROOT
BRANCH   9   7
ATOM      1  C   UNL     1      -3.522  -2.905  24.465  0.00  0.00    +0.095 C 
ATOM      2  C   UNL     1      -3.905  -2.224  24.199  0.00  0.00    +0.226 C 
ATOM      3  O   UNL     1      -4.327  -2.240  23.489  0.00  0.00    -0.275 OA
ATOM      4  N   UNL     1      -3.866  -1.529  24.640  0.00  0.00    -0.279 N 
ATOM      5  C   UNL     1      -3.467  -1.430  25.356  0.00  0.00    +0.094 C 
ATOM      6  C   UNL     1      -3.573  -0.650  25.602  0.00  0.00    +0.032 C 
ATOM      7  C   UNL     1      -4.038  -0.266  25.038  0.00  0.00    +0.098 C 
ATOM      8  C   UNL     1      -4.219  -0.809  24.444  0.00  0.00    +0.103 C 
ENDBRANCH   9   7
TORSDOF 1
ENDMDL
MODEL 3
REMARK VINA RESULT:      -9.7      2.721      4.794
REMARK  Name = 
REMARK  1 active torsions:
REMARK  status: ('A' for Active; 'I' for Inactive)
REMARK    1  A    between atoms: C_7  and  C_9
REMARK                            x       y       z     vdW  Elec       q    Type
REMARK                         _______ _______ _______ _____ _____    ______ ____
ROOT
ATOM      9  C   UNL     1      -2.541   2.196  24.614  0.00  0.00    +0.207 A 
ATOM     10  N   UNL     1      -2.893   2.915  24.812  0.00  0.00    -0.212 NA
ATOM     11  C   UNL     1      -2.293   3.465  24.943  0.00  0.00    +0.121 A 
ATOM     12  C   UNL     1      -1.570   3.086  24.826  0.00  0.00    +0.165 A 
ATOM     13  O   UNL     1      -1.722   2.302  24.623  0.00  0.00    -0.438 OA
ATOM     14  C   UNL     1      -0.865   3.506  24.921  0.00  0.00    +0.041 A 
ATOM     15  C   UNL     1      -0.884   4.303  25.132  0.00  0.00    +0.033 A 
ATOM     16  C   UNL     1      -1.608   4.681  25.248  0.00  0.00    +0.142 A 
ATOM     17  F   UNL     1      -1.628   5.478  25.459  0.00  0.00    -0.204 F 
ATOM     18  C   UNL     1      -2.313   4.263  25.154  0.00  0.00    +0.052 A 
ENDROOT
BRANCH   9   7
ATOM      1  C   UNL     1      -4.158  -0.969  24.393  0.00  0.00    +0.095 C 
ATOM      2  C   UNL     1      -3.755  -0.430  24.871  0.00  0.00    +0.226 C 
ATOM      3  O   UNL     1      -3.612  -0.608  25.664  0.00  0.00    -0.275 OA
ATOM      4  N   UNL     1      -3.495   0.287  24.555  0.00  0.00    -0.279 N 
ATOM      5  C   UNL     1      -3.596   0.539  23.777  0.00  0.00    +0.094 C 
ATOM      6  C   UNL     1      -3.251   1.286  23.704  0.00  0.00    +0.032 C 
ATOM      7  C   UNL     1      -2.936   1.494  24.438  0.00  0.00    +0.098 C 
ATOM      8  C   UNL     1      -3.087   0.877  24.964  0.00  0.00    +0.103 C 
ENDBRANCH   9   7
TORSDOF 1
ENDMDL
MODEL 4
REMARK VINA RESULT:      -9.1      2.282      3.945
REMARK  Name = 
REMARK  1 active torsions:
REMARK  status: ('A' for Active; 'I' for Inactive)
REMARK    1  A    between atoms: C_7  and  C_9
REMARK                            x       y       z     vdW  Elec       q    Type
REMARK                         _______ _______ _______ _____ _____    ______ ____
ROOT
ATOM      9  C   UNL     1      -3.425   0.427  25.045  0.00  0.00    +0.207 A 
ATOM     10  N   UNL     1      -4.234   0.287  25.132  0.00  0.00    -0.212 NA
ATOM     11  C   UNL     1      -4.629   1.002  25.024  0.00  0.00    +0.121 A 
ATOM     12  C   UNL     1      -4.065   1.585  24.870  0.00  0.00    +0.165 A 
ATOM     13  O   UNL     1      -3.321   1.229  24.883  0.00  0.00    -0.438 OA
ATOM     14  C   UNL     1      -4.303   2.364  24.738  0.00  0.00    +0.041 A 
ATOM     15  C   UNL     1      -5.103   2.560  24.760  0.00  0.00    +0.033 A 
ATOM     16  C   UNL     1      -5.667   1.978  24.914  0.00  0.00    +0.142 A 
ATOM     17  F   UNL     1      -6.468   2.174  24.935  0.00  0.00    -0.204 F 
ATOM     18  C   UNL     1      -5.431   1.199  25.046  0.00  0.00    +0.052 A 
ENDROOT
BRANCH   9   7
ATOM      1  C   UNL     1      -0.509  -1.615  25.080  0.00  0.00    +0.095 C 
ATOM      2  C   UNL     1      -0.841  -0.887  24.881  0.00  0.00    +0.226 C 
ATOM      3  O   UNL     1      -0.374  -0.304  24.529  0.00  0.00    -0.275 OA
ATOM      4  N   UNL     1      -1.638  -0.741  25.034  0.00  0.00    -0.279 N 
ATOM      5  C   UNL     1      -2.170  -1.267  25.381  0.00  0.00    +0.094 C 
ATOM      6  C   UNL     1      -2.904  -0.894  25.428  0.00  0.00    +0.032 C 
ATOM      7  C   UNL     1      -2.826  -0.137  25.109  0.00  0.00    +0.098 C 
ATOM      8  C   UNL     1      -2.044  -0.042  24.866  0.00  0.00    +0.103 C 
ENDBRANCH   9   7
TORSDOF 1
ENDMDL
MODEL 5
REMARK VINA RESULT:      -8.9      2.751      4.466
REMARK  Name = 
REMARK  1 active torsions:
REMARK  status: ('A' for Active; 'I' for Inactive)
REMARK    1  A    between atoms: C_7  and  C_9
REMARK                            x       y       z     vdW  Elec       q    Type
REMARK                         _______ _______ _______ _____ _____    ______ ____
ROOT
ATOM      9  C   UNL     1      -2.333   0.902  24.900  0.00  0.00    +0.207 A 
ATOM     10  N   UNL     1      -2.494   1.710  24.860  0.00  0.00    -0.212 NA
ATOM     11  C   UNL     1      -1.839   2.115  25.156  0.00  0.00    +0.121 A 
ATOM     12  C   UNL     1      -1.274   1.557  25.379  0.00  0.00    +0.165 A 
ATOM     13  O   UNL     1      -1.578   0.808  25.221  0.00  0.00    -0.438 OA
ATOM     14  C   UNL     1      -0.554   1.805  25.698  0.00  0.00    +0.041 A 
ATOM     15  C   UNL     1      -0.400   2.609  25.793  0.00  0.00    +0.033 A 
ATOM     16  C   UNL     1      -0.965   3.167  25.570  0.00  0.00    +0.142 A 
ATOM     17  F   UNL     1      -0.812   3.972  25.666  0.00  0.00    -0.204 F 
ATOM     18  C   UNL     1      -1.685   2.920  25.252  0.00  0.00    +0.052 A 
ENDROOT
BRANCH   9   7
ATOM      1  C   UNL     1      -4.100  -2.067  24.039  0.00  0.00    +0.095 C 
ATOM      2  C   UNL     1      -3.411  -1.738  24.351  0.00  0.00    +0.226 C 
ATOM      3  O   UNL     1      -2.799  -2.230  24.607  0.00  0.00    -0.275 OA
ATOM      4  N   UNL     1      -3.333  -0.919  24.408  0.00  0.00    -0.279 N 
ATOM      5  C   UNL     1      -3.895  -0.361  24.177  0.00  0.00    +0.094 C 
ATOM      6  C   UNL     1      -3.589   0.389  24.333  0.00  0.00    +0.032 C 
ATOM      7  C   UNL     1      -2.837   0.295  24.661  0.00  0.00    +0.098 C 
ATOM      8  C   UNL     1      -2.680  -0.514  24.708  0.00  0.00    +0.103 C 
ENDBRANCH   9   7
TORSDOF 1
ENDMDL
MODEL 6
REMARK VINA RESULT:      -8.5      2.204      2.544
REMARK  Name = 
REMARK  1 active torsions:
REMARK  status: ('A' for Active; 'I' for Inactive)
REMARK    1  A    between atoms: C_7  and  C_9
REMARK                            x       y       z     vdW  Elec       q    Type
REMARK                         _______ _______ _______ _____ _____    ______ ____
ROOT
ATOM      9  C   UNL     1      -2.772   1.079  24.624  0.00  0.00    +0.207 A 
ATOM     10  N   UNL     1      -2.521   0.345  24.904  0.00  0.00    -0.212 NA
ATOM     11  C   UNL     1      -1.757   0.214  24.624  0.00  0.00    +0.121 A 
ATOM     12  C   UNL     1      -1.535   0.866  24.171  0.00  0.00    +0.165 A 
ATOM     13  O   UNL     1      -2.163   1.401  24.171  0.00  0.00    -0.438 OA
ATOM     14  C   UNL     1      -0.790   0.888  23.817  0.00  0.00    +0.041 A 
ATOM     15  C   UNL     1      -0.267   0.259  23.917  0.00  0.00    +0.033 A 
ATOM     16  C   UNL     1      -0.489  -0.394  24.370  0.00  0.00    +0.142 A 
ATOM     17  F   UNL     1       0.034  -1.024  24.470  0.00  0.00    -0.204 F 
ATOM     18  C   UNL     1      -1.233  -0.417  24.724  0.00  0.00    +0.052 A 
ENDROOT
BRANCH   9   7
ATOM      1  C   UNL     1      -5.634   3.027  25.458  0.00  0.00    +0.095 C 
ATOM      2  C   UNL     1      -4.810   2.977  25.448  0.00  0.00    +0.226 C 
ATOM      3  O   UNL     1      -4.356   3.602  25.737  0.00  0.00    -0.275 OA
ATOM      4  N   UNL     1      -4.442   2.302  25.150  0.00  0.00    -0.279 N 
ATOM      5  C   UNL     1      -4.822   1.637  24.844  0.00  0.00    +0.094 C 
ATOM      6  C   UNL     1      -4.243   1.097  24.610  0.00  0.00    +0.032 C 
ATOM      7  C   UNL     1      -3.505   1.430  24.771  0.00  0.00    +0.098 C 
ATOM      8  C   UNL     1      -3.628   2.174  25.105  0.00  0.00    +0.103 C 
ENDBRANCH   9   7
TORSDOF 1
ENDMDL
MODEL 7
REMARK VINA RESULT:      -7.7     18.860     19.796
REMARK  Name = 
REMARK  1 active torsions:
REMARK  status: ('A' for Active; 'I' for Inactive)
REMARK    1  A    between atoms: C_7  and  C_9
REMARK                            x       y       z     vdW  Elec       q    Type
REMARK                         _______ _______ _______ _____ _____    ______ ____
ROOT
ATOM      9  C   UNL     1      14.032   6.943  20.588  0.00  0.00    +0.207 A 
ATOM     10  N   UNL     1      14.719   6.747  20.999  0.00  0.00    -0.212 NA
ATOM     11  C   UNL     1      15.324   6.638  20.450  0.00  0.00    +0.121 A 
ATOM     12  C   UNL     1      15.011   6.768  19.697  0.00  0.00    +0.165 A 
ATOM     13  O   UNL     1      14.213   6.957  19.782  0.00  0.00    -0.438 OA
ATOM     14  C   UNL     1      15.494   6.697  19.032  0.00  0.00    +0.041 A 
ATOM     15  C   UNL     1      16.289   6.497  19.119  0.00  0.00    +0.033 A 
ATOM     16  C   UNL     1      16.602   6.367  19.871  0.00  0.00    +0.142 A 
ATOM     17  F   UNL     1      17.397   6.167  19.959  0.00  0.00    -0.204 F 
ATOM     18  C   UNL     1      16.120   6.438  20.537  0.00  0.00    +0.052 A 
ENDROOT
BRANCH   9   7
ATOM      1  C   UNL     1      10.700   7.111  21.832  0.00  0.00    +0.095 C 
ATOM      2  C   UNL     1      11.264   6.671  21.420  0.00  0.00    +0.226 C 
ATOM      3  O   UNL     1      11.068   5.925  21.124  0.00  0.00    -0.275 OA
ATOM      4  N   UNL     1      12.021   6.975  21.304  0.00  0.00    -0.279 N 
ATOM      5  C   UNL     1      12.295   7.707  21.567  0.00  0.00    +0.094 C 
ATOM      6  C   UNL     1      13.082   7.785  21.330  0.00  0.00    +0.032 C 
ATOM      7  C   UNL     1      13.294   7.100  20.922  0.00  0.00    +0.098 C 
ATOM      8  C   UNL     1      12.639   6.600  20.906  0.00  0.00    +0.103 C 
ENDBRANCH   9   7
TORSDOF 1
ENDMDL
MODEL 8
REMARK VINA RESULT:      -7.5     18.014     19.112
REMARK  Name = 
REMARK  1 active torsions:
REMARK  status: ('A' for Active; 'I' for Inactive)
REMARK    1  A    between atoms: C_7  and  C_9
REMARK                            x       y       z     vdW  Elec       q    Type
REMARK                         _______ _______ _______ _____ _____    ______ ____
ROOT
ATOM      9  C   UNL     1      13.001   7.146  20.817  0.00  0.00    +0.207 A 
ATOM     10  N   UNL     1      12.337   6.658  20.833  0.00  0.00    -0.212 NA
ATOM     11  C   UNL     1      11.766   7.021  21.304  0.00  0.00    +0.121 A 
ATOM     12  C   UNL     1      12.077   7.734  21.580  0.00  0.00    +0.165 A 
ATOM     13  O   UNL     1      12.841   7.811  21.279  0.00  0.00    -0.438 OA
ATOM     14  C   UNL     1      11.624   8.220  22.069  0.00  0.00    +0.041 A 
ATOM     15  C   UNL     1      10.861   7.994  22.283  0.00  0.00    +0.033 A 
ATOM     16  C   UNL     1      10.549   7.281  22.008  0.00  0.00    +0.142 A 
ATOM     17  F   UNL     1       9.786   7.054  22.221  0.00  0.00    -0.204 F 
ATOM     18  C   UNL     1      11.001   6.794  21.518  0.00  0.00    +0.052 A 
ENDROOT
BRANCH   9   7
ATOM      1  C   UNL     1      16.249   6.385  19.571  0.00  0.00    +0.095 C 
ATOM      2  C   UNL     1      15.759   6.449  20.232  0.00  0.00    +0.226 C 
ATOM      3  O   UNL     1      16.058   6.286  20.984  0.00  0.00    -0.275 OA
ATOM      4  N   UNL     1      14.971   6.676  20.141  0.00  0.00    -0.279 N 
ATOM      5  C   UNL     1      14.597   6.855  19.428  0.00  0.00    +0.094 C 
ATOM      6  C   UNL     1      13.813   7.053  19.594  0.00  0.00    +0.032 C 
ATOM      7  C   UNL     1      13.703   6.996  20.411  0.00  0.00    +0.098 C 
ATOM      8  C   UNL     1      14.419   6.763  20.748  0.00  0.00    +0.103 C 
ENDBRANCH   9   7
TORSDOF 1
ENDMDL
