MODEL 1
REMARK VINA RESULT:     -16.1      0.000      0.000
REMARK  Name = 
REMARK  5 active torsions:
REMARK  status: ('A' for Active; 'I' for Inactive)
REMARK    1  A    between atoms: C_7  and  N_10
REMARK    2  A    between atoms: C_19  and  N_20
REMARK    3  A    between atoms: N_20  and  S_21
REMARK    4  A    between atoms: S_21  and  C_24
REMARK    5  A    between atoms: C_26  and  C_30
REMARK                            x       y       z     vdW  Elec       q    Type
REMARK                         _______ _______ _______ _____ _____    ______ ____
ROOT
ATOM     10  N   UNL     1      -4.271   3.169  25.134  0.00  0.00    -0.273 NA
ATOM     11  C   UNL     1      -4.990   3.573  25.262  0.00  0.00    +0.074 C 
ATOM     12  C   UNL     1      -5.604   2.802  25.326  0.00  0.00    +0.039 C 
ATOM     13  C   UNL     1      -6.229   2.285  25.403  0.00  0.00    +0.011 C 
ATOM     14  C   UNL     1      -5.537   2.249  25.294  0.00  0.00    +0.054 C 
ATOM     15  C   UNL     1      -4.956   3.005  25.234  0.00  0.00    +0.078 C 
ATOM     16  C   UNL     1      -4.858   1.643  25.164  0.00  0.00    +0.041 A 
ATOM     17  C   UNL     1      -4.726   0.831  25.111  0.00  0.00    +0.014 A 
ATOM     18  C   UNL     1      -3.963   0.545  24.981  0.00  0.00    +0.024 A 
ATOM     19  C   UNL     1      -3.333   1.071  24.904  0.00  0.00    +0.147 A 
ATOM     34  C   UNL     1      -3.465   1.884  24.957  0.00  0.00    +0.277 A 
ATOM     35  O   UNL     1      -2.651   1.937  24.833  0.00  0.00    -0.266 OA
ATOM     36  N   UNL     1      -4.227   2.170  25.087  0.00  0.00    -0.298 N 
ATOM     37  C   UNL     1      -4.889   2.176  25.190  0.00  0.00    +0.110 C 
ENDROOT
BRANCH  10   7
ATOM      1  C   UNL     1      -0.525   2.666  25.253  0.00  0.00    +0.095 C 
ATOM      2  C   UNL     1      -1.042   2.722  24.614  0.00  0.00    +0.226 C 
ATOM      3  O   UNL     1      -0.752   2.666  23.843  0.00  0.00    -0.275 OA
ATOM      4  N   UNL     1      -1.849   2.834  24.743  0.00  0.00    -0.279 N 
ATOM      5  C   UNL     1      -2.367   2.889  24.104  0.00  0.00    +0.095 C 
ATOM      6  C   UNL     1      -3.173   3.001  24.233  0.00  0.00    +0.038 C 
ATOM      7  C   UNL     1      -3.463   3.057  25.004  0.00  0.00    +0.061 C 
ATOM      8  C   UNL     1      -2.947   3.002  25.644  0.00  0.00    +0.038 C 
ATOM      9  C   UNL     1      -2.139   2.890  25.514  0.00  0.00    +0.095 C 
ENDBRANCH  10   7
BRANCH  19  20
ATOM     20  N   UNL     1      -2.570   0.785  24.774  0.00  0.00    -0.092 NA
BRANCH  20  21
ATOM     21  S   UNL     1      -2.437  -0.028  24.732  0.00  0.00    +0.093 S 
ATOM     22  O   UNL     1      -2.527  -0.001  23.913  0.00  0.00    -0.148 OA
ATOM     23  O   UNL     1      -2.347  -0.056  25.551  0.00  0.00    -0.148 OA
BRANCH  21  24
ATOM     24  C   UNL     1      -2.303  -0.842  24.691  0.00  0.00    +0.127 A 
ATOM     25  C   UNL     1      -2.940  -1.363  24.645  0.00  0.00    +0.024 A 
ATOM     26  C   UNL     1      -2.806  -2.176  24.604  0.00  0.00    +0.073 A 
ATOM     27  C   UNL     1      -2.034  -2.467  24.608  0.00  0.00    +0.004 A 
ATOM     28  C   UNL     1      -1.396  -1.946  24.653  0.00  0.00    +0.001 A 
ATOM     29  C   UNL     1      -1.531  -1.133  24.695  0.00  0.00    +0.020 A 
BRANCH  26  30
ATOM     30  C   UNL     1      -3.443  -2.697  24.558  0.00  0.00    +0.419 C 
ATOM     31  F   UNL     1      -4.081  -3.219  24.514  0.00  0.00    -0.166 F 
ATOM     32  F   UNL     1      -3.444  -2.768  25.381  0.00  0.00    -0.166 F 
ATOM     33  F   UNL     1      -3.443  -2.626  23.737  0.00  0.00    -0.166 F 
ENDBRANCH  26  30
ENDBRANCH  21  24
ENDBRANCH  20  21
ENDBRANCH  19  20
TORSDOF 5
ENDMDL
MODEL 2
REMARK VINA RESULT:     -15.9      1.102      2.665
REMARK  Name = 
REMARK  5 active torsions:
REMARK  status: ('A' for Active; 'I' for Inactive)
REMARK    1  A    between atoms: C_7  and  N_10
REMARK    2  A    between atoms: C_19  and  N_20
REMARK    3  A    between atoms: N_20  and  S_21
REMARK    4  A    between atoms: S_21  and  C_24
REMARK    5  A    between atoms: C_26  and  C_30
REMARK                            x       y       z     vdW  Elec       q    Type
REMARK                         _______ _______ _______ _____ _____    ______ ____
ROOT
ATOM     10  N   UNL     1      -2.616   4.057  25.168  0.00  0.00    -0.273 NA
ATOM     11  C   UNL     1      -2.073   4.691  25.208  0.00  0.00    +0.074 C 
ATOM     12  C   UNL     1      -1.227   4.190  25.103  0.00  0.00    +0.039 C 
ATOM     13  C   UNL     1      -0.458   3.931  25.030  0.00  0.00    +0.011 C 
ATOM     14  C   UNL     1      -1.102   3.651  25.035  0.00  0.00    +0.054 C 
ATOM     15  C   UNL     1      -1.910   4.149  25.138  0.00  0.00    +0.078 C 
ATOM     16  C   UNL     1      -1.538   2.845  24.969  0.00  0.00    +0.041 A 
ATOM     17  C   UNL     1      -1.385   2.040  24.870  0.00  0.00    +0.014 A 
ATOM     18  C   UNL     1      -2.009   1.502  24.845  0.00  0.00    +0.024 A 
ATOM     19  C   UNL     1      -2.787   1.768  24.920  0.00  0.00    +0.147 A 
ATOM     34  C   UNL     1      -2.940   2.572  25.019  0.00  0.00    +0.277 A 
ATOM     35  O   UNL     1      -3.728   2.331  25.038  0.00  0.00    -0.266 OA
ATOM     36  N   UNL     1      -2.315   3.110  25.044  0.00  0.00    -0.298 N 
ATOM     37  C   UNL     1      -1.691   3.352  25.035  0.00  0.00    +0.110 C 
ENDROOT
BRANCH  10   7
ATOM      1  C   UNL     1      -5.858   2.242  25.869  0.00  0.00    +0.095 C 
ATOM      2  C   UNL     1      -5.521   2.490  25.159  0.00  0.00    +0.226 C 
ATOM      3  O   UNL     1      -5.910   2.347  24.445  0.00  0.00    -0.275 OA
ATOM      4  N   UNL     1      -4.795   2.882  25.160  0.00  0.00    -0.279 N 
ATOM      5  C   UNL     1      -4.457   3.130  24.450  0.00  0.00    +0.095 C 
ATOM      6  C   UNL     1      -3.732   3.522  24.452  0.00  0.00    +0.038 C 
ATOM      7  C   UNL     1      -3.343   3.665  25.166  0.00  0.00    +0.061 C 
ATOM      8  C   UNL     1      -3.679   3.417  25.877  0.00  0.00    +0.038 C 
ATOM      9  C   UNL     1      -4.406   3.025  25.874  0.00  0.00    +0.095 C 
ENDBRANCH  10   7
BRANCH  19  20
ATOM     20  N   UNL     1      -3.410   1.229  24.895  0.00  0.00    -0.092 NA
BRANCH  20  21
ATOM     21  S   UNL     1      -3.258   0.426  24.780  0.00  0.00    +0.093 S 
ATOM     22  O   UNL     1      -3.240   0.546  23.964  0.00  0.00    -0.148 OA
ATOM     23  O   UNL     1      -3.276   0.306  25.596  0.00  0.00    -0.148 OA
BRANCH  21  24
ATOM     24  C   UNL     1      -3.106  -0.377  24.666  0.00  0.00    +0.127 A 
ATOM     25  C   UNL     1      -3.697  -0.871  24.370  0.00  0.00    +0.024 A 
ATOM     26  C   UNL     1      -3.544  -1.673  24.256  0.00  0.00    +0.073 A 
ATOM     27  C   UNL     1      -2.801  -1.982  24.438  0.00  0.00    +0.004 A 
ATOM     28  C   UNL     1      -2.210  -1.488  24.733  0.00  0.00    +0.001 A 
ATOM     29  C   UNL     1      -2.363  -0.685  24.847  0.00  0.00    +0.020 A 
BRANCH  26  30
ATOM     30  C   UNL     1      -4.135  -2.167  23.961  0.00  0.00    +0.419 C 
ATOM     31  F   UNL     1      -4.726  -2.662  23.666  0.00  0.00    -0.166 F 
ATOM     32  F   UNL     1      -4.151  -2.577  24.678  0.00  0.00    -0.166 F 
ATOM     33  F   UNL     1      -4.119  -1.758  23.245  0.00  0.00    -0.166 F 
ENDBRANCH  26  30
ENDBRANCH  21  24
ENDBRANCH  20  21
ENDBRANCH  19  20
TORSDOF 5
ENDMDL
MODEL 3
REMARK VINA RESULT:     -15.8      2.109      4.358
REMARK  Name = 
REMARK  5 active torsions:
REMARK  status: ('A' for Active; 'I' for Inactive)
REMARK    1  A    between atoms: C_7  and  N_10
REMARK    2  A    between atoms: C_19  and  N_20
REMARK    3  A    between atoms: N_20  and  S_21
REMARK    4  A    between atoms: S_21  and  C_24
REMARK    5  A    between atoms: C_26  and  C_30
REMARK                            x       y       z     vdW  Elec       q    Type
REMARK                         _______ _______ _______ _____ _____    ______ ____
ROOT
ATOM     10  N   UNL     1      -1.875  -1.766  24.670  0.00  0.00    -0.273 NA
ATOM     11  C   UNL     1      -2.016  -2.589  24.649  0.00  0.00    +0.074 C 
ATOM     12  C   UNL     1      -2.994  -2.586  24.507  0.00  0.00    +0.039 C 
ATOM     13  C   UNL     1      -3.783  -2.753  24.392  0.00  0.00    +0.011 C 
ATOM     14  C   UNL     1      -3.376  -2.184  24.451  0.00  0.00    +0.054 C 
ATOM     15  C   UNL     1      -2.431  -2.204  24.589  0.00  0.00    +0.078 C 
ATOM     16  C   UNL     1      -3.416  -1.266  24.446  0.00  0.00    +0.041 A 
ATOM     17  C   UNL     1      -3.957  -0.649  24.367  0.00  0.00    +0.014 A 
ATOM     18  C   UNL     1      -3.698   0.134  24.405  0.00  0.00    +0.024 A 
ATOM     19  C   UNL     1      -2.898   0.299  24.522  0.00  0.00    +0.147 A 
ATOM     34  C   UNL     1      -2.357  -0.318  24.600  0.00  0.00    +0.277 A 
ATOM     35  O   UNL     1      -1.806   0.290  24.680  0.00  0.00    -0.266 OA
ATOM     36  N   UNL     1      -2.616  -1.101  24.562  0.00  0.00    -0.298 N 
ATOM     37  C   UNL     1      -3.025  -1.627  24.503  0.00  0.00    +0.110 C 
ENDROOT
BRANCH  10   7
ATOM      1  C   UNL     1       0.138   1.406  24.243  0.00  0.00    +0.095 C 
ATOM      2  C   UNL     1      -0.194   1.063  24.915  0.00  0.00    +0.226 C 
ATOM      3  O   UNL     1      -0.105   1.428  25.651  0.00  0.00    -0.275 OA
ATOM      4  N   UNL     1      -0.614   0.356  24.855  0.00  0.00    -0.279 N 
ATOM      5  C   UNL     1      -0.945   0.013  25.527  0.00  0.00    +0.095 C 
ATOM      6  C   UNL     1      -1.366  -0.694  25.466  0.00  0.00    +0.038 C 
ATOM      7  C   UNL     1      -1.454  -1.059  24.731  0.00  0.00    +0.061 C 
ATOM      8  C   UNL     1      -1.123  -0.717  24.058  0.00  0.00    +0.038 C 
ATOM      9  C   UNL     1      -0.703  -0.009  24.119  0.00  0.00    +0.095 C 
ENDBRANCH  10   7
BRANCH  19  20
ATOM     20  N   UNL     1      -2.640   1.081  24.559  0.00  0.00    -0.092 NA
BRANCH  20  21
ATOM     21  S   UNL     1      -3.187   1.698  24.534  0.00  0.00    +0.093 S 
ATOM     22  O   UNL     1      -3.177   1.673  23.709  0.00  0.00    -0.148 OA
ATOM     23  O   UNL     1      -3.197   1.723  25.358  0.00  0.00    -0.148 OA
BRANCH  21  24
ATOM     24  C   UNL     1      -3.735   2.315  24.509  0.00  0.00    +0.127 A 
ATOM     25  C   UNL     1      -4.349   2.344  25.058  0.00  0.00    +0.024 A 
ATOM     26  C   UNL     1      -4.896   2.961  25.033  0.00  0.00    +0.073 A 
ATOM     27  C   UNL     1      -4.828   3.549  24.458  0.00  0.00    +0.004 A 
ATOM     28  C   UNL     1      -4.214   3.520  23.908  0.00  0.00    +0.001 A 
ATOM     29  C   UNL     1      -3.667   2.903  23.934  0.00  0.00    +0.020 A 
BRANCH  26  30
ATOM     30  C   UNL     1      -5.510   2.991  25.583  0.00  0.00    +0.419 C 
ATOM     31  F   UNL     1      -6.125   3.019  26.132  0.00  0.00    -0.166 F 
ATOM     32  F   UNL     1      -5.956   2.480  25.111  0.00  0.00    -0.166 F 
ATOM     33  F   UNL     1      -5.064   3.500  26.054  0.00  0.00    -0.166 F 
ENDBRANCH  26  30
ENDBRANCH  21  24
ENDBRANCH  20  21
ENDBRANCH  19  20
TORSDOF 5
ENDMDL
