REMARK  Name = 
REMARK  5 active torsions:
REMARK  status: ('A' for Active; 'I' for Inactive)
REMARK    1  A    between atoms: C_8  and  C_10
REMARK    2  A    between atoms: C_10  and  C_11
REMARK    3  A    between atoms: C_13  and  C_14
REMARK    4  A    between atoms: C_14  and  N_15
REMARK    5  A    between atoms: C_16  and  C_18
REMARK                            x       y       z     vdW  Elec       q    Type
REMARK                         _______ _______ _______ _____ _____    ______ ____
ROOT
ATOM     11  C   UNL     1       2.751  -2.537   0.000  0.00  0.00    +0.157 C 
ATOM     12  O   UNL     1       3.419  -3.022   0.000  0.00  0.00    -0.351 OA
ATOM     13  C   UNL     1       3.164  -3.806   0.000  0.00  0.00    +0.170 C 
ATOM     25  C   UNL     1       2.339  -3.806   0.000  0.00  0.00    +0.213 C 
ATOM     26  O   UNL     1       1.854  -4.474   0.000  0.00  0.00    -0.218 OA
ATOM     27  C   UNL     1       2.084  -3.022   0.000  0.00  0.00    +0.212 C 
ATOM     28  O   UNL     1       1.299  -2.767   0.000  0.00  0.00    -0.218 OA
ENDROOT
BRANCH  11  10
ATOM     10  C   UNL     1       2.751  -1.712   0.000  0.00  0.00    +0.117 C 
BRANCH  10   8
ATOM      1  C   UNL     1       2.037   2.001   0.000  0.00  0.00    +0.000 C 
ATOM      2  C   UNL     1       2.037   1.176   0.000  0.00  0.00    +0.003 C 
ATOM      3  C   UNL     1       2.751   0.763   0.000  0.00  0.00    +0.022 C 
ATOM      4  C   UNL     1       2.751  -0.062   0.000  0.00  0.00    +0.093 C 
ATOM      5  N   UNL     1       2.037  -0.474   0.000  0.00  0.00    -0.279 N 
ATOM      6  C   UNL     1       1.322  -0.062   0.000  0.00  0.00    +0.093 C 
ATOM      7  C   UNL     1       1.322   0.763   0.000  0.00  0.00    +0.022 C 
ATOM      8  C   UNL     1       2.037  -1.299   0.000  0.00  0.00    +0.228 C 
ATOM      9  O   UNL     1       1.322  -1.712   0.000  0.00  0.00    -0.275 OA
ENDBRANCH  10   8
ENDBRANCH  11  10
BRANCH  13  14
ATOM     14  C   UNL     1       3.649  -4.474   0.000  0.00  0.00    +0.148 C 
BRANCH  14  15
ATOM     15  N   UNL     1       3.313  -5.227   0.000  0.00  0.00    -0.199 NA
ATOM     16  C   UNL     1       3.798  -5.895   0.000  0.00  0.00    +0.265 C 
ATOM     17  O   UNL     1       4.618  -5.809   0.000  0.00  0.00    -0.268 OA
BRANCH  16  18
ATOM     18  C   UNL     1       3.462  -6.648   0.000  0.00  0.00    +0.055 A 
ATOM     19  C   UNL     1       3.947  -7.316   0.000  0.00  0.00    +0.004 A 
ATOM     20  C   UNL     1       3.612  -8.069   0.000  0.00  0.00    -0.004 A 
ATOM     21  C   UNL     1       2.791  -8.156   0.000  0.00  0.00    -0.022 A 
ATOM     22  C   UNL     1       2.456  -8.909   0.000  0.00  0.00    +0.031 C 
ATOM     23  C   UNL     1       2.306  -7.488   0.000  0.00  0.00    -0.004 A 
ATOM     24  C   UNL     1       2.642  -6.735   0.000  0.00  0.00    +0.004 A 
ENDBRANCH  16  18
ENDBRANCH  14  15
ENDBRANCH  13  14
TORSDOF 5
