REMARK  Name = 
REMARK  2 active torsions:
REMARK  status: ('A' for Active; 'I' for Inactive)
REMARK    1  A    between atoms: C_3  and  C_11
REMARK    2  A    between atoms: N_14  and  C_16
REMARK                            x       y       z     vdW  Elec       q    Type
REMARK                         _______ _______ _______ _____ _____    ______ ____
ROOT
ATOM     11  C   UNL     1      -1.453  -0.698   0.000  0.00  0.00    +0.074 C 
ATOM     12  C   UNL     1      -1.938  -1.365   0.000  0.00  0.00    +0.026 C 
ATOM     13  C   UNL     1      -2.723  -1.110   0.000  0.00  0.00    +0.073 C 
ATOM     14  N   UNL     1      -2.723  -0.285   0.000  0.00  0.00    -0.273 NA
ATOM     15  C   UNL     1      -1.938  -0.030   0.000  0.00  0.00    +0.080 C 
ENDROOT
BRANCH  11   3
ATOM      1  C   UNL     1      -0.398   0.754   0.000  0.00  0.00    +0.132 C 
ATOM      2  N   UNL     1      -0.143  -0.030   0.000  0.00  0.00    -0.313 N 
ATOM      3  C   UNL     1      -0.628  -0.698   0.000  0.00  0.00    +0.121 A 
ATOM      4  N   UNL     1      -0.143  -1.365   0.000  0.00  0.00    -0.231 NA
ATOM      5  C   UNL     1       0.641  -1.110   0.000  0.00  0.00    +0.098 A 
ATOM      6  C   UNL     1       0.641  -0.285   0.000  0.00  0.00    +0.079 A 
ATOM      7  C   UNL     1       1.356   0.127   0.000  0.00  0.00    +0.019 A 
ATOM      8  C   UNL     1       2.070  -0.285   0.000  0.00  0.00    +0.002 A 
ATOM      9  C   UNL     1       2.070  -1.110   0.000  0.00  0.00    +0.002 A 
ATOM     10  C   UNL     1       1.356  -1.523   0.000  0.00  0.00    +0.021 A 
ENDBRANCH  11   3
BRANCH  14  16
ATOM     16  C   UNL     1      -3.390   0.200   0.000  0.00  0.00    +0.061 C 
ATOM     17  C   UNL     1      -4.144  -0.136   0.000  0.00  0.00    +0.038 C 
ATOM     18  C   UNL     1      -4.811   0.349   0.000  0.00  0.00    +0.095 C 
ATOM     19  N   UNL     1      -4.725   1.169   0.000  0.00  0.00    -0.279 N 
ATOM     20  C   UNL     1      -3.972   1.505   0.000  0.00  0.00    +0.095 C 
ATOM     21  C   UNL     1      -3.304   1.020   0.000  0.00  0.00    +0.038 C 
ATOM     22  C   UNL     1      -5.393   1.654   0.000  0.00  0.00    +0.226 C 
ATOM     23  C   UNL     1      -6.146   1.319   0.000  0.00  0.00    +0.095 C 
ATOM     24  O   UNL     1      -5.306   2.475   0.000  0.00  0.00    -0.275 OA
ENDBRANCH  14  16
TORSDOF 2
