MODEL 1
REMARK VINA RESULT:     -13.6      0.000      0.000
REMARK  Name = 
REMARK  5 active torsions:
REMARK  status: ('A' for Active; 'I' for Inactive)
REMARK    1  A    between atoms: O_2  and  C_3
REMARK    2  A    between atoms: C_6  and  C_9
REMARK    3  A    between atoms: C_15  and  N_16
REMARK    4  A    between atoms: C_17  and  C_19
REMARK    5  A    between atoms: C_22  and  C_25
REMARK                            x       y       z     vdW  Elec       q    Type
REMARK                         _______ _______ _______ _____ _____    ______ ____
ROOT
ATOM      9  C   UNL     1      -3.699   2.541  24.765  0.00  0.00    +0.048 C 
ATOM     10  C   UNL     1      -4.118   3.223  24.961  0.00  0.00    +0.042 C 
ATOM     11  C   UNL     1      -4.911   3.016  25.053  0.00  0.00    +0.184 C 
ATOM     12  O   UNL     1      -5.527   3.530  25.250  0.00  0.00    -0.220 OA
ATOM     13  C   UNL     1      -4.982   2.206  24.913  0.00  0.00    +0.202 C 
ATOM     14  O   UNL     1      -5.680   1.768  24.946  0.00  0.00    -0.219 OA
ATOM     15  C   UNL     1      -4.233   1.912  24.735  0.00  0.00    +0.132 C 
ENDROOT
BRANCH   9   6
ATOM      3  C   UNL     1      -1.264   2.402  24.339  0.00  0.00    +0.139 A 
ATOM      4  C   UNL     1      -1.545   2.463  25.112  0.00  0.00    +0.037 A 
ATOM      5  C   UNL     1      -2.357   2.509  25.254  0.00  0.00    -0.001 A 
ATOM      6  C   UNL     1      -2.887   2.495  24.623  0.00  0.00    -0.020 A 
ATOM      7  C   UNL     1      -2.607   2.433  23.850  0.00  0.00    -0.001 A 
ATOM      8  C   UNL     1      -1.795   2.387  23.708  0.00  0.00    +0.037 A 
BRANCH   3   2
ATOM      1  C   UNL     1      -0.038   1.670  24.391  0.00  0.00    +0.252 C 
ATOM      2  O   UNL     1      -0.453   2.356  24.197  0.00  0.00    -0.471 OA
ENDBRANCH   3   2
ENDBRANCH   9   6
BRANCH  15  16
ATOM     16  N   UNL     1      -4.049   1.128  24.558  0.00  0.00    -0.200 NA
ATOM     17  C   UNL     1      -4.338   0.520  25.035  0.00  0.00    +0.265 C 
ATOM     18  O   UNL     1      -4.810   0.695  25.688  0.00  0.00    -0.268 OA
BRANCH  17  19
ATOM     19  C   UNL     1      -4.154  -0.265  24.858  0.00  0.00    +0.055 A 
ATOM     20  C   UNL     1      -4.330  -0.573  24.113  0.00  0.00    +0.005 A 
ATOM     21  C   UNL     1      -4.146  -1.358  23.936  0.00  0.00    +0.004 A 
ATOM     22  C   UNL     1      -3.787  -1.835  24.506  0.00  0.00    +0.071 A 
ATOM     23  C   UNL     1      -3.611  -1.527  25.251  0.00  0.00    +0.004 A 
ATOM     24  C   UNL     1      -3.795  -0.742  25.427  0.00  0.00    +0.005 A 
BRANCH  22  25
ATOM     25  C   UNL     1      -3.603  -2.620  24.329  0.00  0.00    +0.419 C 
ATOM     26  F   UNL     1      -3.420  -3.404  24.153  0.00  0.00    -0.166 F 
ATOM     27  F   UNL     1      -4.324  -2.700  23.936  0.00  0.00    -0.166 F 
ATOM     28  F   UNL     1      -2.882  -2.539  24.722  0.00  0.00    -0.166 F 
ENDBRANCH  22  25
ENDBRANCH  17  19
ENDBRANCH  15  16
TORSDOF 5
ENDMDL
MODEL 2
REMARK VINA RESULT:     -12.8      3.005      4.477
REMARK  Name = 
REMARK  5 active torsions:
REMARK  status: ('A' for Active; 'I' for Inactive)
REMARK    1  A    between atoms: O_2  and  C_3
REMARK    2  A    between atoms: C_6  and  C_9
REMARK    3  A    between atoms: C_15  and  N_16
REMARK    4  A    between atoms: C_17  and  C_19
REMARK    5  A    between atoms: C_22  and  C_25
REMARK                            x       y       z     vdW  Elec       q    Type
REMARK                         _______ _______ _______ _____ _____    ______ ____
ROOT
ATOM      9  C   UNL     1      -4.658   1.311  24.871  0.00  0.00    +0.048 C 
ATOM     10  C   UNL     1      -5.448   1.101  24.981  0.00  0.00    +0.042 C 
ATOM     11  C   UNL     1      -5.883   1.792  25.090  0.00  0.00    +0.184 C 
ATOM     12  O   UNL     1      -6.697   1.838  25.219  0.00  0.00    -0.220 OA
ATOM     13  C   UNL     1      -5.362   2.431  25.049  0.00  0.00    +0.202 C 
ATOM     14  O   UNL     1      -5.564   3.227  25.129  0.00  0.00    -0.219 OA
ATOM     15  C   UNL     1      -4.605   2.134  24.913  0.00  0.00    +0.132 C 
ENDROOT
BRANCH   9   6
ATOM      3  C   UNL     1      -2.776  -0.248  24.484  0.00  0.00    +0.139 A 
ATOM      4  C   UNL     1      -3.105  -0.179  25.236  0.00  0.00    +0.037 A 
ATOM      5  C   UNL     1      -3.733   0.342  25.365  0.00  0.00    -0.001 A 
ATOM      6  C   UNL     1      -4.030   0.792  24.742  0.00  0.00    -0.020 A 
ATOM      7  C   UNL     1      -3.701   0.722  23.989  0.00  0.00    -0.001 A 
ATOM      8  C   UNL     1      -3.073   0.202  23.860  0.00  0.00    +0.037 A 
BRANCH   3   2
ATOM      1  C   UNL     1      -1.389  -0.569  24.607  0.00  0.00    +0.252 C 
ATOM      2  O   UNL     1      -2.148  -0.768  24.355  0.00  0.00    -0.471 OA
ENDBRANCH   3   2
ENDBRANCH   9   6
BRANCH  15  16
ATOM     16  N   UNL     1      -3.917   2.580  24.833  0.00  0.00    -0.200 NA
ATOM     17  C   UNL     1      -3.751   3.183  25.372  0.00  0.00    +0.265 C 
ATOM     18  O   UNL     1      -4.275   3.339  25.990  0.00  0.00    -0.268 OA
BRANCH  17  19
ATOM     19  C   UNL     1      -3.062   3.630  25.293  0.00  0.00    +0.055 A 
ATOM     20  C   UNL     1      -2.954   4.107  24.629  0.00  0.00    +0.005 A 
ATOM     21  C   UNL     1      -2.265   4.554  24.549  0.00  0.00    +0.004 A 
ATOM     22  C   UNL     1      -1.684   4.523  25.134  0.00  0.00    +0.071 A 
ATOM     23  C   UNL     1      -1.792   4.045  25.798  0.00  0.00    +0.004 A 
ATOM     24  C   UNL     1      -2.481   3.599  25.877  0.00  0.00    +0.005 A 
BRANCH  22  25
ATOM     25  C   UNL     1      -0.995   4.970  25.055  0.00  0.00    +0.419 C 
ATOM     26  F   UNL     1      -0.306   5.416  24.975  0.00  0.00    -0.166 F 
ATOM     27  F   UNL     1      -0.593   4.302  24.785  0.00  0.00    -0.166 F 
ATOM     28  F   UNL     1      -1.397   5.638  25.325  0.00  0.00    -0.166 F 
ENDBRANCH  22  25
ENDBRANCH  17  19
ENDBRANCH  15  16
TORSDOF 5
ENDMDL
MODEL 3
REMARK VINA RESULT:     -12.4      3.122      5.340
REMARK  Name = 
REMARK  5 active torsions:
REMARK  status: ('A' for Active; 'I' for Inactive)
REMARK    1  A    between atoms: O_2  and  C_3
REMARK    2  A    between atoms: C_6  and  C_9
REMARK    3  A    between atoms: C_15  and  N_16
REMARK    4  A    between atoms: C_17  and  C_19
REMARK    5  A    between atoms: C_22  and  C_25
REMARK                            x       y       z     vdW  Elec       q    Type
REMARK                         _______ _______ _______ _____ _____    ______ ____
ROOT
ATOM      9  C   UNL     1      -2.094   0.014  24.666  0.00  0.00    +0.048 C 
ATOM     10  C   UNL     1      -1.795  -0.755  24.675  0.00  0.00    +0.042 C 
ATOM     11  C   UNL     1      -0.972  -0.708  24.658  0.00  0.00    +0.184 C 
ATOM     12  O   UNL     1      -0.449  -1.348  24.660  0.00  0.00    -0.220 OA
ATOM     13  C   UNL     1      -0.761   0.089  24.639  0.00  0.00    +0.202 C 
ATOM     14  O   UNL     1       0.008   0.387  24.619  0.00  0.00    -0.219 OA
ATOM     15  C   UNL     1      -1.454   0.536  24.644  0.00  0.00    +0.132 C 
ENDROOT
BRANCH   9   6
ATOM      3  C   UNL     1      -4.486   0.645  24.700  0.00  0.00    +0.139 A 
ATOM      4  C   UNL     1      -4.046   0.735  24.008  0.00  0.00    +0.037 A 
ATOM      5  C   UNL     1      -3.248   0.524  23.997  0.00  0.00    -0.001 A 
ATOM      6  C   UNL     1      -2.891   0.224  24.677  0.00  0.00    -0.020 A 
ATOM      7  C   UNL     1      -3.331   0.135  25.369  0.00  0.00    -0.001 A 
ATOM      8  C   UNL     1      -4.130   0.346  25.380  0.00  0.00    +0.037 A 
BRANCH   3   2
ATOM      1  C   UNL     1      -5.509   1.609  24.961  0.00  0.00    +0.252 C 
ATOM      2  O   UNL     1      -5.284   0.856  24.711  0.00  0.00    -0.471 OA
ENDBRANCH   3   2
ENDBRANCH   9   6
BRANCH  15  16
ATOM     16  N   UNL     1      -1.501   1.359  24.630  0.00  0.00    -0.200 NA
ATOM     17  C   UNL     1      -1.087   1.805  25.187  0.00  0.00    +0.265 C 
ATOM     18  O   UNL     1      -0.627   1.428  25.758  0.00  0.00    -0.268 OA
BRANCH  17  19
ATOM     19  C   UNL     1      -1.134   2.629  25.173  0.00  0.00    +0.055 A 
ATOM     20  C   UNL     1      -0.837   3.048  24.527  0.00  0.00    +0.005 A 
ATOM     21  C   UNL     1      -0.884   3.872  24.513  0.00  0.00    +0.004 A 
ATOM     22  C   UNL     1      -1.227   4.276  25.145  0.00  0.00    +0.071 A 
ATOM     23  C   UNL     1      -1.524   3.857  25.790  0.00  0.00    +0.004 A 
ATOM     24  C   UNL     1      -1.477   3.033  25.804  0.00  0.00    +0.005 A 
BRANCH  22  25
ATOM     25  C   UNL     1      -1.274   5.100  25.130  0.00  0.00    +0.419 C 
ATOM     26  F   UNL     1      -1.320   5.923  25.116  0.00  0.00    -0.166 F 
ATOM     27  F   UNL     1      -0.456   5.144  25.032  0.00  0.00    -0.166 F 
ATOM     28  F   UNL     1      -2.092   5.055  25.229  0.00  0.00    -0.166 F 
ENDBRANCH  22  25
ENDBRANCH  17  19
ENDBRANCH  15  16
TORSDOF 5
ENDMDL
MODEL 4
REMARK VINA RESULT:     -12.3      1.184      2.968
REMARK  Name = 
REMARK  5 active torsions:
REMARK  status: ('A' for Active; 'I' for Inactive)
REMARK    1  A    between atoms: O_2  and  C_3
REMARK    2  A    between atoms: C_6  and  C_9
REMARK    3  A    between atoms: C_15  and  N_16
REMARK    4  A    between atoms: C_17  and  C_19
REMARK    5  A    between atoms: C_22  and  C_25
REMARK                            x       y       z     vdW  Elec       q    Type
REMARK                         _______ _______ _______ _____ _____    ______ ____
ROOT
ATOM      9  C   UNL     1      -1.900   2.088  24.731  0.00  0.00    +0.048 C 
ATOM     10  C   UNL     1      -1.282   2.624  24.835  0.00  0.00    +0.042 C 
ATOM     11  C   UNL     1      -0.578   2.197  24.870  0.00  0.00    +0.184 C 
ATOM     12  O   UNL     1       0.178   2.513  24.970  0.00  0.00    -0.220 OA
ATOM     13  C   UNL     1      -0.761   1.396  24.788  0.00  0.00    +0.202 C 
ATOM     14  O   UNL     1      -0.220   0.772  24.792  0.00  0.00    -0.219 OA
ATOM     15  C   UNL     1      -1.578   1.329  24.702  0.00  0.00    +0.132 C 
ENDROOT
BRANCH   9   6
ATOM      3  C   UNL     1      -4.302   2.657  24.539  0.00  0.00    +0.139 A 
ATOM      4  C   UNL     1      -3.878   2.427  23.870  0.00  0.00    +0.037 A 
ATOM      5  C   UNL     1      -3.076   2.238  23.934  0.00  0.00    -0.001 A 
ATOM      6  C   UNL     1      -2.701   2.278  24.667  0.00  0.00    -0.020 A 
ATOM      7  C   UNL     1      -3.125   2.508  25.335  0.00  0.00    -0.001 A 
ATOM      8  C   UNL     1      -3.926   2.698  25.271  0.00  0.00    +0.037 A 
BRANCH   3   2
ATOM      1  C   UNL     1      -5.668   2.382  24.854  0.00  0.00    +0.252 C 
ATOM      2  O   UNL     1      -5.102   2.847  24.475  0.00  0.00    -0.471 OA
ENDBRANCH   3   2
ENDBRANCH   9   6
BRANCH  15  16
ATOM     16  N   UNL     1      -1.999   0.627  24.604  0.00  0.00    -0.200 NA
ATOM     17  C   UNL     1      -1.904   0.010  25.144  0.00  0.00    +0.265 C 
ATOM     18  O   UNL     1      -1.387   0.096  25.781  0.00  0.00    -0.268 OA
BRANCH  17  19
ATOM     19  C   UNL     1      -2.325  -0.692  25.046  0.00  0.00    +0.055 A 
ATOM     20  C   UNL     1      -2.080  -1.246  24.486  0.00  0.00    +0.005 A 
ATOM     21  C   UNL     1      -2.502  -1.949  24.388  0.00  0.00    +0.004 A 
ATOM     22  C   UNL     1      -3.168  -2.097  24.851  0.00  0.00    +0.071 A 
ATOM     23  C   UNL     1      -3.413  -1.544  25.412  0.00  0.00    +0.004 A 
ATOM     24  C   UNL     1      -2.992  -0.841  25.509  0.00  0.00    +0.005 A 
BRANCH  22  25
ATOM     25  C   UNL     1      -3.590  -2.800  24.754  0.00  0.00    +0.419 C 
ATOM     26  F   UNL     1      -4.011  -3.502  24.656  0.00  0.00    -0.166 F 
ATOM     27  F   UNL     1      -3.311  -3.068  25.481  0.00  0.00    -0.166 F 
ATOM     28  F   UNL     1      -3.869  -2.531  24.025  0.00  0.00    -0.166 F 
ENDBRANCH  22  25
ENDBRANCH  17  19
ENDBRANCH  15  16
TORSDOF 5
ENDMDL
MODEL 5
REMARK VINA RESULT:     -12.2      2.174      4.032
REMARK  Name = 
REMARK  5 active torsions:
REMARK  status: ('A' for Active; 'I' for Inactive)
REMARK    1  A    between atoms: O_2  and  C_3
REMARK    2  A    between atoms: C_6  and  C_9
REMARK    3  A    between atoms: C_15  and  N_16
REMARK    4  A    between atoms: C_17  and  C_19
REMARK    5  A    between atoms: C_22  and  C_25
REMARK                            x       y       z     vdW  Elec       q    Type
REMARK                         _______ _______ _______ _____ _____    ______ ____
ROOT
ATOM      9  C   UNL     1      -4.529   0.582  24.918  0.00  0.00    +0.048 C 
ATOM     10  C   UNL     1      -5.321   0.804  24.968  0.00  0.00    +0.042 C 
ATOM     11  C   UNL     1      -5.354   1.627  25.006  0.00  0.00    +0.184 C 
ATOM     12  O   UNL     1      -6.039   2.083  25.061  0.00  0.00    -0.220 OA
ATOM     13  C   UNL     1      -4.581   1.914  24.980  0.00  0.00    +0.202 C 
ATOM     14  O   UNL     1      -4.357   2.708  25.004  0.00  0.00    -0.219 OA
ATOM     15  C   UNL     1      -4.071   1.268  24.926  0.00  0.00    +0.132 C 
ENDROOT
BRANCH   9   6
ATOM      3  C   UNL     1      -3.673  -1.736  24.772  0.00  0.00    +0.139 A 
ATOM      4  C   UNL     1      -3.616  -1.320  25.481  0.00  0.00    +0.037 A 
ATOM      5  C   UNL     1      -3.901  -0.546  25.530  0.00  0.00    -0.001 A 
ATOM      6  C   UNL     1      -4.243  -0.191  24.869  0.00  0.00    -0.020 A 
ATOM      7  C   UNL     1      -4.301  -0.607  24.160  0.00  0.00    -0.001 A 
ATOM      8  C   UNL     1      -4.015  -1.381  24.112  0.00  0.00    +0.037 A 
BRANCH   3   2
ATOM      1  C   UNL     1      -2.622  -2.650  24.452  0.00  0.00    +0.252 C 
ATOM      2  O   UNL     1      -3.387  -2.509  24.723  0.00  0.00    -0.471 OA
ENDBRANCH   3   2
ENDBRANCH   9   6
BRANCH  15  16
ATOM     16  N   UNL     1      -3.248   1.302  24.886  0.00  0.00    -0.200 NA
ATOM     17  C   UNL     1      -2.882   1.774  24.316  0.00  0.00    +0.265 C 
ATOM     18  O   UNL     1      -3.339   2.211  23.786  0.00  0.00    -0.268 OA
BRANCH  17  19
ATOM     19  C   UNL     1      -2.058   1.808  24.276  0.00  0.00    +0.055 A 
ATOM     20  C   UNL     1      -1.624   2.068  24.927  0.00  0.00    +0.005 A 
ATOM     21  C   UNL     1      -0.800   2.102  24.887  0.00  0.00    +0.004 A 
ATOM     22  C   UNL     1      -0.412   1.876  24.195  0.00  0.00    +0.071 A 
ATOM     23  C   UNL     1      -0.846   1.616  23.544  0.00  0.00    +0.004 A 
ATOM     24  C   UNL     1      -1.670   1.582  23.584  0.00  0.00    +0.005 A 
BRANCH  22  25
ATOM     25  C   UNL     1       0.412   1.911  24.155  0.00  0.00    +0.419 C 
ATOM     26  F   UNL     1       1.235   1.945  24.115  0.00  0.00    -0.166 F 
ATOM     27  F   UNL     1       0.378   2.734  24.165  0.00  0.00    -0.166 F 
ATOM     28  F   UNL     1       0.446   1.086  24.144  0.00  0.00    -0.166 F 
ENDBRANCH  22  25
ENDBRANCH  17  19
ENDBRANCH  15  16
TORSDOF 5
ENDMDL
MODEL 6
REMARK VINA RESULT:     -12.2      2.767      3.776
REMARK  Name = 
REMARK  5 active torsions:
REMARK  status: ('A' for Active; 'I' for Inactive)
REMARK    1  A    between atoms: O_2  and  C_3
REMARK    2  A    between atoms: C_6  and  C_9
REMARK    3  A    between atoms: C_15  and  N_16
REMARK    4  A    between atoms: C_17  and  C_19
REMARK    5  A    between atoms: C_22  and  C_25
REMARK                            x       y       z     vdW  Elec       q    Type
REMARK                         _______ _______ _______ _____ _____    ______ ____
ROOT
ATOM      9  C   UNL     1      -1.109   3.402  25.042  0.00  0.00    +0.048 C 
ATOM     10  C   UNL     1      -0.561   4.009  24.939  0.00  0.00    +0.042 C 
ATOM     11  C   UNL     1      -0.965   4.727  24.982  0.00  0.00    +0.184 C 
ATOM     12  O   UNL     1      -0.629   5.478  24.908  0.00  0.00    -0.220 OA
ATOM     13  C   UNL     1      -1.763   4.563  25.112  0.00  0.00    +0.202 C 
ATOM     14  O   UNL     1      -2.366   5.121  25.190  0.00  0.00    -0.219 OA
ATOM     15  C   UNL     1      -1.852   3.744  25.149  0.00  0.00    +0.132 C 
ENDROOT
BRANCH   9   6
ATOM      3  C   UNL     1      -0.613   0.977  25.033  0.00  0.00    +0.139 A 
ATOM      4  C   UNL     1      -0.662   1.390  24.322  0.00  0.00    +0.037 A 
ATOM      5  C   UNL     1      -0.828   2.199  24.325  0.00  0.00    -0.001 A 
ATOM      6  C   UNL     1      -0.943   2.594  25.039  0.00  0.00    -0.020 A 
ATOM      7  C   UNL     1      -0.893   2.181  25.751  0.00  0.00    -0.001 A 
ATOM      8  C   UNL     1      -0.728   1.372  25.748  0.00  0.00    +0.037 A 
BRANCH   3   2
ATOM      1  C   UNL     1      -1.052  -0.377  25.159  0.00  0.00    +0.252 C 
ATOM      2  O   UNL     1      -0.447   0.169  25.030  0.00  0.00    -0.471 OA
ENDBRANCH   3   2
ENDBRANCH   9   6
BRANCH  15  16
ATOM     16  N   UNL     1      -2.560   3.339  25.271  0.00  0.00    -0.200 NA
ATOM     17  C   UNL     1      -3.225   3.527  24.822  0.00  0.00    +0.265 C 
ATOM     18  O   UNL     1      -3.184   4.120  24.250  0.00  0.00    -0.268 OA
BRANCH  17  19
ATOM     19  C   UNL     1      -3.934   3.121  24.944  0.00  0.00    +0.055 A 
ATOM     20  C   UNL     1      -4.173   2.540  24.410  0.00  0.00    +0.005 A 
ATOM     21  C   UNL     1      -4.882   2.134  24.532  0.00  0.00    +0.004 A 
ATOM     22  C   UNL     1      -5.349   2.310  25.188  0.00  0.00    +0.071 A 
ATOM     23  C   UNL     1      -5.110   2.891  25.722  0.00  0.00    +0.004 A 
ATOM     24  C   UNL     1      -4.401   3.297  25.600  0.00  0.00    +0.005 A 
BRANCH  22  25
ATOM     25  C   UNL     1      -6.058   1.904  25.310  0.00  0.00    +0.419 C 
ATOM     26  F   UNL     1      -6.765   1.499  25.432  0.00  0.00    -0.166 F 
ATOM     27  F   UNL     1      -6.318   2.134  24.562  0.00  0.00    -0.166 F 
ATOM     28  F   UNL     1      -5.797   1.675  26.059  0.00  0.00    -0.166 F 
ENDBRANCH  22  25
ENDBRANCH  17  19
ENDBRANCH  15  16
TORSDOF 5
ENDMDL
MODEL 7
REMARK VINA RESULT:     -11.8      1.962      3.477
REMARK  Name = 
REMARK  5 active torsions:
REMARK  status: ('A' for Active; 'I' for Inactive)
REMARK    1  A    between atoms: O_2  and  C_3
REMARK    2  A    between atoms: C_6  and  C_9
REMARK    3  A    between atoms: C_15  and  N_16
REMARK    4  A    between atoms: C_17  and  C_19
REMARK    5  A    between atoms: C_22  and  C_25
REMARK                            x       y       z     vdW  Elec       q    Type
REMARK                         _______ _______ _______ _____ _____    ______ ____
ROOT
ATOM      9  C   UNL     1      -2.390   3.518  24.909  0.00  0.00    +0.048 C 
ATOM     10  C   UNL     1      -2.192   4.310  25.022  0.00  0.00    +0.042 C 
ATOM     11  C   UNL     1      -1.371   4.361  25.084  0.00  0.00    +0.184 C 
ATOM     12  O   UNL     1      -0.935   5.053  25.200  0.00  0.00    -0.220 OA
ATOM     13  C   UNL     1      -1.062   3.600  25.008  0.00  0.00    +0.202 C 
ATOM     14  O   UNL     1      -0.262   3.397  25.036  0.00  0.00    -0.219 OA
ATOM     15  C   UNL     1      -1.691   3.079  24.901  0.00  0.00    +0.132 C 
ENDROOT
BRANCH   9   6
ATOM      3  C   UNL     1      -4.679   2.614  24.642  0.00  0.00    +0.139 A 
ATOM      4  C   UNL     1      -4.185   2.685  23.986  0.00  0.00    +0.037 A 
ATOM      5  C   UNL     1      -3.421   2.987  24.075  0.00  0.00    -0.001 A 
ATOM      6  C   UNL     1      -3.153   3.217  24.820  0.00  0.00    -0.020 A 
ATOM      7  C   UNL     1      -3.647   3.145  25.476  0.00  0.00    -0.001 A 
ATOM      8  C   UNL     1      -4.411   2.843  25.387  0.00  0.00    +0.037 A 
BRANCH   3   2
ATOM      1  C   UNL     1      -5.814   1.938  25.187  0.00  0.00    +0.252 C 
ATOM      2  O   UNL     1      -5.441   2.313  24.553  0.00  0.00    -0.471 OA
ENDBRANCH   3   2
ENDBRANCH   9   6
BRANCH  15  16
ATOM     16  N   UNL     1      -1.633   2.262  24.802  0.00  0.00    -0.200 NA
ATOM     17  C   UNL     1      -1.187   1.814  25.331  0.00  0.00    +0.265 C 
ATOM     18  O   UNL     1      -0.798   2.182  25.959  0.00  0.00    -0.268 OA
BRANCH  17  19
ATOM     19  C   UNL     1      -1.128   0.996  25.232  0.00  0.00    +0.055 A 
ATOM     20  C   UNL     1      -0.755   0.687  24.565  0.00  0.00    +0.005 A 
ATOM     21  C   UNL     1      -0.696  -0.130  24.466  0.00  0.00    +0.004 A 
ATOM     22  C   UNL     1      -1.011  -0.637  25.035  0.00  0.00    +0.071 A 
ATOM     23  C   UNL     1      -1.385  -0.328  25.703  0.00  0.00    +0.004 A 
ATOM     24  C   UNL     1      -1.443   0.489  25.802  0.00  0.00    +0.005 A 
BRANCH  22  25
ATOM     25  C   UNL     1      -0.953  -1.455  24.937  0.00  0.00    +0.419 C 
ATOM     26  F   UNL     1      -0.894  -2.271  24.838  0.00  0.00    -0.166 F 
ATOM     27  F   UNL     1      -0.314  -1.472  25.458  0.00  0.00    -0.166 F 
ATOM     28  F   UNL     1      -1.592  -1.438  24.415  0.00  0.00    -0.166 F 
ENDBRANCH  22  25
ENDBRANCH  17  19
ENDBRANCH  15  16
TORSDOF 5
ENDMDL
