MODEL 1
REMARK VINA RESULT:     -11.6      0.000      0.000
REMARK  Name = 
REMARK  7 active torsions:
REMARK  status: ('A' for Active; 'I' for Inactive)
REMARK    1  A    between atoms: N_7  and  C_8
REMARK    2  A    between atoms: C_8  and  C_9
REMARK    3  A    between atoms: C_9  and  C_10
REMARK    4  A    between atoms: C_15  and  C_16
REMARK    5  A    between atoms: C_16  and  C_17
REMARK    6  A    between atoms: C_20  and  C_22
REMARK    7  A    between atoms: C_25  and  C_28
REMARK                            x       y       z     vdW  Elec       q    Type
REMARK                         _______ _______ _______ _____ _____    ______ ____
ROOT
ATOM     10  C   UNL     1      -3.844   1.821  25.004  0.00  0.00    +0.022 C 
ATOM     11  C   UNL     1      -3.302   1.223  24.830  0.00  0.00    +0.094 C 
ATOM     12  N   UNL     1      -3.560   0.444  24.744  0.00  0.00    -0.276 N 
ATOM     13  C   UNL     1      -4.360   0.263  24.832  0.00  0.00    +0.094 C 
ATOM     14  C   UNL     1      -4.902   0.860  25.005  0.00  0.00    +0.022 C 
ATOM     15  C   UNL     1      -4.644   1.639  25.091  0.00  0.00    +0.015 C 
ATOM     20  C   UNL     1      -3.018  -0.152  24.571  0.00  0.00    +0.249 C 
ATOM     21  O   UNL     1      -2.217   0.029  24.483  0.00  0.00    -0.270 OA
ENDROOT
BRANCH  20  22
ATOM     22  C   UNL     1      -3.275  -0.931  24.485  0.00  0.00    +0.054 A 
ATOM     23  C   UNL     1      -3.151  -1.477  25.092  0.00  0.00    +0.004 A 
ATOM     24  C   UNL     1      -3.409  -2.256  25.006  0.00  0.00    +0.004 A 
ATOM     25  C   UNL     1      -3.791  -2.489  24.313  0.00  0.00    +0.071 A 
ATOM     26  C   UNL     1      -3.915  -1.945  23.706  0.00  0.00    +0.004 A 
ATOM     27  C   UNL     1      -3.658  -1.166  23.792  0.00  0.00    +0.004 A 
BRANCH  25  28
ATOM     28  C   UNL     1      -4.049  -3.269  24.226  0.00  0.00    +0.419 C 
ATOM     29  F   UNL     1      -4.307  -4.048  24.140  0.00  0.00    -0.166 F 
ATOM     30  F   UNL     1      -3.633  -3.482  24.907  0.00  0.00    -0.166 F 
ATOM     31  F   UNL     1      -4.464  -3.056  23.546  0.00  0.00    -0.166 F 
ENDBRANCH  25  28
ENDBRANCH  20  22
BRANCH  10   9
ATOM      9  C   UNL     1      -3.587   2.599  25.090  0.00  0.00    +0.019 C 
BRANCH   9   8
ATOM      8  C   UNL     1      -2.926   2.766  25.554  0.00  0.00    +0.072 C 
BRANCH   8   7
ATOM      1  C   UNL     1      -0.338   5.354  24.604  0.00  0.00    +0.095 C 
ATOM      2  C   UNL     1      -1.096   5.438  24.920  0.00  0.00    +0.226 C 
ATOM      3  O   UNL     1      -1.395   6.190  25.078  0.00  0.00    -0.275 OA
ATOM      4  N   UNL     1      -1.553   4.770  25.079  0.00  0.00    -0.277 N 
ATOM      5  C   UNL     1      -2.310   4.855  25.394  0.00  0.00    +0.111 C 
ATOM      6  C   UNL     1      -2.768   4.186  25.553  0.00  0.00    +0.094 C 
ATOM      7  N   UNL     1      -2.468   3.434  25.395  0.00  0.00    -0.270 NA
ATOM     32  C   UNL     1      -1.711   3.349  25.079  0.00  0.00    +0.094 C 
ATOM     33  C   UNL     1      -1.253   4.018  24.921  0.00  0.00    +0.111 C 
ENDBRANCH   8   7
ENDBRANCH   9   8
ENDBRANCH  10   9
BRANCH  15  16
ATOM     16  C   UNL     1      -5.187   2.236  25.264  0.00  0.00    +0.114 C 
BRANCH  16  17
ATOM     17  C   UNL     1      -5.974   2.045  25.418  0.00  0.00    +0.365 C 
ATOM     18  O   UNL     1      -6.509   1.966  24.795  0.00  0.00    -0.246 OA
ATOM     19  O   UNL     1      -6.226   1.934  26.196  0.00  0.00    -0.246 OA
ENDBRANCH  16  17
ENDBRANCH  15  16
TORSDOF 7
ENDMDL
MODEL 2
REMARK VINA RESULT:     -10.8      3.136      5.931
REMARK  Name = 
REMARK  7 active torsions:
REMARK  status: ('A' for Active; 'I' for Inactive)
REMARK    1  A    between atoms: N_7  and  C_8
REMARK    2  A    between atoms: C_8  and  C_9
REMARK    3  A    between atoms: C_9  and  C_10
REMARK    4  A    between atoms: C_15  and  C_16
REMARK    5  A    between atoms: C_16  and  C_17
REMARK    6  A    between atoms: C_20  and  C_22
REMARK    7  A    between atoms: C_25  and  C_28
REMARK                            x       y       z     vdW  Elec       q    Type
REMARK                         _______ _______ _______ _____ _____    ______ ____
ROOT
ATOM     10  C   UNL     1      -3.966   1.269  24.958  0.00  0.00    +0.022 C 
ATOM     11  C   UNL     1      -3.157   1.428  24.909  0.00  0.00    +0.094 C 
ATOM     12  N   UNL     1      -2.887   2.207  24.941  0.00  0.00    -0.276 N 
ATOM     13  C   UNL     1      -3.426   2.827  25.023  0.00  0.00    +0.094 C 
ATOM     14  C   UNL     1      -4.233   2.668  25.072  0.00  0.00    +0.022 C 
ATOM     15  C   UNL     1      -4.503   1.889  25.040  0.00  0.00    +0.015 C 
ATOM     20  C   UNL     1      -2.080   2.365  24.892  0.00  0.00    +0.249 C 
ATOM     21  O   UNL     1      -1.541   1.745  24.811  0.00  0.00    -0.270 OA
ENDROOT
BRANCH  20  22
ATOM     22  C   UNL     1      -1.809   3.144  24.925  0.00  0.00    +0.054 A 
ATOM     23  C   UNL     1      -1.693   3.510  25.656  0.00  0.00    +0.004 A 
ATOM     24  C   UNL     1      -1.423   4.289  25.689  0.00  0.00    +0.004 A 
ATOM     25  C   UNL     1      -1.269   4.702  24.991  0.00  0.00    +0.071 A 
ATOM     26  C   UNL     1      -1.385   4.336  24.261  0.00  0.00    +0.004 A 
ATOM     27  C   UNL     1      -1.655   3.557  24.228  0.00  0.00    +0.004 A 
BRANCH  25  28
ATOM     28  C   UNL     1      -0.999   5.481  25.023  0.00  0.00    +0.419 C 
ATOM     29  F   UNL     1      -0.729   6.260  25.056  0.00  0.00    -0.166 F 
ATOM     30  F   UNL     1      -0.293   5.252  24.664  0.00  0.00    -0.166 F 
ATOM     31  F   UNL     1      -1.705   5.711  25.383  0.00  0.00    -0.166 F 
ENDBRANCH  25  28
ENDBRANCH  20  22
BRANCH  10   9
ATOM      9  C   UNL     1      -4.236   0.491  24.925  0.00  0.00    +0.019 C 
BRANCH   9   8
ATOM      8  C   UNL     1      -3.838  -0.102  25.338  0.00  0.00    +0.072 C 
BRANCH   8   7
ATOM      1  C   UNL     1      -4.156  -3.360  23.446  0.00  0.00    +0.095 C 
ATOM      2  C   UNL     1      -3.787  -3.185  24.163  0.00  0.00    +0.226 C 
ATOM      3  O   UNL     1      -3.405  -3.782  24.585  0.00  0.00    -0.275 OA
ATOM      4  N   UNL     1      -3.799  -2.414  24.457  0.00  0.00    -0.277 N 
ATOM      5  C   UNL     1      -3.430  -2.240  25.173  0.00  0.00    +0.111 C 
ATOM      6  C   UNL     1      -3.443  -1.468  25.467  0.00  0.00    +0.094 C 
ATOM      7  N   UNL     1      -3.825  -0.873  25.044  0.00  0.00    -0.270 NA
ATOM     32  C   UNL     1      -4.195  -1.046  24.327  0.00  0.00    +0.094 C 
ATOM     33  C   UNL     1      -4.182  -1.818  24.033  0.00  0.00    +0.111 C 
ENDBRANCH   8   7
ENDBRANCH   9   8
ENDBRANCH  10   9
BRANCH  15  16
ATOM     16  C   UNL     1      -5.312   1.730  25.089  0.00  0.00    +0.114 C 
BRANCH  16  17
ATOM     17  C   UNL     1      -5.824   2.293  25.407  0.00  0.00    +0.365 C 
ATOM     18  O   UNL     1      -5.973   2.304  26.219  0.00  0.00    -0.246 OA
ATOM     19  O   UNL     1      -6.187   2.846  24.913  0.00  0.00    -0.246 OA
ENDBRANCH  16  17
ENDBRANCH  15  16
TORSDOF 7
ENDMDL
MODEL 3
REMARK VINA RESULT:     -10.4      1.606      3.018
REMARK  Name = 
REMARK  7 active torsions:
REMARK  status: ('A' for Active; 'I' for Inactive)
REMARK    1  A    between atoms: N_7  and  C_8
REMARK    2  A    between atoms: C_8  and  C_9
REMARK    3  A    between atoms: C_9  and  C_10
REMARK    4  A    between atoms: C_15  and  C_16
REMARK    5  A    between atoms: C_16  and  C_17
REMARK    6  A    between atoms: C_20  and  C_22
REMARK    7  A    between atoms: C_25  and  C_28
REMARK                            x       y       z     vdW  Elec       q    Type
REMARK                         _______ _______ _______ _____ _____    ______ ____
ROOT
ATOM     10  C   UNL     1      -1.149   0.890  24.736  0.00  0.00    +0.022 C 
ATOM     11  C   UNL     1      -1.922   0.687  24.944  0.00  0.00    +0.094 C 
ATOM     12  N   UNL     1      -2.230  -0.046  24.724  0.00  0.00    -0.276 N 
ATOM     13  C   UNL     1      -1.766  -0.576  24.295  0.00  0.00    +0.094 C 
ATOM     14  C   UNL     1      -0.994  -0.374  24.087  0.00  0.00    +0.022 C 
ATOM     15  C   UNL     1      -0.686   0.359  24.307  0.00  0.00    +0.015 C 
ATOM     20  C   UNL     1      -3.002  -0.248  24.932  0.00  0.00    +0.249 C 
ATOM     21  O   UNL     1      -3.467   0.282  25.361  0.00  0.00    -0.270 OA
ENDROOT
BRANCH  20  22
ATOM     22  C   UNL     1      -3.310  -0.981  24.712  0.00  0.00    +0.054 A 
ATOM     23  C   UNL     1      -3.756  -1.050  24.021  0.00  0.00    +0.004 A 
ATOM     24  C   UNL     1      -4.064  -1.783  23.801  0.00  0.00    +0.004 A 
ATOM     25  C   UNL     1      -3.926  -2.447  24.272  0.00  0.00    +0.071 A 
ATOM     26  C   UNL     1      -3.481  -2.378  24.962  0.00  0.00    +0.004 A 
ATOM     27  C   UNL     1      -3.173  -1.645  25.182  0.00  0.00    +0.004 A 
BRANCH  25  28
ATOM     28  C   UNL     1      -4.235  -3.181  24.051  0.00  0.00    +0.419 C 
ATOM     29  F   UNL     1      -4.543  -3.913  23.831  0.00  0.00    -0.166 F 
ATOM     30  F   UNL     1      -4.758  -2.805  23.536  0.00  0.00    -0.166 F 
ATOM     31  F   UNL     1      -3.711  -3.556  24.567  0.00  0.00    -0.166 F 
ENDBRANCH  25  28
ENDBRANCH  20  22
BRANCH  10   9
ATOM      9  C   UNL     1      -0.842   1.622  24.956  0.00  0.00    +0.019 C 
BRANCH   9   8
ATOM      8  C   UNL     1      -1.260   2.106  25.477  0.00  0.00    +0.072 C 
BRANCH   8   7
ATOM      1  C   UNL     1      -1.972   5.806  25.169  0.00  0.00    +0.095 C 
ATOM      2  C   UNL     1      -1.279   5.377  25.040  0.00  0.00    +0.226 C 
ATOM      3  O   UNL     1      -0.591   5.766  24.803  0.00  0.00    -0.275 OA
ATOM      4  N   UNL     1      -1.274   4.559  25.149  0.00  0.00    -0.277 N 
ATOM      5  C   UNL     1      -0.582   4.130  25.021  0.00  0.00    +0.111 C 
ATOM      6  C   UNL     1      -0.577   3.311  25.131  0.00  0.00    +0.094 C 
ATOM      7  N   UNL     1      -1.264   2.923  25.368  0.00  0.00    -0.270 NA
ATOM     32  C   UNL     1      -1.958   3.352  25.496  0.00  0.00    +0.094 C 
ATOM     33  C   UNL     1      -1.962   4.171  25.387  0.00  0.00    +0.111 C 
ENDBRANCH   8   7
ENDBRANCH   9   8
ENDBRANCH  10   9
BRANCH  15  16
ATOM     16  C   UNL     1       0.087   0.562  24.098  0.00  0.00    +0.114 C 
BRANCH  16  17
ATOM     17  C   UNL     1       0.504   0.095  23.561  0.00  0.00    +0.365 C 
ATOM     18  O   UNL     1       0.539   0.312  22.766  0.00  0.00    -0.246 OA
ATOM     19  O   UNL     1       0.886  -0.589  23.820  0.00  0.00    -0.246 OA
ENDBRANCH  16  17
ENDBRANCH  15  16
TORSDOF 7
ENDMDL
MODEL 4
REMARK VINA RESULT:     -10.4      3.753      5.233
REMARK  Name = 
REMARK  7 active torsions:
REMARK  status: ('A' for Active; 'I' for Inactive)
REMARK    1  A    between atoms: N_7  and  C_8
REMARK    2  A    between atoms: C_8  and  C_9
REMARK    3  A    between atoms: C_9  and  C_10
REMARK    4  A    between atoms: C_15  and  C_16
REMARK    5  A    between atoms: C_16  and  C_17
REMARK    6  A    between atoms: C_20  and  C_22
REMARK    7  A    between atoms: C_25  and  C_28
REMARK                            x       y       z     vdW  Elec       q    Type
REMARK                         _______ _______ _______ _____ _____    ______ ____
ROOT
ATOM     10  C   UNL     1      -1.109   0.737  24.476  0.00  0.00    +0.022 C 
ATOM     11  C   UNL     1      -1.409   1.480  24.277  0.00  0.00    +0.094 C 
ATOM     12  N   UNL     1      -2.151   1.713  24.553  0.00  0.00    -0.276 N 
ATOM     13  C   UNL     1      -2.592   1.204  25.029  0.00  0.00    +0.094 C 
ATOM     14  C   UNL     1      -2.293   0.462  25.228  0.00  0.00    +0.022 C 
ATOM     15  C   UNL     1      -1.551   0.229  24.952  0.00  0.00    +0.015 C 
ATOM     20  C   UNL     1      -2.450   2.455  24.354  0.00  0.00    +0.249 C 
ATOM     21  O   UNL     1      -2.009   2.965  23.878  0.00  0.00    -0.270 OA
ENDROOT
BRANCH  20  22
ATOM     22  C   UNL     1      -3.192   2.688  24.630  0.00  0.00    +0.054 A 
ATOM     23  C   UNL     1      -3.873   2.478  24.214  0.00  0.00    +0.004 A 
ATOM     24  C   UNL     1      -4.614   2.711  24.490  0.00  0.00    +0.004 A 
ATOM     25  C   UNL     1      -4.675   3.155  25.183  0.00  0.00    +0.071 A 
ATOM     26  C   UNL     1      -3.995   3.366  25.599  0.00  0.00    +0.004 A 
ATOM     27  C   UNL     1      -3.253   3.132  25.323  0.00  0.00    +0.004 A 
BRANCH  25  28
ATOM     28  C   UNL     1      -5.417   3.388  25.460  0.00  0.00    +0.419 C 
ATOM     29  F   UNL     1      -6.159   3.622  25.736  0.00  0.00    -0.166 F 
ATOM     30  F   UNL     1      -5.230   4.175  25.297  0.00  0.00    -0.166 F 
ATOM     31  F   UNL     1      -5.604   2.602  25.622  0.00  0.00    -0.166 F 
ENDBRANCH  25  28
ENDBRANCH  20  22
BRANCH  10   9
ATOM      9  C   UNL     1      -0.369   0.504  24.200  0.00  0.00    +0.019 C 
BRANCH   9   8
ATOM      8  C   UNL     1      -0.068   0.825  23.502  0.00  0.00    +0.072 C 
BRANCH   8   7
ATOM      1  C   UNL     1       3.664   0.819  22.893  0.00  0.00    +0.095 C 
ATOM      2  C   UNL     1       3.076   0.290  22.657  0.00  0.00    +0.226 C 
ATOM      3  O   UNL     1       3.276  -0.374  22.209  0.00  0.00    -0.275 OA
ATOM      4  N   UNL     1       2.290   0.423  22.868  0.00  0.00    -0.277 N 
ATOM      5  C   UNL     1       1.704  -0.106  22.632  0.00  0.00    +0.111 C 
ATOM      6  C   UNL     1       0.917   0.028  22.843  0.00  0.00    +0.094 C 
ATOM      7  N   UNL     1       0.718   0.691  23.291  0.00  0.00    -0.270 NA
ATOM     32  C   UNL     1       1.304   1.221  23.528  0.00  0.00    +0.094 C 
ATOM     33  C   UNL     1       2.091   1.087  23.316  0.00  0.00    +0.111 C 
ENDBRANCH   8   7
ENDBRANCH   9   8
ENDBRANCH  10   9
BRANCH  15  16
ATOM     16  C   UNL     1      -1.251  -0.514  25.151  0.00  0.00    +0.114 C 
BRANCH  16  17
ATOM     17  C   UNL     1      -1.707  -1.036  25.599  0.00  0.00    +0.365 C 
ATOM     18  O   UNL     1      -1.700  -0.990  26.422  0.00  0.00    -0.246 OA
ATOM     19  O   UNL     1      -2.171  -1.604  25.221  0.00  0.00    -0.246 OA
ENDBRANCH  16  17
ENDBRANCH  15  16
TORSDOF 7
ENDMDL
MODEL 5
REMARK VINA RESULT:     -10.0      3.407      4.765
REMARK  Name = 
REMARK  7 active torsions:
REMARK  status: ('A' for Active; 'I' for Inactive)
REMARK    1  A    between atoms: N_7  and  C_8
REMARK    2  A    between atoms: C_8  and  C_9
REMARK    3  A    between atoms: C_9  and  C_10
REMARK    4  A    between atoms: C_15  and  C_16
REMARK    5  A    between atoms: C_16  and  C_17
REMARK    6  A    between atoms: C_20  and  C_22
REMARK    7  A    between atoms: C_25  and  C_28
REMARK                            x       y       z     vdW  Elec       q    Type
REMARK                         _______ _______ _______ _____ _____    ______ ____
ROOT
ATOM     10  C   UNL     1      -1.133   1.791  24.334  0.00  0.00    +0.022 C 
ATOM     11  C   UNL     1      -1.789   1.362  24.074  0.00  0.00    +0.094 C 
ATOM     12  N   UNL     1      -2.539   1.533  24.373  0.00  0.00    -0.276 N 
ATOM     13  C   UNL     1      -2.633   2.134  24.931  0.00  0.00    +0.094 C 
ATOM     14  C   UNL     1      -1.978   2.562  25.191  0.00  0.00    +0.022 C 
ATOM     15  C   UNL     1      -1.228   2.391  24.892  0.00  0.00    +0.015 C 
ATOM     20  C   UNL     1      -3.193   1.105  24.113  0.00  0.00    +0.249 C 
ATOM     21  O   UNL     1      -3.099   0.505  23.554  0.00  0.00    -0.270 OA
ENDROOT
BRANCH  20  22
ATOM     22  C   UNL     1      -3.943   1.276  24.411  0.00  0.00    +0.054 A 
ATOM     23  C   UNL     1      -4.292   0.772  24.964  0.00  0.00    +0.004 A 
ATOM     24  C   UNL     1      -5.042   0.943  25.263  0.00  0.00    +0.004 A 
ATOM     25  C   UNL     1      -5.443   1.618  25.008  0.00  0.00    +0.071 A 
ATOM     26  C   UNL     1      -5.094   2.122  24.456  0.00  0.00    +0.004 A 
ATOM     27  C   UNL     1      -4.344   1.951  24.158  0.00  0.00    +0.004 A 
BRANCH  25  28
ATOM     28  C   UNL     1      -6.193   1.790  25.307  0.00  0.00    +0.419 C 
ATOM     29  F   UNL     1      -6.943   1.961  25.606  0.00  0.00    -0.166 F 
ATOM     30  F   UNL     1      -5.857   2.006  26.029  0.00  0.00    -0.166 F 
ATOM     31  F   UNL     1      -6.530   1.574  24.586  0.00  0.00    -0.166 F 
ENDBRANCH  25  28
ENDBRANCH  20  22
BRANCH  10   9
ATOM      9  C   UNL     1      -0.384   1.620  24.036  0.00  0.00    +0.019 C 
BRANCH   9   8
ATOM      8  C   UNL     1      -0.155   0.837  23.920  0.00  0.00    +0.072 C 
BRANCH   8   7
ATOM      1  C   UNL     1       3.386   0.572  22.618  0.00  0.00    +0.095 C 
ATOM      2  C   UNL     1       2.702   0.156  22.415  0.00  0.00    +0.226 C 
ATOM      3  O   UNL     1       2.734  -0.430  21.835  0.00  0.00    -0.275 OA
ATOM      4  N   UNL     1       1.988   0.326  22.791  0.00  0.00    -0.277 N 
ATOM      5  C   UNL     1       1.306  -0.090  22.588  0.00  0.00    +0.111 C 
ATOM      6  C   UNL     1       0.591   0.081  22.965  0.00  0.00    +0.094 C 
ATOM      7  N   UNL     1       0.560   0.666  23.544  0.00  0.00    -0.270 NA
ATOM     32  C   UNL     1       1.242   1.083  23.748  0.00  0.00    +0.094 C 
ATOM     33  C   UNL     1       1.957   0.913  23.371  0.00  0.00    +0.111 C 
ENDBRANCH   8   7
ENDBRANCH   9   8
ENDBRANCH  10   9
BRANCH  15  16
ATOM     16  C   UNL     1      -0.572   2.820  25.152  0.00  0.00    +0.114 C 
BRANCH  16  17
ATOM     17  C   UNL     1      -0.673   3.446  25.680  0.00  0.00    +0.365 C 
ATOM     18  O   UNL     1      -0.687   3.303  26.492  0.00  0.00    -0.246 OA
ATOM     19  O   UNL     1      -0.759   4.215  25.394  0.00  0.00    -0.246 OA
ENDBRANCH  16  17
ENDBRANCH  15  16
TORSDOF 7
ENDMDL
