MODEL 1
REMARK VINA RESULT:     -12.5      0.000      0.000
REMARK  Name = 
REMARK  7 active torsions:
REMARK  status: ('A' for Active; 'I' for Inactive)
REMARK    1  A    between atoms: C_2  and  C_3
REMARK    2  A    between atoms: C_3  and  C_4
REMARK    3  A    between atoms: C_9  and  C_10
REMARK    4  A    between atoms: C_10  and  C_11
REMARK    5  A    between atoms: C_14  and  C_16
REMARK    6  A    between atoms: N_22  and  C_23
REMARK    7  A    between atoms: C_23  and  C_24
REMARK                            x       y       z     vdW  Elec       q    Type
REMARK                         _______ _______ _______ _____ _____    ______ ____
ROOT
ATOM      4  C   UNL     1      -4.960   2.542  25.025  0.00  0.00    +0.012 C 
ATOM      5  C   UNL     1      -5.489   2.952  25.508  0.00  0.00    +0.019 C 
ATOM      6  C   UNL     1      -6.041   2.538  25.960  0.00  0.00    +0.089 C 
ATOM      7  N   UNL     1      -6.064   1.714  25.929  0.00  0.00    -0.218 NA
ATOM      8  C   UNL     1      -5.536   1.304  25.447  0.00  0.00    +0.089 C 
ATOM      9  C   UNL     1      -4.983   1.718  24.994  0.00  0.00    +0.024 C 
ENDROOT
BRANCH   4   3
ATOM      3  C   UNL     1      -4.409   2.957  24.573  0.00  0.00    +0.087 C 
BRANCH   3   2
ATOM      1  O   UNL     1      -4.461   4.256  25.165  0.00  0.00    -0.273 OA
ATOM      2  C   UNL     1      -4.023   3.612  24.892  0.00  0.00    +0.242 C 
ATOM     22  N   UNL     1      -3.200   3.624  24.937  0.00  0.00    -0.201 NA
BRANCH  22  23
ATOM     23  C   UNL     1      -2.814   4.280  25.256  0.00  0.00    +0.141 C 
BRANCH  23  24
ATOM     24  C   UNL     1      -1.993   4.346  25.195  0.00  0.00    -0.001 A 
ATOM     25  C   UNL     1      -1.652   5.064  24.973  0.00  0.00    -0.003 A 
ATOM     26  C   UNL     1      -0.833   5.130  24.912  0.00  0.00    -0.000 A 
ATOM     27  C   UNL     1      -0.353   4.478  25.072  0.00  0.00    -0.000 A 
ATOM     28  C   UNL     1      -0.693   3.761  25.295  0.00  0.00    -0.000 A 
ATOM     29  C   UNL     1      -1.514   3.694  25.356  0.00  0.00    -0.003 A 
ENDBRANCH  23  24
ENDBRANCH  22  23
ENDBRANCH   3   2
ENDBRANCH   4   3
BRANCH   9  10
ATOM     10  C   UNL     1      -4.455   1.308  24.512  0.00  0.00    +0.051 C 
BRANCH  10  11
ATOM     11  C   UNL     1      -4.169   0.571  24.746  0.00  0.00    +0.101 A 
ATOM     12  N   UNL     1      -3.740   0.413  25.433  0.00  0.00    -0.081 NA
ATOM     13  O   UNL     1      -3.567  -0.394  25.446  0.00  0.00    -0.352 OA
ATOM     14  C   UNL     1      -3.890  -0.735  24.768  0.00  0.00    +0.194 A 
ATOM     15  C   UNL     1      -4.262  -0.139  24.335  0.00  0.00    +0.060 A 
BRANCH  14  16
ATOM     16  C   UNL     1      -3.848  -1.531  24.559  0.00  0.00    +0.118 A 
ATOM     17  N   UNL     1      -4.275  -1.810  23.909  0.00  0.00    -0.241 NA
ATOM     18  C   UNL     1      -4.233  -2.607  23.700  0.00  0.00    +0.099 A 
ATOM     19  C   UNL     1      -3.766  -3.125  24.140  0.00  0.00    +0.021 A 
ATOM     20  C   UNL     1      -3.340  -2.846  24.789  0.00  0.00    +0.003 A 
ATOM     21  C   UNL     1      -3.381  -2.050  24.998  0.00  0.00    +0.022 A 
ENDBRANCH  14  16
ENDBRANCH  10  11
ENDBRANCH   9  10
TORSDOF 7
ENDMDL
MODEL 2
REMARK VINA RESULT:     -12.1      1.766      3.544
REMARK  Name = 
REMARK  7 active torsions:
REMARK  status: ('A' for Active; 'I' for Inactive)
REMARK    1  A    between atoms: C_2  and  C_3
REMARK    2  A    between atoms: C_3  and  C_4
REMARK    3  A    between atoms: C_9  and  C_10
REMARK    4  A    between atoms: C_10  and  C_11
REMARK    5  A    between atoms: C_14  and  C_16
REMARK    6  A    between atoms: N_22  and  C_23
REMARK    7  A    between atoms: C_23  and  C_24
REMARK                            x       y       z     vdW  Elec       q    Type
REMARK                         _______ _______ _______ _____ _____    ______ ____
ROOT
ATOM      4  C   UNL     1      -1.246   2.584  24.946  0.00  0.00    +0.012 C 
ATOM      5  C   UNL     1      -1.073   3.107  25.560  0.00  0.00    +0.019 C 
ATOM      6  C   UNL     1      -0.510   2.904  26.128  0.00  0.00    +0.089 C 
ATOM      7  N   UNL     1      -0.120   2.179  26.082  0.00  0.00    -0.218 NA
ATOM      8  C   UNL     1      -0.292   1.657  25.468  0.00  0.00    +0.089 C 
ATOM      9  C   UNL     1      -0.855   1.858  24.899  0.00  0.00    +0.024 C 
ENDROOT
BRANCH   4   3
ATOM      3  C   UNL     1      -1.809   2.786  24.378  0.00  0.00    +0.087 C 
BRANCH   3   2
ATOM      1  O   UNL     1      -2.407   4.030  24.750  0.00  0.00    -0.273 OA
ATOM      2  C   UNL     1      -2.475   3.222  24.594  0.00  0.00    +0.242 C 
ATOM     22  N   UNL     1      -3.209   2.851  24.655  0.00  0.00    -0.201 NA
BRANCH  22  23
ATOM     23  C   UNL     1      -3.875   3.287  24.871  0.00  0.00    +0.141 C 
BRANCH  23  24
ATOM     24  C   UNL     1      -4.577   2.899  25.065  0.00  0.00    -0.001 A 
ATOM     25  C   UNL     1      -4.852   2.281  24.592  0.00  0.00    -0.003 A 
ATOM     26  C   UNL     1      -5.553   1.894  24.786  0.00  0.00    -0.000 A 
ATOM     27  C   UNL     1      -5.981   2.123  25.453  0.00  0.00    -0.000 A 
ATOM     28  C   UNL     1      -5.707   2.741  25.926  0.00  0.00    -0.000 A 
ATOM     29  C   UNL     1      -5.004   3.129  25.733  0.00  0.00    -0.003 A 
ENDBRANCH  23  24
ENDBRANCH  22  23
ENDBRANCH   3   2
ENDBRANCH   4   3
BRANCH   9  10
ATOM     10  C   UNL     1      -1.028   1.336  24.286  0.00  0.00    +0.051 C 
BRANCH  10  11
ATOM     11  C   UNL     1      -1.118   0.531  24.442  0.00  0.00    +0.101 A 
ATOM     12  N   UNL     1      -0.508  -0.010  24.568  0.00  0.00    -0.081 NA
ATOM     13  O   UNL     1      -0.847  -0.750  24.705  0.00  0.00    -0.352 OA
ATOM     14  C   UNL     1      -1.667  -0.666  24.663  0.00  0.00    +0.194 A 
ATOM     15  C   UNL     1      -1.835   0.125  24.500  0.00  0.00    +0.060 A 
BRANCH  14  16
ATOM     16  C   UNL     1      -2.222  -1.268  24.765  0.00  0.00    +0.118 A 
ATOM     17  N   UNL     1      -2.078  -2.018  24.452  0.00  0.00    -0.241 NA
ATOM     18  C   UNL     1      -2.633  -2.620  24.554  0.00  0.00    +0.099 A 
ATOM     19  C   UNL     1      -3.332  -2.472  24.968  0.00  0.00    +0.021 A 
ATOM     20  C   UNL     1      -3.474  -1.722  25.280  0.00  0.00    +0.003 A 
ATOM     21  C   UNL     1      -2.920  -1.120  25.178  0.00  0.00    +0.022 A 
ENDBRANCH  14  16
ENDBRANCH  10  11
ENDBRANCH   9  10
TORSDOF 7
ENDMDL
MODEL 3
REMARK VINA RESULT:     -12.1      2.424      6.364
REMARK  Name = 
REMARK  7 active torsions:
REMARK  status: ('A' for Active; 'I' for Inactive)
REMARK    1  A    between atoms: C_2  and  C_3
REMARK    2  A    between atoms: C_3  and  C_4
REMARK    3  A    between atoms: C_9  and  C_10
REMARK    4  A    between atoms: C_10  and  C_11
REMARK    5  A    between atoms: C_14  and  C_16
REMARK    6  A    between atoms: N_22  and  C_23
REMARK    7  A    between atoms: C_23  and  C_24
REMARK                            x       y       z     vdW  Elec       q    Type
REMARK                         _______ _______ _______ _____ _____    ______ ____
ROOT
ATOM      4  C   UNL     1      -0.432  -0.215  24.726  0.00  0.00    +0.012 C 
ATOM      5  C   UNL     1      -0.049  -0.610  24.110  0.00  0.00    +0.019 C 
ATOM      6  C   UNL     1       0.349  -0.179  23.530  0.00  0.00    +0.089 C 
ATOM      7  N   UNL     1       0.365   0.645  23.565  0.00  0.00    -0.218 NA
ATOM      8  C   UNL     1      -0.018   1.039  24.180  0.00  0.00    +0.089 C 
ATOM      9  C   UNL     1      -0.417   0.609  24.761  0.00  0.00    +0.024 C 
ENDROOT
BRANCH   4   3
ATOM      3  C   UNL     1      -0.831  -0.646  25.306  0.00  0.00    +0.087 C 
BRANCH   3   2
ATOM      1  O   UNL     1      -0.730  -2.056  25.103  0.00  0.00    -0.273 OA
ATOM      2  C   UNL     1      -1.183  -1.367  25.116  0.00  0.00    +0.242 C 
ATOM     22  N   UNL     1      -1.988  -1.398  24.940  0.00  0.00    -0.201 NA
BRANCH  22  23
ATOM     23  C   UNL     1      -2.341  -2.120  24.750  0.00  0.00    +0.141 C 
BRANCH  23  24
ATOM     24  C   UNL     1      -3.106  -2.136  24.440  0.00  0.00    -0.001 A 
ATOM     25  C   UNL     1      -3.528  -1.434  24.345  0.00  0.00    -0.003 A 
ATOM     26  C   UNL     1      -4.292  -1.451  24.035  0.00  0.00    -0.000 A 
ATOM     27  C   UNL     1      -4.635  -2.170  23.821  0.00  0.00    -0.000 A 
ATOM     28  C   UNL     1      -4.213  -2.873  23.916  0.00  0.00    -0.000 A 
ATOM     29  C   UNL     1      -3.448  -2.856  24.226  0.00  0.00    -0.003 A 
ENDBRANCH  23  24
ENDBRANCH  22  23
ENDBRANCH   3   2
ENDBRANCH   4   3
BRANCH   9  10
ATOM     10  C   UNL     1      -0.800   1.003  25.376  0.00  0.00    +0.051 C 
BRANCH  10  11
ATOM     11  C   UNL     1      -0.677   1.811  25.488  0.00  0.00    +0.101 A 
ATOM     12  N   UNL     1      -0.010   2.157  25.829  0.00  0.00    -0.081 NA
ATOM     13  O   UNL     1      -0.120   2.975  25.831  0.00  0.00    -0.352 OA
ATOM     14  C   UNL     1      -0.855   3.134  25.491  0.00  0.00    +0.194 A 
ATOM     15  C   UNL     1      -1.199   2.415  25.279  0.00  0.00    +0.060 A 
BRANCH  14  16
ATOM     16  C   UNL     1      -1.187   3.881  25.381  0.00  0.00    +0.118 A 
ATOM     17  N   UNL     1      -1.957   4.031  25.637  0.00  0.00    -0.241 NA
ATOM     18  C   UNL     1      -2.290   4.778  25.527  0.00  0.00    +0.099 A 
ATOM     19  C   UNL     1      -1.852   5.375  25.163  0.00  0.00    +0.021 A 
ATOM     20  C   UNL     1      -1.082   5.225  24.908  0.00  0.00    +0.003 A 
ATOM     21  C   UNL     1      -0.750   4.478  25.017  0.00  0.00    +0.022 A 
ENDBRANCH  14  16
ENDBRANCH  10  11
ENDBRANCH   9  10
TORSDOF 7
ENDMDL
MODEL 4
REMARK VINA RESULT:     -12.1      1.285      4.756
REMARK  Name = 
REMARK  7 active torsions:
REMARK  status: ('A' for Active; 'I' for Inactive)
REMARK    1  A    between atoms: C_2  and  C_3
REMARK    2  A    between atoms: C_3  and  C_4
REMARK    3  A    between atoms: C_9  and  C_10
REMARK    4  A    between atoms: C_10  and  C_11
REMARK    5  A    between atoms: C_14  and  C_16
REMARK    6  A    between atoms: N_22  and  C_23
REMARK    7  A    between atoms: C_23  and  C_24
REMARK                            x       y       z     vdW  Elec       q    Type
REMARK                         _______ _______ _______ _____ _____    ______ ____
ROOT
ATOM      4  C   UNL     1      -4.836   2.417  24.930  0.00  0.00    +0.012 C 
ATOM      5  C   UNL     1      -5.463   2.341  25.462  0.00  0.00    +0.019 C 
ATOM      6  C   UNL     1      -5.629   2.950  25.992  0.00  0.00    +0.089 C 
ATOM      7  N   UNL     1      -5.168   3.635  25.992  0.00  0.00    -0.218 NA
ATOM      8  C   UNL     1      -4.542   3.710  25.461  0.00  0.00    +0.089 C 
ATOM      9  C   UNL     1      -4.375   3.101  24.930  0.00  0.00    +0.024 C 
ENDROOT
BRANCH   4   3
ATOM      3  C   UNL     1      -4.670   1.807  24.400  0.00  0.00    +0.087 C 
BRANCH   3   2
ATOM      1  O   UNL     1      -5.754   0.915  24.665  0.00  0.00    -0.273 OA
ATOM      2  C   UNL     1      -4.947   1.044  24.547  0.00  0.00    +0.242 C 
ATOM     22  N   UNL     1      -4.419   0.412  24.575  0.00  0.00    -0.201 NA
BRANCH  22  23
ATOM     23  C   UNL     1      -4.697  -0.351  24.722  0.00  0.00    +0.141 C 
BRANCH  23  24
ATOM     24  C   UNL     1      -4.173  -0.989  24.720  0.00  0.00    -0.001 A 
ATOM     25  C   UNL     1      -3.626  -1.075  25.332  0.00  0.00    -0.003 A 
ATOM     26  C   UNL     1      -3.103  -1.712  25.329  0.00  0.00    -0.000 A 
ATOM     27  C   UNL     1      -3.125  -2.264  24.716  0.00  0.00    -0.000 A 
ATOM     28  C   UNL     1      -3.672  -2.177  24.104  0.00  0.00    -0.000 A 
ATOM     29  C   UNL     1      -4.196  -1.539  24.106  0.00  0.00    -0.003 A 
ENDBRANCH  23  24
ENDBRANCH  22  23
ENDBRANCH   3   2
ENDBRANCH   4   3
BRANCH   9  10
ATOM     10  C   UNL     1      -3.749   3.177  24.399  0.00  0.00    +0.051 C 
BRANCH  10  11
ATOM     11  C   UNL     1      -2.995   3.369  24.675  0.00  0.00    +0.101 A 
ATOM     12  N   UNL     1      -2.720   4.127  24.845  0.00  0.00    -0.081 NA
ATOM     13  O   UNL     1      -1.939   4.063  25.105  0.00  0.00    -0.352 OA
ATOM     14  C   UNL     1      -1.732   3.265  25.094  0.00  0.00    +0.194 A 
ATOM     15  C   UNL     1      -2.385   2.835  24.829  0.00  0.00    +0.060 A 
BRANCH  14  16
ATOM     16  C   UNL     1      -1.001   2.951  25.311  0.00  0.00    +0.118 A 
ATOM     17  N   UNL     1      -0.470   2.702  24.730  0.00  0.00    -0.241 NA
ATOM     18  C   UNL     1       0.261   2.388  24.947  0.00  0.00    +0.099 A 
ATOM     19  C   UNL     1       0.462   2.322  25.745  0.00  0.00    +0.021 A 
ATOM     20  C   UNL     1      -0.069   2.571  26.325  0.00  0.00    +0.003 A 
ATOM     21  C   UNL     1      -0.800   2.885  26.108  0.00  0.00    +0.022 A 
ENDBRANCH  14  16
ENDBRANCH  10  11
ENDBRANCH   9  10
TORSDOF 7
ENDMDL
MODEL 5
REMARK VINA RESULT:     -12.0      1.702      5.140
REMARK  Name = 
REMARK  7 active torsions:
REMARK  status: ('A' for Active; 'I' for Inactive)
REMARK    1  A    between atoms: C_2  and  C_3
REMARK    2  A    between atoms: C_3  and  C_4
REMARK    3  A    between atoms: C_9  and  C_10
REMARK    4  A    between atoms: C_10  and  C_11
REMARK    5  A    between atoms: C_14  and  C_16
REMARK    6  A    between atoms: N_22  and  C_23
REMARK    7  A    between atoms: C_23  and  C_24
REMARK                            x       y       z     vdW  Elec       q    Type
REMARK                         _______ _______ _______ _____ _____    ______ ____
ROOT
ATOM      4  C   UNL     1      -0.835   1.725  24.798  0.00  0.00    +0.012 C 
ATOM      5  C   UNL     1      -0.246   1.642  25.371  0.00  0.00    +0.019 C 
ATOM      6  C   UNL     1      -0.103   2.252  25.906  0.00  0.00    +0.089 C 
ATOM      7  N   UNL     1      -0.549   2.946  25.871  0.00  0.00    -0.218 NA
ATOM      8  C   UNL     1      -1.137   3.029  25.300  0.00  0.00    +0.089 C 
ATOM      9  C   UNL     1      -1.281   2.419  24.763  0.00  0.00    +0.024 C 
ENDROOT
BRANCH   4   3
ATOM      3  C   UNL     1      -0.978   1.115  24.262  0.00  0.00    +0.087 C 
BRANCH   3   2
ATOM      1  O   UNL     1      -0.154   0.014  24.650  0.00  0.00    -0.273 OA
ATOM      2  C   UNL     1      -0.902   0.329  24.502  0.00  0.00    +0.242 C 
ATOM     22  N   UNL     1      -1.573  -0.141  24.592  0.00  0.00    -0.201 NA
BRANCH  22  23
ATOM     23  C   UNL     1      -1.497  -0.927  24.831  0.00  0.00    +0.141 C 
BRANCH  23  24
ATOM     24  C   UNL     1      -2.168  -1.404  24.902  0.00  0.00    -0.001 A 
ATOM     25  C   UNL     1      -2.775  -1.188  25.418  0.00  0.00    -0.003 A 
ATOM     26  C   UNL     1      -3.444  -1.664  25.489  0.00  0.00    -0.000 A 
ATOM     27  C   UNL     1      -3.507  -2.357  25.044  0.00  0.00    -0.000 A 
ATOM     28  C   UNL     1      -2.901  -2.572  24.528  0.00  0.00    -0.000 A 
ATOM     29  C   UNL     1      -2.230  -2.095  24.457  0.00  0.00    -0.003 A 
ENDBRANCH  23  24
ENDBRANCH  22  23
ENDBRANCH   3   2
ENDBRANCH   4   3
BRANCH   9  10
ATOM     10  C   UNL     1      -1.869   2.502  24.191  0.00  0.00    +0.051 C 
BRANCH  10  11
ATOM     11  C   UNL     1      -2.608   2.802  24.401  0.00  0.00    +0.101 A 
ATOM     12  N   UNL     1      -2.819   3.599  24.423  0.00  0.00    -0.081 NA
ATOM     13  O   UNL     1      -3.608   3.648  24.661  0.00  0.00    -0.352 OA
ATOM     14  C   UNL     1      -3.884   2.881  24.787  0.00  0.00    +0.194 A 
ATOM     15  C   UNL     1      -3.267   2.358  24.626  0.00  0.00    +0.060 A 
BRANCH  14  16
ATOM     16  C   UNL     1      -4.645   2.673  25.030  0.00  0.00    +0.118 A 
ATOM     17  N   UNL     1      -5.037   3.132  25.593  0.00  0.00    -0.241 NA
ATOM     18  C   UNL     1      -5.797   2.924  25.836  0.00  0.00    +0.099 A 
ATOM     19  C   UNL     1      -6.166   2.258  25.517  0.00  0.00    +0.021 A 
ATOM     20  C   UNL     1      -5.773   1.801  24.953  0.00  0.00    +0.003 A 
ATOM     21  C   UNL     1      -5.013   2.008  24.710  0.00  0.00    +0.022 A 
ENDBRANCH  14  16
ENDBRANCH  10  11
ENDBRANCH   9  10
TORSDOF 7
ENDMDL
MODEL 6
REMARK VINA RESULT:     -11.9      2.512      3.685
REMARK  Name = 
REMARK  7 active torsions:
REMARK  status: ('A' for Active; 'I' for Inactive)
REMARK    1  A    between atoms: C_2  and  C_3
REMARK    2  A    between atoms: C_3  and  C_4
REMARK    3  A    between atoms: C_9  and  C_10
REMARK    4  A    between atoms: C_10  and  C_11
REMARK    5  A    between atoms: C_14  and  C_16
REMARK    6  A    between atoms: N_22  and  C_23
REMARK    7  A    between atoms: C_23  and  C_24
REMARK                            x       y       z     vdW  Elec       q    Type
REMARK                         _______ _______ _______ _____ _____    ______ ____
ROOT
ATOM      4  C   UNL     1      -0.178   0.764  24.627  0.00  0.00    +0.012 C 
ATOM      5  C   UNL     1       0.255   1.149  24.038  0.00  0.00    +0.019 C 
ATOM      6  C   UNL     1       0.567   0.718  23.408  0.00  0.00    +0.089 C 
ATOM      7  N   UNL     1       0.447  -0.097  23.366  0.00  0.00    -0.218 NA
ATOM      8  C   UNL     1       0.015  -0.481  23.953  0.00  0.00    +0.089 C 
ATOM      9  C   UNL     1      -0.298  -0.051  24.584  0.00  0.00    +0.024 C 
ENDROOT
BRANCH   4   3
ATOM      3  C   UNL     1      -0.490   1.195  25.257  0.00  0.00    +0.087 C 
BRANCH   3   2
ATOM      1  O   UNL     1       0.536   2.141  25.565  0.00  0.00    -0.273 OA
ATOM      2  C   UNL     1      -0.252   1.975  25.382  0.00  0.00    +0.242 C 
ATOM     22  N   UNL     1      -0.800   2.588  25.324  0.00  0.00    -0.201 NA
BRANCH  22  23
ATOM     23  C   UNL     1      -0.562   3.368  25.450  0.00  0.00    +0.141 C 
BRANCH  23  24
ATOM     24  C   UNL     1      -1.112   3.981  25.397  0.00  0.00    -0.001 A 
ATOM     25  C   UNL     1      -1.871   3.882  25.703  0.00  0.00    -0.003 A 
ATOM     26  C   UNL     1      -2.420   4.495  25.650  0.00  0.00    -0.000 A 
ATOM     27  C   UNL     1      -2.211   5.207  25.291  0.00  0.00    -0.000 A 
ATOM     28  C   UNL     1      -1.452   5.307  24.984  0.00  0.00    -0.000 A 
ATOM     29  C   UNL     1      -0.901   4.693  25.037  0.00  0.00    -0.003 A 
ENDBRANCH  23  24
ENDBRANCH  22  23
ENDBRANCH   3   2
ENDBRANCH   4   3
BRANCH   9  10
ATOM     10  C   UNL     1      -0.730  -0.435  25.172  0.00  0.00    +0.051 C 
BRANCH  10  11
ATOM     11  C   UNL     1      -1.215  -1.073  24.977  0.00  0.00    +0.101 A 
ATOM     12  N   UNL     1      -0.993  -1.867  24.970  0.00  0.00    -0.081 NA
ATOM     13  O   UNL     1      -1.649  -2.314  24.743  0.00  0.00    -0.352 OA
ATOM     14  C   UNL     1      -2.277  -1.795  24.610  0.00  0.00    +0.194 A 
ATOM     15  C   UNL     1      -2.009  -1.028  24.755  0.00  0.00    +0.060 A 
BRANCH  14  16
ATOM     16  C   UNL     1      -3.038  -2.006  24.374  0.00  0.00    +0.118 A 
ATOM     17  N   UNL     1      -3.259  -2.801  24.356  0.00  0.00    -0.241 NA
ATOM     18  C   UNL     1      -4.021  -3.012  24.121  0.00  0.00    +0.099 A 
ATOM     19  C   UNL     1      -4.562  -2.428  23.902  0.00  0.00    +0.021 A 
ATOM     20  C   UNL     1      -4.341  -1.634  23.920  0.00  0.00    +0.003 A 
ATOM     21  C   UNL     1      -3.579  -1.423  24.156  0.00  0.00    +0.022 A 
ENDBRANCH  14  16
ENDBRANCH  10  11
ENDBRANCH   9  10
TORSDOF 7
ENDMDL
MODEL 7
REMARK VINA RESULT:     -11.8      1.947      3.579
REMARK  Name = 
REMARK  7 active torsions:
REMARK  status: ('A' for Active; 'I' for Inactive)
REMARK    1  A    between atoms: C_2  and  C_3
REMARK    2  A    between atoms: C_3  and  C_4
REMARK    3  A    between atoms: C_9  and  C_10
REMARK    4  A    between atoms: C_10  and  C_11
REMARK    5  A    between atoms: C_14  and  C_16
REMARK    6  A    between atoms: N_22  and  C_23
REMARK    7  A    between atoms: C_23  and  C_24
REMARK                            x       y       z     vdW  Elec       q    Type
REMARK                         _______ _______ _______ _____ _____    ______ ____
ROOT
ATOM      4  C   UNL     1      -0.726   1.861  25.117  0.00  0.00    +0.012 C 
ATOM      5  C   UNL     1      -0.317   2.342  24.585  0.00  0.00    +0.019 C 
ATOM      6  C   UNL     1       0.185   2.003  24.025  0.00  0.00    +0.089 C 
ATOM      7  N   UNL     1       0.279   1.184  23.997  0.00  0.00    -0.218 NA
ATOM      8  C   UNL     1      -0.130   0.704  24.527  0.00  0.00    +0.089 C 
ATOM      9  C   UNL     1      -0.633   1.042  25.088  0.00  0.00    +0.024 C 
ENDROOT
BRANCH   4   3
ATOM      3  C   UNL     1      -1.228   2.200  25.676  0.00  0.00    +0.087 C 
BRANCH   3   2
ATOM      1  O   UNL     1      -1.451   3.556  25.282  0.00  0.00    -0.273 OA
ATOM      2  C   UNL     1      -1.745   2.804  25.455  0.00  0.00    +0.242 C 
ATOM     22  N   UNL     1      -2.555   2.657  25.407  0.00  0.00    -0.201 NA
BRANCH  22  23
ATOM     23  C   UNL     1      -3.072   3.260  25.187  0.00  0.00    +0.141 C 
BRANCH  23  24
ATOM     24  C   UNL     1      -3.885   3.121  25.166  0.00  0.00    -0.001 A 
ATOM     25  C   UNL     1      -4.202   2.603  24.607  0.00  0.00    -0.003 A 
ATOM     26  C   UNL     1      -5.014   2.464  24.588  0.00  0.00    -0.000 A 
ATOM     27  C   UNL     1      -5.511   2.842  25.127  0.00  0.00    -0.000 A 
ATOM     28  C   UNL     1      -5.195   3.360  25.686  0.00  0.00    -0.000 A 
ATOM     29  C   UNL     1      -4.382   3.500  25.706  0.00  0.00    -0.003 A 
ENDBRANCH  23  24
ENDBRANCH  22  23
ENDBRANCH   3   2
ENDBRANCH   4   3
BRANCH   9  10
ATOM     10  C   UNL     1      -1.042   0.562  25.619  0.00  0.00    +0.051 C 
BRANCH  10  11
ATOM     11  C   UNL     1      -1.318  -0.177  25.378  0.00  0.00    +0.101 A 
ATOM     12  N   UNL     1      -0.877  -0.874  25.350  0.00  0.00    -0.081 NA
ATOM     13  O   UNL     1      -1.370  -1.477  25.078  0.00  0.00    -0.352 OA
ATOM     14  C   UNL     1      -2.115  -1.153  24.936  0.00  0.00    +0.194 A 
ATOM     15  C   UNL     1      -2.083  -0.350  25.122  0.00  0.00    +0.060 A 
BRANCH  14  16
ATOM     16  C   UNL     1      -2.777  -1.561  24.659  0.00  0.00    +0.118 A 
ATOM     17  N   UNL     1      -2.786  -2.386  24.668  0.00  0.00    -0.241 NA
ATOM     18  C   UNL     1      -3.448  -2.793  24.390  0.00  0.00    +0.099 A 
ATOM     19  C   UNL     1      -4.099  -2.376  24.103  0.00  0.00    +0.021 A 
ATOM     20  C   UNL     1      -4.089  -1.551  24.094  0.00  0.00    +0.003 A 
ATOM     21  C   UNL     1      -3.428  -1.144  24.372  0.00  0.00    +0.022 A 
ENDBRANCH  14  16
ENDBRANCH  10  11
ENDBRANCH   9  10
TORSDOF 7
ENDMDL
