MODEL 1
REMARK VINA RESULT:     -12.4      0.000      0.000
REMARK  Name = 
REMARK  4 active torsions:
REMARK  status: ('A' for Active; 'I' for Inactive)
REMARK    1  A    between atoms: O_2  and  C_3
REMARK    2  A    between atoms: C_7  and  C_8
REMARK    3  A    between atoms: C_8  and  N_9
REMARK    4  A    between atoms: C_12  and  C_14
REMARK                            x       y       z     vdW  Elec       q    Type
REMARK                         _______ _______ _______ _____ _____    ______ ____
ROOT
ATOM      9  N   UNL     1      -4.285   2.170  24.581  0.00  0.00    -0.269 NA
ATOM     10  C   UNL     1      -4.992   1.997  24.969  0.00  0.00    +0.073 C 
ATOM     11  C   UNL     1      -5.042   1.178  25.057  0.00  0.00    +0.025 C 
ATOM     12  C   UNL     1      -4.365   0.844  24.723  0.00  0.00    +0.064 C 
ATOM     13  C   UNL     1      -3.897   1.457  24.429  0.00  0.00    +0.079 C 
ENDROOT
BRANCH  12  14
ATOM     14  C   UNL     1      -4.187   0.039  24.690  0.00  0.00    +0.089 A 
ATOM     15  N   UNL     1      -4.397  -0.479  24.083  0.00  0.00    -0.243 NA
ATOM     16  C   UNL     1      -4.108  -1.226  24.275  0.00  0.00    +0.087 A 
ATOM     17  C   UNL     1      -3.720  -1.171  25.001  0.00  0.00    +0.048 A 
ATOM     18  S   UNL     1      -3.769  -0.389  25.257  0.00  0.00    -0.071 S 
ATOM     19  C   UNL     1      -3.372  -1.841  25.334  0.00  0.00    +0.008 A 
ATOM     20  C   UNL     1      -3.412  -2.565  24.943  0.00  0.00    +0.001 A 
ATOM     21  C   UNL     1      -3.801  -2.621  24.217  0.00  0.00    +0.002 A 
ATOM     22  C   UNL     1      -4.149  -1.952  23.883  0.00  0.00    +0.020 A 
ENDBRANCH  12  14
BRANCH   9   8
ATOM      8  C   UNL     1      -4.012   2.922  24.380  0.00  0.00    +0.099 C 
BRANCH   8   7
ATOM      3  C   UNL     1      -2.180   3.765  25.216  0.00  0.00    +0.138 A 
ATOM      4  C   UNL     1      -2.472   4.126  25.897  0.00  0.00    +0.037 A 
ATOM      5  C   UNL     1      -3.277   4.086  26.073  0.00  0.00    +0.003 A 
ATOM      6  C   UNL     1      -3.791   3.685  25.568  0.00  0.00    -0.003 A 
ATOM      7  C   UNL     1      -3.499   3.323  24.886  0.00  0.00    -0.003 A 
ATOM     23  C   UNL     1      -2.694   3.363  24.710  0.00  0.00    +0.034 A 
BRANCH   3   2
ATOM      1  C   UNL     1      -0.989   4.534  25.041  0.00  0.00    +0.252 C 
ATOM      2  O   UNL     1      -1.375   3.805  25.040  0.00  0.00    -0.471 OA
ENDBRANCH   3   2
ENDBRANCH   8   7
ENDBRANCH   9   8
TORSDOF 4
ENDMDL
MODEL 2
REMARK VINA RESULT:     -11.6      1.728      4.965
REMARK  Name = 
REMARK  4 active torsions:
REMARK  status: ('A' for Active; 'I' for Inactive)
REMARK    1  A    between atoms: O_2  and  C_3
REMARK    2  A    between atoms: C_7  and  C_8
REMARK    3  A    between atoms: C_8  and  N_9
REMARK    4  A    between atoms: C_12  and  C_14
REMARK                            x       y       z     vdW  Elec       q    Type
REMARK                         _______ _______ _______ _____ _____    ______ ____
ROOT
ATOM      9  N   UNL     1      -3.981   0.762  24.926  0.00  0.00    -0.269 NA
ATOM     10  C   UNL     1      -4.307   1.124  24.261  0.00  0.00    +0.073 C 
ATOM     11  C   UNL     1      -3.910   1.838  24.139  0.00  0.00    +0.025 C 
ATOM     12  C   UNL     1      -3.339   1.916  24.730  0.00  0.00    +0.064 C 
ATOM     13  C   UNL     1      -3.383   1.252  25.216  0.00  0.00    +0.079 C 
ENDROOT
BRANCH  12  14
ATOM     14  C   UNL     1      -2.817   2.549  24.818  0.00  0.00    +0.089 A 
ATOM     15  N   UNL     1      -2.010   2.538  24.649  0.00  0.00    -0.243 NA
ATOM     16  C   UNL     1      -1.705   3.286  24.817  0.00  0.00    +0.087 A 
ATOM     17  C   UNL     1      -2.323   3.758  25.090  0.00  0.00    +0.048 A 
ATOM     18  S   UNL     1      -3.011   3.303  25.091  0.00  0.00    -0.071 S 
ATOM     19  C   UNL     1      -2.179   4.542  25.303  0.00  0.00    +0.008 A 
ATOM     20  C   UNL     1      -1.418   4.854  25.243  0.00  0.00    +0.001 A 
ATOM     21  C   UNL     1      -0.800   4.381  24.970  0.00  0.00    +0.002 A 
ATOM     22  C   UNL     1      -0.942   3.597  24.757  0.00  0.00    +0.020 A 
ENDBRANCH  12  14
BRANCH   9   8
ATOM      8  C   UNL     1      -4.211   0.038  25.246  0.00  0.00    +0.099 C 
BRANCH   8   7
ATOM      3  C   UNL     1      -3.040  -1.751  24.804  0.00  0.00    +0.138 A 
ATOM      4  C   UNL     1      -3.478  -2.074  24.185  0.00  0.00    +0.037 A 
ATOM      5  C   UNL     1      -4.160  -1.695  23.920  0.00  0.00    +0.003 A 
ATOM      6  C   UNL     1      -4.405  -0.991  24.273  0.00  0.00    -0.003 A 
ATOM      7  C   UNL     1      -3.966  -0.667  24.893  0.00  0.00    -0.003 A 
ATOM     23  C   UNL     1      -3.284  -1.046  25.159  0.00  0.00    +0.034 A 
BRANCH   3   2
ATOM      1  C   UNL     1      -1.746  -2.297  24.541  0.00  0.00    +0.252 C 
ATOM      2  O   UNL     1      -2.357  -2.131  25.070  0.00  0.00    -0.471 OA
ENDBRANCH   3   2
ENDBRANCH   8   7
ENDBRANCH   9   8
TORSDOF 4
ENDMDL
MODEL 3
REMARK VINA RESULT:     -11.2      1.822      2.463
REMARK  Name = 
REMARK  4 active torsions:
REMARK  status: ('A' for Active; 'I' for Inactive)
REMARK    1  A    between atoms: O_2  and  C_3
REMARK    2  A    between atoms: C_7  and  C_8
REMARK    3  A    between atoms: C_8  and  N_9
REMARK    4  A    between atoms: C_12  and  C_14
REMARK                            x       y       z     vdW  Elec       q    Type
REMARK                         _______ _______ _______ _____ _____    ______ ____
ROOT
ATOM      9  N   UNL     1      -0.823   1.534  25.297  0.00  0.00    -0.269 NA
ATOM     10  C   UNL     1      -0.421   1.300  24.616  0.00  0.00    +0.073 C 
ATOM     11  C   UNL     1      -0.797   0.630  24.315  0.00  0.00    +0.025 C 
ATOM     12  C   UNL     1      -1.433   0.450  24.810  0.00  0.00    +0.064 C 
ATOM     13  C   UNL     1      -1.449   1.009  25.417  0.00  0.00    +0.079 C 
ENDROOT
BRANCH  12  14
ATOM     14  C   UNL     1      -1.959  -0.177  24.715  0.00  0.00    +0.089 A 
ATOM     15  N   UNL     1      -2.732  -0.124  24.431  0.00  0.00    -0.243 NA
ATOM     16  C   UNL     1      -3.055  -0.882  24.428  0.00  0.00    +0.087 A 
ATOM     17  C   UNL     1      -2.483  -1.405  24.709  0.00  0.00    +0.048 A 
ATOM     18  S   UNL     1      -1.806  -0.970  24.887  0.00  0.00    -0.071 S 
ATOM     19  C   UNL     1      -2.654  -2.210  24.767  0.00  0.00    +0.008 A 
ATOM     20  C   UNL     1      -3.395  -2.492  24.544  0.00  0.00    +0.001 A 
ATOM     21  C   UNL     1      -3.968  -1.969  24.262  0.00  0.00    +0.002 A 
ATOM     22  C   UNL     1      -3.799  -1.164  24.204  0.00  0.00    +0.020 A 
ENDBRANCH  12  14
BRANCH   9   8
ATOM      8  C   UNL     1      -0.634   2.179  25.775  0.00  0.00    +0.099 C 
BRANCH   8   7
ATOM      3  C   UNL     1      -2.004   3.878  25.819  0.00  0.00    +0.138 A 
ATOM      4  C   UNL     1      -1.623   4.399  25.306  0.00  0.00    +0.037 A 
ATOM      5  C   UNL     1      -0.912   4.180  24.948  0.00  0.00    +0.003 A 
ATOM      6  C   UNL     1      -0.582   3.440  25.105  0.00  0.00    -0.003 A 
ATOM      7  C   UNL     1      -0.964   2.919  25.618  0.00  0.00    -0.003 A 
ATOM     23  C   UNL     1      -1.674   3.137  25.976  0.00  0.00    +0.034 A 
BRANCH   3   2
ATOM      1  C   UNL     1      -3.424   4.024  25.761  0.00  0.00    +0.252 C 
ATOM      2  O   UNL     1      -2.715   4.097  26.176  0.00  0.00    -0.471 OA
ENDBRANCH   3   2
ENDBRANCH   8   7
ENDBRANCH   9   8
TORSDOF 4
ENDMDL
MODEL 4
REMARK VINA RESULT:     -11.0      1.736      4.688
REMARK  Name = 
REMARK  4 active torsions:
REMARK  status: ('A' for Active; 'I' for Inactive)
REMARK    1  A    between atoms: O_2  and  C_3
REMARK    2  A    between atoms: C_7  and  C_8
REMARK    3  A    between atoms: C_8  and  N_9
REMARK    4  A    between atoms: C_12  and  C_14
REMARK                            x       y       z     vdW  Elec       q    Type
REMARK                         _______ _______ _______ _____ _____    ______ ____
ROOT
ATOM      9  N   UNL     1      -3.894  -0.911  25.034  0.00  0.00    -0.269 NA
ATOM     10  C   UNL     1      -4.282  -0.887  24.306  0.00  0.00    +0.073 C 
ATOM     11  C   UNL     1      -4.561  -0.119  24.191  0.00  0.00    +0.025 C 
ATOM     12  C   UNL     1      -4.346   0.332  24.848  0.00  0.00    +0.064 C 
ATOM     13  C   UNL     1      -3.934  -0.157  25.369  0.00  0.00    +0.079 C 
ENDROOT
BRANCH  12  14
ATOM     14  C   UNL     1      -4.513   1.132  24.963  0.00  0.00    +0.089 A 
ATOM     15  N   UNL     1      -5.170   1.438  25.356  0.00  0.00    -0.243 NA
ATOM     16  C   UNL     1      -5.116   2.260  25.341  0.00  0.00    +0.087 A 
ATOM     17  C   UNL     1      -4.424   2.463  24.939  0.00  0.00    +0.048 A 
ATOM     18  S   UNL     1      -4.052   1.766  24.706  0.00  0.00    -0.071 S 
ATOM     19  C   UNL     1      -4.224   3.257  24.839  0.00  0.00    +0.008 A 
ATOM     20  C   UNL     1      -4.714   3.848  25.139  0.00  0.00    +0.001 A 
ATOM     21  C   UNL     1      -5.406   3.645  25.541  0.00  0.00    +0.002 A 
ATOM     22  C   UNL     1      -5.607   2.852  25.643  0.00  0.00    +0.020 A 
ENDBRANCH  12  14
BRANCH   9   8
ATOM      8  C   UNL     1      -3.531  -1.571  25.369  0.00  0.00    +0.099 C 
BRANCH   8   7
ATOM      3  C   UNL     1      -1.391  -1.731  24.970  0.00  0.00    +0.138 A 
ATOM      4  C   UNL     1      -1.374  -2.387  24.471  0.00  0.00    +0.037 A 
ATOM      5  C   UNL     1      -2.076  -2.771  24.271  0.00  0.00    +0.003 A 
ATOM      6  C   UNL     1      -2.795  -2.500  24.570  0.00  0.00    -0.003 A 
ATOM      7  C   UNL     1      -2.812  -1.843  25.069  0.00  0.00    -0.003 A 
ATOM     23  C   UNL     1      -2.110  -1.458  25.270  0.00  0.00    +0.034 A 
BRANCH   3   2
ATOM      1  C   UNL     1      -0.298  -0.884  24.610  0.00  0.00    +0.252 C 
ATOM      2  O   UNL     1      -0.688  -1.346  25.170  0.00  0.00    -0.471 OA
ENDBRANCH   3   2
ENDBRANCH   8   7
ENDBRANCH   9   8
TORSDOF 4
ENDMDL
MODEL 5
REMARK VINA RESULT:     -10.8      2.462      5.433
REMARK  Name = 
REMARK  4 active torsions:
REMARK  status: ('A' for Active; 'I' for Inactive)
REMARK    1  A    between atoms: O_2  and  C_3
REMARK    2  A    between atoms: C_7  and  C_8
REMARK    3  A    between atoms: C_8  and  N_9
REMARK    4  A    between atoms: C_12  and  C_14
REMARK                            x       y       z     vdW  Elec       q    Type
REMARK                         _______ _______ _______ _____ _____    ______ ____
ROOT
ATOM      9  N   UNL     1      -1.198   0.075  25.082  0.00  0.00    -0.269 NA
ATOM     10  C   UNL     1      -0.896   0.178  24.321  0.00  0.00    +0.073 C 
ATOM     11  C   UNL     1      -0.867   0.988  24.165  0.00  0.00    +0.025 C 
ATOM     12  C   UNL     1      -1.152   1.386  24.830  0.00  0.00    +0.064 C 
ATOM     13  C   UNL     1      -1.356   0.822  25.396  0.00  0.00    +0.079 C 
ENDROOT
BRANCH  12  14
ATOM     14  C   UNL     1      -1.221   2.203  24.913  0.00  0.00    +0.089 A 
ATOM     15  N   UNL     1      -1.877   2.608  25.206  0.00  0.00    -0.243 NA
ATOM     16  C   UNL     1      -1.707   3.414  25.192  0.00  0.00    +0.087 A 
ATOM     17  C   UNL     1      -0.945   3.509  24.889  0.00  0.00    +0.048 A 
ATOM     18  S   UNL     1      -0.645   2.761  24.717  0.00  0.00    -0.071 S 
ATOM     19  C   UNL     1      -0.624   4.265  24.810  0.00  0.00    +0.008 A 
ATOM     20  C   UNL     1      -1.064   4.926  25.033  0.00  0.00    +0.001 A 
ATOM     21  C   UNL     1      -1.825   4.831  25.336  0.00  0.00    +0.002 A 
ATOM     22  C   UNL     1      -2.147   4.076  25.416  0.00  0.00    +0.020 A 
ENDBRANCH  12  14
BRANCH   9   8
ATOM      8  C   UNL     1      -1.320  -0.646  25.462  0.00  0.00    +0.099 C 
BRANCH   8   7
ATOM      3  C   UNL     1      -2.957  -1.930  24.800  0.00  0.00    +0.138 A 
ATOM      4  C   UNL     1      -3.536  -1.742  25.356  0.00  0.00    +0.037 A 
ATOM      5  C   UNL     1      -3.377  -1.189  25.947  0.00  0.00    +0.003 A 
ATOM      6  C   UNL     1      -2.639  -0.824  25.983  0.00  0.00    -0.003 A 
ATOM      7  C   UNL     1      -2.059  -1.012  25.426  0.00  0.00    -0.003 A 
ATOM     23  C   UNL     1      -2.218  -1.565  24.835  0.00  0.00    +0.034 A 
BRANCH   3   2
ATOM      1  C   UNL     1      -3.884  -2.566  23.918  0.00  0.00    +0.252 C 
ATOM      2  O   UNL     1      -3.117  -2.483  24.209  0.00  0.00    -0.471 OA
ENDBRANCH   3   2
ENDBRANCH   8   7
ENDBRANCH   9   8
TORSDOF 4
ENDMDL
