MODEL 1
REMARK VINA RESULT:     -12.9      0.000      0.000
REMARK  Name = 
REMARK  6 active torsions:
REMARK  status: ('A' for Active; 'I' for Inactive)
REMARK    1  A    between atoms: C_2  and  O_5
REMARK    2  A    between atoms: O_5  and  C_6
REMARK    3  A    between atoms: C_9  and  C_10
REMARK    4  A    between atoms: C_10  and  N_11
REMARK    5  A    between atoms: C_14  and  C_16
REMARK    6  A    between atoms: C_19  and  C_21
REMARK                            x       y       z     vdW  Elec       q    Type
REMARK                         _______ _______ _______ _____ _____    ______ ____
ROOT
ATOM     11  N   UNL     1      -4.626   2.645  25.041  0.00  0.00    -0.268 NA
ATOM     12  C   UNL     1      -5.235   2.231  25.412  0.00  0.00    +0.073 C 
ATOM     13  C   UNL     1      -5.149   1.431  25.227  0.00  0.00    +0.028 C 
ATOM     14  C   UNL     1      -4.486   1.352  24.742  0.00  0.00    +0.096 C 
ATOM     15  C   UNL     1      -4.163   2.103  24.627  0.00  0.00    +0.082 C 
ENDROOT
BRANCH  14  16
ATOM     16  C   UNL     1      -4.197   0.647  24.427  0.00  0.00    +0.227 A 
ATOM     17  N   UNL     1      -3.823   0.560  23.697  0.00  0.00    -0.111 NA
ATOM     18  N   UNL     1      -3.626  -0.236  23.605  0.00  0.00    -0.107 NA
ATOM     19  C   UNL     1      -3.877  -0.640  24.279  0.00  0.00    +0.250 A 
ATOM     20  O   UNL     1      -4.230  -0.094  24.787  0.00  0.00    -0.419 OA
BRANCH  19  21
ATOM     21  C   UNL     1      -3.791  -1.449  24.420  0.00  0.00    +0.055 A 
ATOM     22  C   UNL     1      -4.135  -1.996  23.907  0.00  0.00    +0.005 A 
ATOM     23  C   UNL     1      -4.048  -2.804  24.048  0.00  0.00    +0.000 A 
ATOM     24  C   UNL     1      -3.618  -3.065  24.701  0.00  0.00    +0.000 A 
ATOM     25  C   UNL     1      -3.274  -2.518  25.214  0.00  0.00    +0.000 A 
ATOM     26  C   UNL     1      -3.360  -1.710  25.073  0.00  0.00    +0.005 A 
ENDBRANCH  19  21
ENDBRANCH  14  16
BRANCH  11  10
ATOM     10  C   UNL     1      -4.502   3.460  25.078  0.00  0.00    +0.099 C 
BRANCH  10   9
ATOM      6  C   UNL     1      -2.240   4.348  25.551  0.00  0.00    +0.147 A 
ATOM      7  C   UNL     1      -2.485   4.238  24.771  0.00  0.00    +0.037 A 
ATOM      8  C   UNL     1      -3.239   3.942  24.613  0.00  0.00    +0.000 A 
ATOM      9  C   UNL     1      -3.747   3.756  25.236  0.00  0.00    -0.006 A 
ATOM     27  C   UNL     1      -3.502   3.866  26.016  0.00  0.00    +0.000 A 
ATOM     28  C   UNL     1      -2.749   4.161  26.173  0.00  0.00    +0.037 A 
BRANCH   6   5
ATOM      5  O   UNL     1      -1.486   4.643  25.709  0.00  0.00    -0.404 OA
BRANCH   5   2
ATOM      1  F   UNL     1      -0.618   5.372  24.508  0.00  0.00    -0.133 F 
ATOM      2  C   UNL     1      -1.052   5.008  25.108  0.00  0.00    +0.575 C 
ATOM      3  F   UNL     1      -1.423   5.726  25.276  0.00  0.00    -0.133 F 
ATOM      4  F   UNL     1      -0.682   4.290  24.940  0.00  0.00    -0.133 F 
ENDBRANCH   5   2
ENDBRANCH   6   5
ENDBRANCH  10   9
ENDBRANCH  11  10
TORSDOF 6
ENDMDL
MODEL 2
REMARK VINA RESULT:     -12.9      3.378      6.274
REMARK  Name = 
REMARK  6 active torsions:
REMARK  status: ('A' for Active; 'I' for Inactive)
REMARK    1  A    between atoms: C_2  and  O_5
REMARK    2  A    between atoms: O_5  and  C_6
REMARK    3  A    between atoms: C_9  and  C_10
REMARK    4  A    between atoms: C_10  and  N_11
REMARK    5  A    between atoms: C_14  and  C_16
REMARK    6  A    between atoms: C_19  and  C_21
REMARK                            x       y       z     vdW  Elec       q    Type
REMARK                         _______ _______ _______ _____ _____    ______ ____
ROOT
ATOM     11  N   UNL     1      -0.763  -0.361  25.125  0.00  0.00    -0.268 NA
ATOM     12  C   UNL     1      -0.468  -0.197  24.372  0.00  0.00    +0.073 C 
ATOM     13  C   UNL     1      -0.330   0.615  24.324  0.00  0.00    +0.028 C 
ATOM     14  C   UNL     1      -0.540   0.952  25.048  0.00  0.00    +0.096 C 
ATOM     15  C   UNL     1      -0.807   0.348  25.543  0.00  0.00    +0.082 C 
ENDROOT
BRANCH  14  16
ATOM     16  C   UNL     1      -0.491   1.752  25.242  0.00  0.00    +0.227 A 
ATOM     17  N   UNL     1       0.141   2.120  25.625  0.00  0.00    -0.111 NA
ATOM     18  N   UNL     1      -0.042   2.920  25.708  0.00  0.00    -0.107 NA
ATOM     19  C   UNL     1      -0.788   3.047  25.377  0.00  0.00    +0.250 A 
ATOM     20  O   UNL     1      -1.065   2.325  25.089  0.00  0.00    -0.419 OA
BRANCH  19  21
ATOM     21  C   UNL     1      -1.186   3.769  25.340  0.00  0.00    +0.055 A 
ATOM     22  C   UNL     1      -0.816   4.427  25.008  0.00  0.00    +0.005 A 
ATOM     23  C   UNL     1      -1.214   5.149  24.971  0.00  0.00    +0.000 A 
ATOM     24  C   UNL     1      -1.982   5.212  25.266  0.00  0.00    +0.000 A 
ATOM     25  C   UNL     1      -2.351   4.553  25.598  0.00  0.00    +0.000 A 
ATOM     26  C   UNL     1      -1.954   3.832  25.635  0.00  0.00    +0.005 A 
ENDBRANCH  19  21
ENDBRANCH  14  16
BRANCH  11  10
ATOM     10  C   UNL     1      -0.976  -1.105  25.410  0.00  0.00    +0.099 C 
BRANCH  10   9
ATOM      6  C   UNL     1      -3.201  -2.048  24.872  0.00  0.00    +0.147 A 
ATOM      7  C   UNL     1      -2.529  -2.330  24.486  0.00  0.00    +0.037 A 
ATOM      8  C   UNL     1      -1.787  -2.016  24.666  0.00  0.00    +0.000 A 
ATOM      9  C   UNL     1      -1.718  -1.419  25.231  0.00  0.00    -0.006 A 
ATOM     27  C   UNL     1      -2.390  -1.137  25.617  0.00  0.00    +0.000 A 
ATOM     28  C   UNL     1      -3.131  -1.451  25.437  0.00  0.00    +0.037 A 
BRANCH   6   5
ATOM      5  O   UNL     1      -3.942  -2.362  24.692  0.00  0.00    -0.404 OA
BRANCH   5   2
ATOM      1  F   UNL     1      -4.638  -2.048  23.229  0.00  0.00    -0.133 F 
ATOM      2  C   UNL     1      -4.290  -2.205  23.960  0.00  0.00    +0.575 C 
ATOM      3  F   UNL     1      -4.041  -2.941  23.684  0.00  0.00    -0.133 F 
ATOM      4  F   UNL     1      -4.539  -1.468  24.236  0.00  0.00    -0.133 F 
ENDBRANCH   5   2
ENDBRANCH   6   5
ENDBRANCH  10   9
ENDBRANCH  11  10
TORSDOF 6
ENDMDL
MODEL 3
REMARK VINA RESULT:     -12.6      2.904      5.781
REMARK  Name = 
REMARK  6 active torsions:
REMARK  status: ('A' for Active; 'I' for Inactive)
REMARK    1  A    between atoms: C_2  and  O_5
REMARK    2  A    between atoms: O_5  and  C_6
REMARK    3  A    between atoms: C_9  and  C_10
REMARK    4  A    between atoms: C_10  and  N_11
REMARK    5  A    between atoms: C_14  and  C_16
REMARK    6  A    between atoms: C_19  and  C_21
REMARK                            x       y       z     vdW  Elec       q    Type
REMARK                         _______ _______ _______ _____ _____    ______ ____
ROOT
ATOM     11  N   UNL     1      -4.777   1.359  25.044  0.00  0.00    -0.268 NA
ATOM     12  C   UNL     1      -5.066   1.824  24.428  0.00  0.00    +0.073 C 
ATOM     13  C   UNL     1      -4.669   2.548  24.448  0.00  0.00    +0.028 C 
ATOM     14  C   UNL     1      -4.136   2.528  25.077  0.00  0.00    +0.096 C 
ATOM     15  C   UNL     1      -4.203   1.792  25.446  0.00  0.00    +0.082 C 
ENDROOT
BRANCH  14  16
ATOM     16  C   UNL     1      -3.625   3.136  25.299  0.00  0.00    +0.227 A 
ATOM     17  N   UNL     1      -3.747   3.670  25.917  0.00  0.00    -0.111 NA
ATOM     18  N   UNL     1      -3.100   4.182  25.943  0.00  0.00    -0.107 NA
ATOM     19  C   UNL     1      -2.578   3.964  25.341  0.00  0.00    +0.250 A 
ATOM     20  O   UNL     1      -2.903   3.318  24.944  0.00  0.00    -0.419 OA
BRANCH  19  21
ATOM     21  C   UNL     1      -1.858   4.328  25.168  0.00  0.00    +0.055 A 
ATOM     22  C   UNL     1      -1.185   3.870  25.041  0.00  0.00    +0.005 A 
ATOM     23  C   UNL     1      -0.465   4.234  24.868  0.00  0.00    +0.000 A 
ATOM     24  C   UNL     1      -0.419   5.056  24.821  0.00  0.00    +0.000 A 
ATOM     25  C   UNL     1      -1.094   5.514  24.948  0.00  0.00    +0.000 A 
ATOM     26  C   UNL     1      -1.813   5.151  25.121  0.00  0.00    +0.005 A 
ENDBRANCH  19  21
ENDBRANCH  14  16
BRANCH  11  10
ATOM     10  C   UNL     1      -5.021   0.592  25.227  0.00  0.00    +0.099 C 
BRANCH  10   9
ATOM      6  C   UNL     1      -3.628  -1.343  24.560  0.00  0.00    +0.147 A 
ATOM      7  C   UNL     1      -3.569  -1.035  25.323  0.00  0.00    +0.037 A 
ATOM      8  C   UNL     1      -4.033  -0.390  25.546  0.00  0.00    +0.000 A 
ATOM      9  C   UNL     1      -4.557  -0.053  25.004  0.00  0.00    -0.006 A 
ATOM     27  C   UNL     1      -4.617  -0.361  24.241  0.00  0.00    +0.000 A 
ATOM     28  C   UNL     1      -4.153  -1.005  24.019  0.00  0.00    +0.037 A 
BRANCH   6   5
ATOM      5  O   UNL     1      -3.164  -1.987  24.338  0.00  0.00    -0.404 OA
BRANCH   5   2
ATOM      1  F   UNL     1      -3.721  -3.524  24.571  0.00  0.00    -0.133 F 
ATOM      2  C   UNL     1      -3.443  -2.756  24.454  0.00  0.00    +0.575 C 
ATOM      3  F   UNL     1      -3.064  -2.782  25.187  0.00  0.00    -0.133 F 
ATOM      4  F   UNL     1      -3.822  -2.730  23.722  0.00  0.00    -0.133 F 
ENDBRANCH   5   2
ENDBRANCH   6   5
ENDBRANCH  10   9
ENDBRANCH  11  10
TORSDOF 6
ENDMDL
MODEL 4
REMARK VINA RESULT:     -12.3      2.344      2.952
REMARK  Name = 
REMARK  6 active torsions:
REMARK  status: ('A' for Active; 'I' for Inactive)
REMARK    1  A    between atoms: C_2  and  O_5
REMARK    2  A    between atoms: O_5  and  C_6
REMARK    3  A    between atoms: C_9  and  C_10
REMARK    4  A    between atoms: C_10  and  N_11
REMARK    5  A    between atoms: C_14  and  C_16
REMARK    6  A    between atoms: C_19  and  C_21
REMARK                            x       y       z     vdW  Elec       q    Type
REMARK                         _______ _______ _______ _____ _____    ______ ____
ROOT
ATOM     11  N   UNL     1      -0.152   1.522  24.920  0.00  0.00    -0.268 NA
ATOM     12  C   UNL     1       0.112   1.321  24.165  0.00  0.00    +0.073 C 
ATOM     13  C   UNL     1      -0.201   0.581  23.976  0.00  0.00    +0.028 C 
ATOM     14  C   UNL     1      -0.657   0.326  24.614  0.00  0.00    +0.096 C 
ATOM     15  C   UNL     1      -0.626   0.908  25.198  0.00  0.00    +0.082 C 
ENDROOT
BRANCH  14  16
ATOM     16  C   UNL     1      -1.070  -0.386  24.661  0.00  0.00    +0.227 A 
ATOM     17  N   UNL     1      -0.771  -1.103  24.939  0.00  0.00    -0.111 NA
ATOM     18  N   UNL     1      -1.371  -1.667  24.888  0.00  0.00    -0.107 NA
ATOM     19  C   UNL     1      -2.042  -1.298  24.579  0.00  0.00    +0.250 A 
ATOM     20  O   UNL     1      -1.856  -0.506  24.439  0.00  0.00    -0.419 OA
BRANCH  19  21
ATOM     21  C   UNL     1      -2.771  -1.658  24.435  0.00  0.00    +0.055 A 
ATOM     22  C   UNL     1      -3.417  -1.201  24.203  0.00  0.00    +0.005 A 
ATOM     23  C   UNL     1      -4.146  -1.560  24.060  0.00  0.00    +0.000 A 
ATOM     24  C   UNL     1      -4.228  -2.376  24.148  0.00  0.00    +0.000 A 
ATOM     25  C   UNL     1      -3.581  -2.833  24.380  0.00  0.00    +0.000 A 
ATOM     26  C   UNL     1      -2.853  -2.474  24.524  0.00  0.00    +0.005 A 
ENDBRANCH  19  21
ENDBRANCH  14  16
BRANCH  11  10
ATOM     10  C   UNL     1       0.028   2.217  25.327  0.00  0.00    +0.099 C 
BRANCH  10   9
ATOM      6  C   UNL     1      -1.700   3.967  25.613  0.00  0.00    +0.147 A 
ATOM      7  C   UNL     1      -1.208   3.977  24.951  0.00  0.00    +0.037 A 
ATOM      8  C   UNL     1      -0.632   3.394  24.855  0.00  0.00    +0.000 A 
ATOM      9  C   UNL     1      -0.548   2.801  25.422  0.00  0.00    -0.006 A 
ATOM     27  C   UNL     1      -1.040   2.791  26.085  0.00  0.00    +0.000 A 
ATOM     28  C   UNL     1      -1.615   3.374  26.180  0.00  0.00    +0.037 A 
BRANCH   6   5
ATOM      5  O   UNL     1      -2.275   4.550  25.708  0.00  0.00    -0.404 OA
BRANCH   5   2
ATOM      1  F   UNL     1      -3.856   4.123  25.917  0.00  0.00    -0.133 F 
ATOM      2  C   UNL     1      -3.066   4.336  25.813  0.00  0.00    +0.575 C 
ATOM      3  F   UNL     1      -3.149   4.245  24.997  0.00  0.00    -0.133 F 
ATOM      4  F   UNL     1      -2.983   4.428  26.628  0.00  0.00    -0.133 F 
ENDBRANCH   5   2
ENDBRANCH   6   5
ENDBRANCH  10   9
ENDBRANCH  11  10
TORSDOF 6
ENDMDL
