MODEL 1
REMARK VINA RESULT:      -9.3      0.000      0.000
REMARK  Name = 
REMARK  7 active torsions:
REMARK  status: ('A' for Active; 'I' for Inactive)
REMARK    1  A    between atoms: C_2  and  O_3
REMARK    2  A    between atoms: O_3  and  C_4
REMARK    3  A    between atoms: C_4  and  C_6
REMARK    4  A    between atoms: C_10  and  N_11
REMARK    5  A    between atoms: C_17  and  C_18
REMARK    6  A    between atoms: C_18  and  C_19
REMARK    7  A    between atoms: C_27  and  C_28
REMARK                            x       y       z     vdW  Elec       q    Type
REMARK                         _______ _______ _______ _____ _____    ______ ____
ROOT
ATOM     11  N   UNL     1      -4.224  -0.310  24.471  0.00  0.00    -0.162 NA
ATOM     12  C   UNL     1      -3.800   0.254  24.043  0.00  0.00    +0.327 C 
ATOM     13  O   UNL     1      -3.278   0.016  23.451  0.00  0.00    -0.250 OA
ATOM     14  N   UNL     1      -3.899   1.057  24.208  0.00  0.00    -0.263 N 
ATOM     15  C   UNL     1      -3.474   1.621  23.780  0.00  0.00    +0.095 C 
ATOM     16  C   UNL     1      -3.573   2.423  23.945  0.00  0.00    +0.022 C 
ATOM     17  C   UNL     1      -4.095   2.661  24.538  0.00  0.00    +0.012 C 
ATOM     27  C   UNL     1      -4.519   2.098  24.965  0.00  0.00    +0.020 C 
ATOM     30  C   UNL     1      -4.421   1.295  24.801  0.00  0.00    +0.095 C 
ENDROOT
BRANCH  11  10
ATOM      6  C   UNL     1      -3.393  -2.328  24.472  0.00  0.00    +0.077 A 
ATOM      7  C   UNL     1      -3.927  -2.716  23.976  0.00  0.00    +0.007 A 
ATOM      8  C   UNL     1      -4.559  -2.303  23.646  0.00  0.00    +0.002 A 
ATOM      9  C   UNL     1      -4.659  -1.500  23.811  0.00  0.00    +0.017 A 
ATOM     10  C   UNL     1      -4.125  -1.112  24.306  0.00  0.00    +0.075 A 
ATOM     31  C   UNL     1      -3.492  -1.526  24.637  0.00  0.00    +0.023 A 
BRANCH   6   4
ATOM      4  C   UNL     1      -2.760  -2.742  24.802  0.00  0.00    +0.341 C 
ATOM      5  O   UNL     1      -2.898  -3.310  25.384  0.00  0.00    -0.245 OA
BRANCH   4   3
ATOM      3  O   UNL     1      -1.990  -2.587  24.550  0.00  0.00    -0.445 OA
BRANCH   3   2
ATOM      1  C   UNL     1      -0.643  -2.292  24.925  0.00  0.00    +0.051 C 
ATOM      2  C   UNL     1      -1.360  -2.673  25.075  0.00  0.00    +0.209 C 
ENDBRANCH   3   2
ENDBRANCH   4   3
ENDBRANCH   6   4
ENDBRANCH  11  10
BRANCH  27  28
ATOM     28  C   UNL     1      -5.041   2.336  25.558  0.00  0.00    +0.002 C 
ATOM     29  C   UNL     1      -5.776   1.967  25.634  0.00  0.00    +0.000 C 
ENDBRANCH  27  28
BRANCH  17  18
ATOM     18  C   UNL     1      -4.193   3.464  24.702  0.00  0.00    +0.087 C 
BRANCH  18  19
ATOM     19  C   UNL     1      -3.554   3.981  24.627  0.00  0.00    +0.247 C 
ATOM     20  O   UNL     1      -3.501   4.478  23.969  0.00  0.00    -0.273 OA
ATOM     21  N   UNL     1      -2.969   4.002  25.207  0.00  0.00    -0.154 NA
ATOM     22  C   UNL     1      -2.330   4.518  25.132  0.00  0.00    +0.186 A 
ATOM     23  N   UNL     1      -1.706   4.600  25.666  0.00  0.00    -0.221 NA
ATOM     24  C   UNL     1      -1.194   5.176  25.373  0.00  0.00    +0.108 A 
ATOM     25  C   UNL     1      -1.501   5.451  24.658  0.00  0.00    +0.059 A 
ATOM     26  S   UNL     1      -2.203   5.044  24.509  0.00  0.00    -0.049 S 
ENDBRANCH  18  19
ENDBRANCH  17  18
TORSDOF 7
ENDMDL
MODEL 2
REMARK VINA RESULT:      -9.1      3.791      5.255
REMARK  Name = 
REMARK  7 active torsions:
REMARK  status: ('A' for Active; 'I' for Inactive)
REMARK    1  A    between atoms: C_2  and  O_3
REMARK    2  A    between atoms: O_3  and  C_4
REMARK    3  A    between atoms: C_4  and  C_6
REMARK    4  A    between atoms: C_10  and  N_11
REMARK    5  A    between atoms: C_17  and  C_18
REMARK    6  A    between atoms: C_18  and  C_19
REMARK    7  A    between atoms: C_27  and  C_28
REMARK                            x       y       z     vdW  Elec       q    Type
REMARK                         _______ _______ _______ _____ _____    ______ ____
ROOT
ATOM     11  N   UNL     1       0.735  -0.031  23.395  0.00  0.00    -0.162 NA
ATOM     12  C   UNL     1       0.150   0.547  23.321  0.00  0.00    +0.327 C 
ATOM     13  O   UNL     1       0.231   1.146  22.759  0.00  0.00    -0.250 OA
ATOM     14  N   UNL     1      -0.514   0.525  23.809  0.00  0.00    -0.263 N 
ATOM     15  C   UNL     1      -1.099   1.104  23.735  0.00  0.00    +0.095 C 
ATOM     16  C   UNL     1      -1.763   1.082  24.224  0.00  0.00    +0.022 C 
ATOM     17  C   UNL     1      -1.844   0.483  24.785  0.00  0.00    +0.012 C 
ATOM     27  C   UNL     1      -1.260  -0.094  24.859  0.00  0.00    +0.020 C 
ATOM     30  C   UNL     1      -0.595  -0.073  24.371  0.00  0.00    +0.095 C 
ENDROOT
BRANCH  11  10
ATOM      6  C   UNL     1       2.773   0.328  22.700  0.00  0.00    +0.077 A 
ATOM      7  C   UNL     1       2.729   0.034  21.931  0.00  0.00    +0.007 A 
ATOM      8  C   UNL     1       2.021  -0.281  21.649  0.00  0.00    +0.002 A 
ATOM      9  C   UNL     1       1.356  -0.303  22.137  0.00  0.00    +0.017 A 
ATOM     10  C   UNL     1       1.399  -0.010  22.906  0.00  0.00    +0.075 A 
ATOM     31  C   UNL     1       2.108   0.306  23.189  0.00  0.00    +0.023 A 
BRANCH   6   4
ATOM      4  C   UNL     1       3.481   0.643  22.983  0.00  0.00    +0.341 C 
ATOM      5  O   UNL     1       3.545   1.454  23.123  0.00  0.00    -0.245 OA
BRANCH   4   3
ATOM      3  O   UNL     1       4.126   0.148  23.124  0.00  0.00    -0.445 OA
BRANCH   3   2
ATOM      1  C   UNL     1       5.477  -0.030  23.554  0.00  0.00    +0.051 C 
ATOM      2  C   UNL     1       4.847   0.469  23.364  0.00  0.00    +0.209 C 
ENDBRANCH   3   2
ENDBRANCH   4   3
ENDBRANCH   6   4
ENDBRANCH  11  10
BRANCH  27  28
ATOM     28  C   UNL     1      -1.340  -0.693  25.421  0.00  0.00    +0.002 C 
ATOM     29  C   UNL     1      -0.971  -1.422  25.303  0.00  0.00    +0.000 C 
ENDBRANCH  27  28
BRANCH  17  18
ATOM     18  C   UNL     1      -2.509   0.463  25.273  0.00  0.00    +0.087 C 
BRANCH  18  19
ATOM     19  C   UNL     1      -3.097   1.036  25.193  0.00  0.00    +0.247 C 
ATOM     20  O   UNL     1      -2.899   1.837  25.226  0.00  0.00    -0.273 OA
ATOM     21  N   UNL     1      -3.882   0.810  25.079  0.00  0.00    -0.154 NA
ATOM     22  C   UNL     1      -4.469   1.383  24.999  0.00  0.00    +0.186 A 
ATOM     23  N   UNL     1      -5.274   1.240  24.883  0.00  0.00    -0.221 NA
ATOM     24  C   UNL     1      -5.657   1.969  24.833  0.00  0.00    +0.108 A 
ATOM     25  C   UNL     1      -5.090   2.562  24.918  0.00  0.00    +0.059 A 
ATOM     26  S   UNL     1      -4.356   2.200  25.020  0.00  0.00    -0.049 S 
ENDBRANCH  18  19
ENDBRANCH  17  18
TORSDOF 7
ENDMDL
MODEL 3
REMARK VINA RESULT:      -9.1      3.323      5.749
REMARK  Name = 
REMARK  7 active torsions:
REMARK  status: ('A' for Active; 'I' for Inactive)
REMARK    1  A    between atoms: C_2  and  O_3
REMARK    2  A    between atoms: O_3  and  C_4
REMARK    3  A    between atoms: C_4  and  C_6
REMARK    4  A    between atoms: C_10  and  N_11
REMARK    5  A    between atoms: C_17  and  C_18
REMARK    6  A    between atoms: C_18  and  C_19
REMARK    7  A    between atoms: C_27  and  C_28
REMARK                            x       y       z     vdW  Elec       q    Type
REMARK                         _______ _______ _______ _____ _____    ______ ____
ROOT
ATOM     11  N   UNL     1      -2.060   2.166  25.188  0.00  0.00    -0.162 NA
ATOM     12  C   UNL     1      -1.606   2.210  24.500  0.00  0.00    +0.327 C 
ATOM     13  O   UNL     1      -1.636   2.886  24.028  0.00  0.00    -0.250 OA
ATOM     14  N   UNL     1      -1.121   1.578  24.285  0.00  0.00    -0.263 N 
ATOM     15  C   UNL     1      -0.667   1.622  23.596  0.00  0.00    +0.095 C 
ATOM     16  C   UNL     1      -0.183   0.990  23.381  0.00  0.00    +0.022 C 
ATOM     17  C   UNL     1      -0.153   0.314  23.853  0.00  0.00    +0.012 C 
ATOM     27  C   UNL     1      -0.606   0.270  24.540  0.00  0.00    +0.020 C 
ATOM     30  C   UNL     1      -1.091   0.902  24.757  0.00  0.00    +0.095 C 
ENDROOT
BRANCH  11  10
ATOM      6  C   UNL     1      -3.846   3.374  25.524  0.00  0.00    +0.077 A 
ATOM      7  C   UNL     1      -3.513   4.062  25.833  0.00  0.00    +0.007 A 
ATOM      8  C   UNL     1      -2.696   4.119  25.927  0.00  0.00    +0.002 A 
ATOM      9  C   UNL     1      -2.211   3.487  25.712  0.00  0.00    +0.017 A 
ATOM     10  C   UNL     1      -2.544   2.798  25.403  0.00  0.00    +0.075 A 
ATOM     31  C   UNL     1      -3.362   2.741  25.309  0.00  0.00    +0.023 A 
BRANCH   6   4
ATOM      4  C   UNL     1      -4.665   3.317  25.430  0.00  0.00    +0.341 C 
ATOM      5  O   UNL     1      -5.130   3.998  25.441  0.00  0.00    -0.245 OA
BRANCH   4   3
ATOM      3  O   UNL     1      -5.017   2.578  25.325  0.00  0.00    -0.445 OA
BRANCH   3   2
ATOM      1  C   UNL     1      -6.189   1.789  25.115  0.00  0.00    +0.051 C 
ATOM      2  C   UNL     1      -5.838   2.515  25.292  0.00  0.00    +0.209 C 
ENDBRANCH   3   2
ENDBRANCH   4   3
ENDBRANCH   6   4
ENDBRANCH  11  10
BRANCH  27  28
ATOM     28  C   UNL     1      -0.575  -0.406  25.012  0.00  0.00    +0.002 C 
ATOM     29  C   UNL     1      -1.231  -0.625  25.463  0.00  0.00    +0.000 C 
ENDBRANCH  27  28
BRANCH  17  18
ATOM     18  C   UNL     1       0.332  -0.318  23.637  0.00  0.00    +0.087 C 
BRANCH  18  19
ATOM     19  C   UNL     1       0.965  -0.194  23.122  0.00  0.00    +0.247 C 
ATOM     20  O   UNL     1       0.838  -0.187  22.306  0.00  0.00    -0.273 OA
ATOM     21  N   UNL     1       1.725  -0.077  23.422  0.00  0.00    -0.154 NA
ATOM     22  C   UNL     1       2.357   0.046  22.907  0.00  0.00    +0.186 A 
ATOM     23  N   UNL     1       3.143   0.170  23.126  0.00  0.00    -0.221 NA
ATOM     24  C   UNL     1       3.587   0.268  22.438  0.00  0.00    +0.108 A 
ATOM     25  C   UNL     1       3.075   0.205  21.794  0.00  0.00    +0.059 A 
ATOM     26  S   UNL     1       2.316   0.068  22.084  0.00  0.00    -0.049 S 
ENDBRANCH  18  19
ENDBRANCH  17  18
TORSDOF 7
ENDMDL
MODEL 4
REMARK VINA RESULT:      -8.8      3.049      4.375
REMARK  Name = 
REMARK  7 active torsions:
REMARK  status: ('A' for Active; 'I' for Inactive)
REMARK    1  A    between atoms: C_2  and  O_3
REMARK    2  A    between atoms: O_3  and  C_4
REMARK    3  A    between atoms: C_4  and  C_6
REMARK    4  A    between atoms: C_10  and  N_11
REMARK    5  A    between atoms: C_17  and  C_18
REMARK    6  A    between atoms: C_18  and  C_19
REMARK    7  A    between atoms: C_27  and  C_28
REMARK                            x       y       z     vdW  Elec       q    Type
REMARK                         _______ _______ _______ _____ _____    ______ ____
ROOT
ATOM     11  N   UNL     1      -0.591   0.717  23.368  0.00  0.00    -0.162 NA
ATOM     12  C   UNL     1      -0.857   1.100  24.049  0.00  0.00    +0.327 C 
ATOM     13  O   UNL     1      -0.457   0.998  24.763  0.00  0.00    -0.250 OA
ATOM     14  N   UNL     1      -1.524   1.584  24.016  0.00  0.00    -0.263 N 
ATOM     15  C   UNL     1      -1.791   1.967  24.697  0.00  0.00    +0.095 C 
ATOM     16  C   UNL     1      -2.458   2.451  24.663  0.00  0.00    +0.022 C 
ATOM     17  C   UNL     1      -2.859   2.553  23.949  0.00  0.00    +0.012 C 
ATOM     27  C   UNL     1      -2.592   2.170  23.269  0.00  0.00    +0.020 C 
ATOM     30  C   UNL     1      -1.925   1.686  23.302  0.00  0.00    +0.095 C 
ENDROOT
BRANCH  11  10
ATOM      6  C   UNL     1       1.412  -0.063  22.988  0.00  0.00    +0.077 A 
ATOM      7  C   UNL     1       1.411  -0.734  23.469  0.00  0.00    +0.007 A 
ATOM      8  C   UNL     1       0.744  -0.920  23.916  0.00  0.00    +0.002 A 
ATOM      9  C   UNL     1       0.076  -0.437  23.883  0.00  0.00    +0.017 A 
ATOM     10  C   UNL     1       0.076   0.233  23.402  0.00  0.00    +0.075 A 
ATOM     31  C   UNL     1       0.744   0.421  22.954  0.00  0.00    +0.023 A 
BRANCH   6   4
ATOM      4  C   UNL     1       2.080   0.124  22.541  0.00  0.00    +0.341 C 
ATOM      5  O   UNL     1       2.113  -0.083  21.743  0.00  0.00    -0.245 OA
BRANCH   4   3
ATOM      3  O   UNL     1       2.714   0.517  22.892  0.00  0.00    -0.445 OA
BRANCH   3   2
ATOM      1  C   UNL     1       4.076   0.946  22.852  0.00  0.00    +0.051 C 
ATOM      2  C   UNL     1       3.423   0.605  22.480  0.00  0.00    +0.209 C 
ENDBRANCH   3   2
ENDBRANCH   4   3
ENDBRANCH   6   4
ENDBRANCH  11  10
BRANCH  27  28
ATOM     28  C   UNL     1      -2.993   2.272  22.555  0.00  0.00    +0.002 C 
ATOM     29  C   UNL     1      -2.604   2.134  21.840  0.00  0.00    +0.000 C 
ENDBRANCH  27  28
BRANCH  17  18
ATOM     18  C   UNL     1      -3.526   3.037  23.916  0.00  0.00    +0.087 C 
BRANCH  18  19
ATOM     19  C   UNL     1      -4.094   2.997  24.514  0.00  0.00    +0.247 C 
ATOM     20  O   UNL     1      -4.016   3.464  25.190  0.00  0.00    -0.273 OA
ATOM     21  N   UNL     1      -4.740   2.490  24.435  0.00  0.00    -0.154 NA
ATOM     22  C   UNL     1      -5.308   2.449  25.033  0.00  0.00    +0.186 A 
ATOM     23  N   UNL     1      -5.980   1.971  25.031  0.00  0.00    -0.221 NA
ATOM     24  C   UNL     1      -6.391   2.106  25.733  0.00  0.00    +0.108 A 
ATOM     25  C   UNL     1      -5.973   2.668  26.168  0.00  0.00    +0.059 A 
ATOM     26  S   UNL     1      -5.304   2.880  25.736  0.00  0.00    -0.049 S 
ENDBRANCH  18  19
ENDBRANCH  17  18
TORSDOF 7
ENDMDL
MODEL 5
REMARK VINA RESULT:      -8.7      3.983      5.454
REMARK  Name = 
REMARK  7 active torsions:
REMARK  status: ('A' for Active; 'I' for Inactive)
REMARK    1  A    between atoms: C_2  and  O_3
REMARK    2  A    between atoms: O_3  and  C_4
REMARK    3  A    between atoms: C_4  and  C_6
REMARK    4  A    between atoms: C_10  and  N_11
REMARK    5  A    between atoms: C_17  and  C_18
REMARK    6  A    between atoms: C_18  and  C_19
REMARK    7  A    between atoms: C_27  and  C_28
REMARK                            x       y       z     vdW  Elec       q    Type
REMARK                         _______ _______ _______ _____ _____    ______ ____
ROOT
ATOM     11  N   UNL     1      -1.432   0.097  24.792  0.00  0.00    -0.162 NA
ATOM     12  C   UNL     1      -0.930  -0.350  24.312  0.00  0.00    +0.327 C 
ATOM     13  O   UNL     1      -1.105  -1.141  24.155  0.00  0.00    -0.250 OA
ATOM     14  N   UNL     1      -0.253  -0.005  23.991  0.00  0.00    -0.263 N 
ATOM     15  C   UNL     1       0.249  -0.452  23.511  0.00  0.00    +0.095 C 
ATOM     16  C   UNL     1       0.925  -0.107  23.189  0.00  0.00    +0.022 C 
ATOM     17  C   UNL     1       1.101   0.684  23.347  0.00  0.00    +0.012 C 
ATOM     27  C   UNL     1       0.599   1.130  23.826  0.00  0.00    +0.020 C 
ATOM     30  C   UNL     1      -0.078   0.786  24.148  0.00  0.00    +0.095 C 
ENDROOT
BRANCH  11  10
ATOM      6  C   UNL     1      -3.533  -0.320  25.214  0.00  0.00    +0.077 A 
ATOM      7  C   UNL     1      -3.464  -0.938  25.756  0.00  0.00    +0.007 A 
ATOM      8  C   UNL     1      -2.718  -1.211  25.977  0.00  0.00    +0.002 A 
ATOM      9  C   UNL     1      -2.040  -0.867  25.656  0.00  0.00    +0.017 A 
ATOM     10  C   UNL     1      -2.109  -0.249  25.113  0.00  0.00    +0.075 A 
ATOM     31  C   UNL     1      -2.856   0.025  24.892  0.00  0.00    +0.023 A 
BRANCH   6   4
ATOM      4  C   UNL     1      -4.280  -0.046  24.993  0.00  0.00    +0.341 C 
ATOM      5  O   UNL     1      -4.714  -0.450  24.419  0.00  0.00    -0.245 OA
BRANCH   4   3
ATOM      3  O   UNL     1      -4.591   0.631  25.345  0.00  0.00    -0.445 OA
BRANCH   3   2
ATOM      1  C   UNL     1      -5.521   1.716  25.333  0.00  0.00    +0.051 C 
ATOM      2  C   UNL     1      -5.224   1.025  24.993  0.00  0.00    +0.209 C 
ENDBRANCH   3   2
ENDBRANCH   4   3
ENDBRANCH   6   4
ENDBRANCH  11  10
BRANCH  27  28
ATOM     28  C   UNL     1       0.774   1.920  23.984  0.00  0.00    +0.002 C 
ATOM     29  C   UNL     1       0.226   2.394  24.380  0.00  0.00    +0.000 C 
ENDBRANCH  27  28
BRANCH  17  18
ATOM     18  C   UNL     1       1.778   1.028  23.025  0.00  0.00    +0.087 C 
BRANCH  18  19
ATOM     19  C   UNL     1       2.492   0.615  23.029  0.00  0.00    +0.247 C 
ATOM     20  O   UNL     1       2.503  -0.192  22.854  0.00  0.00    -0.273 OA
ATOM     21  N   UNL     1       3.195   1.007  23.208  0.00  0.00    -0.154 NA
ATOM     22  C   UNL     1       3.909   0.593  23.212  0.00  0.00    +0.186 A 
ATOM     23  N   UNL     1       4.652   0.911  23.380  0.00  0.00    -0.221 NA
ATOM     24  C   UNL     1       5.207   0.304  23.321  0.00  0.00    +0.108 A 
ATOM     25  C   UNL     1       4.807  -0.389  23.117  0.00  0.00    +0.059 A 
ATOM     26  S   UNL     1       4.005  -0.210  23.050  0.00  0.00    -0.049 S 
ENDBRANCH  18  19
ENDBRANCH  17  18
TORSDOF 7
ENDMDL
MODEL 6
REMARK VINA RESULT:      -7.3     13.787     15.405
REMARK  Name = 
REMARK  7 active torsions:
REMARK  status: ('A' for Active; 'I' for Inactive)
REMARK    1  A    between atoms: C_2  and  O_3
REMARK    2  A    between atoms: O_3  and  C_4
REMARK    3  A    between atoms: C_4  and  C_6
REMARK    4  A    between atoms: C_10  and  N_11
REMARK    5  A    between atoms: C_17  and  C_18
REMARK    6  A    between atoms: C_18  and  C_19
REMARK    7  A    between atoms: C_27  and  C_28
REMARK                            x       y       z     vdW  Elec       q    Type
REMARK                         _______ _______ _______ _____ _____    ______ ____
ROOT
ATOM     11  N   UNL     1      -7.408  -9.984  16.307  0.00  0.00    -0.162 NA
ATOM     12  C   UNL     1      -7.135 -10.031  15.530  0.00  0.00    +0.327 C 
ATOM     13  O   UNL     1      -7.661  -9.939  14.901  0.00  0.00    -0.250 OA
ATOM     14  N   UNL     1      -6.335 -10.171  15.382  0.00  0.00    -0.263 N 
ATOM     15  C   UNL     1      -6.062 -10.219  14.604  0.00  0.00    +0.095 C 
ATOM     16  C   UNL     1      -5.263 -10.358  14.457  0.00  0.00    +0.022 C 
ATOM     17  C   UNL     1      -4.737 -10.451  15.086  0.00  0.00    +0.012 C 
ATOM     27  C   UNL     1      -5.010 -10.404  15.862  0.00  0.00    +0.020 C 
ATOM     30  C   UNL     1      -5.809 -10.264  16.011  0.00  0.00    +0.095 C 
ENDROOT
BRANCH  11  10
ATOM      6  C   UNL     1      -9.280  -8.930  16.694  0.00  0.00    +0.077 A 
ATOM      7  C   UNL     1      -9.807  -9.563  16.750  0.00  0.00    +0.007 A 
ATOM      8  C   UNL     1      -9.534 -10.335  16.658  0.00  0.00    +0.002 A 
ATOM      9  C   UNL     1      -8.734 -10.477  16.511  0.00  0.00    +0.017 A 
ATOM     10  C   UNL     1      -8.208  -9.844  16.455  0.00  0.00    +0.075 A 
ATOM     31  C   UNL     1      -8.480  -9.070  16.547  0.00  0.00    +0.023 A 
BRANCH   6   4
ATOM      4  C   UNL     1      -9.553  -8.157  16.786  0.00  0.00    +0.341 C 
ATOM      5  O   UNL     1      -9.556  -7.806  17.533  0.00  0.00    -0.245 OA
BRANCH   4   3
ATOM      3  O   UNL     1      -9.822  -7.734  16.131  0.00  0.00    -0.445 OA
BRANCH   3   2
ATOM      1  C   UNL     1     -10.497  -6.597  15.590  0.00  0.00    +0.051 C 
ATOM      2  C   UNL     1     -10.151  -6.985  16.231  0.00  0.00    +0.209 C 
ENDBRANCH   3   2
ENDBRANCH   4   3
ENDBRANCH   6   4
ENDBRANCH  11  10
BRANCH  27  28
ATOM     28  C   UNL     1      -4.484 -10.497  16.491  0.00  0.00    +0.002 C 
ATOM     29  C   UNL     1      -4.618 -10.101  17.203  0.00  0.00    +0.000 C 
ENDBRANCH  27  28
BRANCH  17  18
ATOM     18  C   UNL     1      -3.937 -10.591  14.937  0.00  0.00    +0.087 C 
BRANCH  18  19
ATOM     19  C   UNL     1      -3.659 -10.603  14.160  0.00  0.00    +0.247 C 
ATOM     20  O   UNL     1      -4.173 -10.781  13.539  0.00  0.00    -0.273 OA
ATOM     21  N   UNL     1      -2.866 -10.436  14.003  0.00  0.00    -0.154 NA
ATOM     22  C   UNL     1      -2.588 -10.448  13.226  0.00  0.00    +0.186 A 
ATOM     23  N   UNL     1      -1.813 -10.294  12.987  0.00  0.00    -0.221 NA
ATOM     24  C   UNL     1      -1.782 -10.366  12.166  0.00  0.00    +0.108 A 
ATOM     25  C   UNL     1      -2.536 -10.565  11.898  0.00  0.00    +0.059 A 
ATOM     26  S   UNL     1      -3.034 -10.615  12.554  0.00  0.00    -0.049 S 
ENDBRANCH  18  19
ENDBRANCH  17  18
TORSDOF 7
ENDMDL
MODEL 7
REMARK VINA RESULT:      -6.6     14.173     16.403
REMARK  Name = 
REMARK  7 active torsions:
REMARK  status: ('A' for Active; 'I' for Inactive)
REMARK    1  A    between atoms: C_2  and  O_3
REMARK    2  A    between atoms: O_3  and  C_4
REMARK    3  A    between atoms: C_4  and  C_6
REMARK    4  A    between atoms: C_10  and  N_11
REMARK    5  A    between atoms: C_17  and  C_18
REMARK    6  A    between atoms: C_18  and  C_19
REMARK    7  A    between atoms: C_27  and  C_28
REMARK                            x       y       z     vdW  Elec       q    Type
REMARK                         _______ _______ _______ _____ _____    ______ ____
ROOT
ATOM     11  N   UNL     1      -7.477 -10.208  14.825  0.00  0.00    -0.162 NA
ATOM     12  C   UNL     1      -7.451  -9.932  14.047  0.00  0.00    +0.327 C 
ATOM     13  O   UNL     1      -8.131  -9.626  13.694  0.00  0.00    -0.250 OA
ATOM     14  N   UNL     1      -6.743  -9.962  13.624  0.00  0.00    -0.263 N 
ATOM     15  C   UNL     1      -6.717  -9.685  12.846  0.00  0.00    +0.095 C 
ATOM     16  C   UNL     1      -6.010  -9.715  12.422  0.00  0.00    +0.022 C 
ATOM     17  C   UNL     1      -5.329 -10.020  12.775  0.00  0.00    +0.012 C 
ATOM     27  C   UNL     1      -5.356 -10.296  13.552  0.00  0.00    +0.020 C 
ATOM     30  C   UNL     1      -6.063 -10.267  13.976  0.00  0.00    +0.095 C 
ENDROOT
BRANCH  11  10
ATOM      6  C   UNL     1      -9.042  -9.515  16.179  0.00  0.00    +0.077 A 
ATOM      7  C   UNL     1      -9.599 -10.118  16.096  0.00  0.00    +0.007 A 
ATOM      8  C   UNL     1      -9.449 -10.750  15.589  0.00  0.00    +0.002 A 
ATOM      9  C   UNL     1      -8.742 -10.781  15.165  0.00  0.00    +0.017 A 
ATOM     10  C   UNL     1      -8.184 -10.178  15.248  0.00  0.00    +0.075 A 
ATOM     31  C   UNL     1      -8.335  -9.545  15.756  0.00  0.00    +0.023 A 
BRANCH   6   4
ATOM      4  C   UNL     1      -9.192  -8.881  16.687  0.00  0.00    +0.341 C 
ATOM      5  O   UNL     1      -8.770  -8.809  17.392  0.00  0.00    -0.245 OA
BRANCH   4   3
ATOM      3  O   UNL     1      -9.764  -8.322  16.489  0.00  0.00    -0.445 OA
BRANCH   3   2
ATOM      1  C   UNL     1     -10.550  -7.181  16.838  0.00  0.00    +0.051 C 
ATOM      2  C   UNL     1      -9.948  -7.716  17.018  0.00  0.00    +0.209 C 
ENDBRANCH   3   2
ENDBRANCH   4   3
ENDBRANCH   6   4
ENDBRANCH  11  10
BRANCH  27  28
ATOM     28  C   UNL     1      -4.676 -10.602  13.905  0.00  0.00    +0.002 C 
ATOM     29  C   UNL     1      -4.589 -10.575  14.725  0.00  0.00    +0.000 C 
ENDBRANCH  27  28
BRANCH  17  18
ATOM     18  C   UNL     1      -4.622 -10.050  12.351  0.00  0.00    +0.087 C 
BRANCH  18  19
ATOM     19  C   UNL     1      -4.636 -10.019  11.526  0.00  0.00    +0.247 C 
ATOM     20  O   UNL     1      -5.051 -10.589  11.098  0.00  0.00    -0.273 OA
ATOM     21  N   UNL     1      -4.234  -9.418  11.129  0.00  0.00    -0.154 NA
ATOM     22  C   UNL     1      -4.247  -9.387  10.305  0.00  0.00    +0.186 A 
ATOM     23  N   UNL     1      -3.873  -8.821   9.835  0.00  0.00    -0.221 NA
ATOM     24  C   UNL     1      -4.031  -9.001   9.046  0.00  0.00    +0.108 A 
ATOM     25  C   UNL     1      -4.503  -9.677   9.028  0.00  0.00    +0.059 A 
ATOM     26  S   UNL     1      -4.636  -9.915   9.806  0.00  0.00    -0.049 S 
ENDBRANCH  18  19
ENDBRANCH  17  18
TORSDOF 7
ENDMDL
MODEL 8
REMARK VINA RESULT:      -6.1     13.766     15.887
REMARK  Name = 
REMARK  7 active torsions:
REMARK  status: ('A' for Active; 'I' for Inactive)
REMARK    1  A    between atoms: C_2  and  O_3
REMARK    2  A    between atoms: O_3  and  C_4
REMARK    3  A    between atoms: C_4  and  C_6
REMARK    4  A    between atoms: C_10  and  N_11
REMARK    5  A    between atoms: C_17  and  C_18
REMARK    6  A    between atoms: C_18  and  C_19
REMARK    7  A    between atoms: C_27  and  C_28
REMARK                            x       y       z     vdW  Elec       q    Type
REMARK                         _______ _______ _______ _____ _____    ______ ____
ROOT
ATOM     11  N   UNL     1      -6.447 -10.010  15.749  0.00  0.00    -0.162 NA
ATOM     12  C   UNL     1      -6.637  -9.941  14.949  0.00  0.00    +0.327 C 
ATOM     13  O   UNL     1      -7.401  -9.727  14.723  0.00  0.00    -0.250 OA
ATOM     14  N   UNL     1      -6.062 -10.087  14.375  0.00  0.00    -0.263 N 
ATOM     15  C   UNL     1      -6.252 -10.018  13.575  0.00  0.00    +0.095 C 
ATOM     16  C   UNL     1      -5.677 -10.164  13.001  0.00  0.00    +0.022 C 
ATOM     17  C   UNL     1      -4.913 -10.378  13.227  0.00  0.00    +0.012 C 
ATOM     27  C   UNL     1      -4.724 -10.447  14.027  0.00  0.00    +0.020 C 
ATOM     30  C   UNL     1      -5.298 -10.301  14.601  0.00  0.00    +0.095 C 
ENDROOT
BRANCH  11  10
ATOM      6  C   UNL     1      -7.566 -10.114  17.620  0.00  0.00    +0.077 A 
ATOM      7  C   UNL     1      -8.170  -9.573  17.471  0.00  0.00    +0.007 A 
ATOM      8  C   UNL     1      -8.200  -9.177  16.748  0.00  0.00    +0.002 A 
ATOM      9  C   UNL     1      -7.626  -9.322  16.174  0.00  0.00    +0.017 A 
ATOM     10  C   UNL     1      -7.021  -9.864  16.323  0.00  0.00    +0.075 A 
ATOM     31  C   UNL     1      -6.991 -10.260  17.047  0.00  0.00    +0.023 A 
BRANCH   6   4
ATOM      4  C   UNL     1      -7.536 -10.510  18.344  0.00  0.00    +0.341 C 
ATOM      5  O   UNL     1      -8.233 -10.765  18.704  0.00  0.00    -0.245 OA
BRANCH   4   3
ATOM      3  O   UNL     1      -6.808 -10.651  18.706  0.00  0.00    -0.445 OA
BRANCH   3   2
ATOM      1  C   UNL     1      -6.040 -10.779  19.904  0.00  0.00    +0.051 C 
ATOM      2  C   UNL     1      -6.771 -10.772  19.521  0.00  0.00    +0.209 C 
ENDBRANCH   3   2
ENDBRANCH   4   3
ENDBRANCH   6   4
ENDBRANCH  11  10
BRANCH  27  28
ATOM     28  C   UNL     1      -3.960 -10.661  14.253  0.00  0.00    +0.002 C 
ATOM     29  C   UNL     1      -3.761 -10.697  15.053  0.00  0.00    +0.000 C 
ENDBRANCH  27  28
BRANCH  17  18
ATOM     18  C   UNL     1      -4.339 -10.524  12.653  0.00  0.00    +0.087 C 
BRANCH  18  19
ATOM     19  C   UNL     1      -4.384 -10.146  11.921  0.00  0.00    +0.247 C 
ATOM     20  O   UNL     1      -4.687  -9.380  11.869  0.00  0.00    -0.273 OA
ATOM     21  N   UNL     1      -4.126 -10.533  11.239  0.00  0.00    -0.154 NA
ATOM     22  C   UNL     1      -4.171 -10.155  10.507  0.00  0.00    +0.186 A 
ATOM     23  N   UNL     1      -3.935 -10.472   9.783  0.00  0.00    -0.221 NA
ATOM     24  C   UNL     1      -4.078  -9.907   9.200  0.00  0.00    +0.108 A 
ATOM     25  C   UNL     1      -4.401  -9.241   9.563  0.00  0.00    +0.059 A 
ATOM     26  S   UNL     1      -4.459  -9.394  10.371  0.00  0.00    -0.049 S 
ENDBRANCH  18  19
ENDBRANCH  17  18
TORSDOF 7
ENDMDL
MODEL 9
REMARK VINA RESULT:      -6.1     14.421     16.956
REMARK  Name = 
REMARK  7 active torsions:
REMARK  status: ('A' for Active; 'I' for Inactive)
REMARK    1  A    between atoms: C_2  and  O_3
REMARK    2  A    between atoms: O_3  and  C_4
REMARK    3  A    between atoms: C_4  and  C_6
REMARK    4  A    between atoms: C_10  and  N_11
REMARK    5  A    between atoms: C_17  and  C_18
REMARK    6  A    between atoms: C_18  and  C_19
REMARK    7  A    between atoms: C_27  and  C_28
REMARK                            x       y       z     vdW  Elec       q    Type
REMARK                         _______ _______ _______ _____ _____    ______ ____
ROOT
ATOM     11  N   UNL     1      -5.544  -9.684  13.345  0.00  0.00    -0.162 NA
ATOM     12  C   UNL     1      -6.182 -10.012  12.936  0.00  0.00    +0.327 C 
ATOM     13  O   UNL     1      -6.641 -10.600  13.290  0.00  0.00    -0.250 OA
ATOM     14  N   UNL     1      -6.360  -9.753  12.174  0.00  0.00    -0.263 N 
ATOM     15  C   UNL     1      -6.999 -10.081  11.765  0.00  0.00    +0.095 C 
ATOM     16  C   UNL     1      -7.177  -9.821  11.003  0.00  0.00    +0.022 C 
ATOM     17  C   UNL     1      -6.718  -9.234  10.649  0.00  0.00    +0.012 C 
ATOM     27  C   UNL     1      -6.081  -8.906  11.057  0.00  0.00    +0.020 C 
ATOM     30  C   UNL     1      -5.902  -9.165  11.820  0.00  0.00    +0.095 C 
ENDROOT
BRANCH  11  10
ATOM      6  C   UNL     1      -5.588  -9.885  15.517  0.00  0.00    +0.077 A 
ATOM      7  C   UNL     1      -5.010 -10.463  15.632  0.00  0.00    +0.007 A 
ATOM      8  C   UNL     1      -4.611 -10.781  14.985  0.00  0.00    +0.002 A 
ATOM      9  C   UNL     1      -4.788 -10.522  14.222  0.00  0.00    +0.017 A 
ATOM     10  C   UNL     1      -5.366  -9.944  14.107  0.00  0.00    +0.075 A 
ATOM     31  C   UNL     1      -5.766  -9.626  14.755  0.00  0.00    +0.023 A 
BRANCH   6   4
ATOM      4  C   UNL     1      -5.988  -9.567  16.165  0.00  0.00    +0.341 C 
ATOM      5  O   UNL     1      -5.564  -9.220  16.782  0.00  0.00    -0.245 OA
BRANCH   4   3
ATOM      3  O   UNL     1      -6.811  -9.595  16.195  0.00  0.00    -0.445 OA
BRANCH   3   2
ATOM      1  C   UNL     1      -8.030  -9.395  16.914  0.00  0.00    +0.051 C 
ATOM      2  C   UNL     1      -7.205  -9.396  16.893  0.00  0.00    +0.209 C 
ENDBRANCH   3   2
ENDBRANCH   4   3
ENDBRANCH   6   4
ENDBRANCH  11  10
BRANCH  27  28
ATOM     28  C   UNL     1      -5.622  -8.319  10.703  0.00  0.00    +0.002 C 
ATOM     29  C   UNL     1      -4.800  -8.392  10.686  0.00  0.00    +0.000 C 
ENDBRANCH  27  28
BRANCH  17  18
ATOM     18  C   UNL     1      -6.897  -8.975   9.886  0.00  0.00    +0.087 C 
BRANCH  18  19
ATOM     19  C   UNL     1      -7.684  -8.923   9.643  0.00  0.00    +0.247 C 
ATOM     20  O   UNL     1      -8.159  -9.599   9.636  0.00  0.00    -0.273 OA
ATOM     21  N   UNL     1      -7.997  -8.198   9.406  0.00  0.00    -0.154 NA
ATOM     22  C   UNL     1      -8.784  -8.147   9.163  0.00  0.00    +0.186 A 
ATOM     23  N   UNL     1      -9.170  -7.462   8.913  0.00  0.00    -0.221 NA
ATOM     24  C   UNL     1      -9.947  -7.663   8.722  0.00  0.00    +0.108 A 
ATOM     25  C   UNL     1     -10.040  -8.472   8.855  0.00  0.00    +0.059 A 
ATOM     26  S   UNL     1      -9.322  -8.771   9.127  0.00  0.00    -0.049 S 
ENDBRANCH  18  19
ENDBRANCH  17  18
TORSDOF 7
ENDMDL
