MODEL 1
REMARK VINA RESULT:     -10.1      0.000      0.000
REMARK  Name = 
REMARK  7 active torsions:
REMARK  status: ('A' for Active; 'I' for Inactive)
REMARK    1  A    between atoms: O_2  and  C_3
REMARK    2  A    between atoms: C_5  and  N_6
REMARK    3  A    between atoms: N_9  and  C_10
REMARK    4  A    between atoms: C_16  and  N_19
REMARK    5  A    between atoms: N_19  and  C_21
REMARK    6  A    between atoms: C_21  and  C_22
REMARK    7  A    between atoms: C_22  and  N_23
REMARK                            x       y       z     vdW  Elec       q    Type
REMARK                         _______ _______ _______ _____ _____    ______ ____
ROOT
ATOM     10  C   UNL     1      -3.860   1.729  24.898  0.00  0.00    +0.158 C 
ATOM     11  C   UNL     1      -4.112   2.325  24.232  0.00  0.00    +0.170 C 
ATOM     12  C   UNL     1      -3.531   2.742  23.924  0.00  0.00    +0.176 C 
ATOM     13  O   UNL     1      -3.351   3.250  23.438  0.00  0.00    -0.327 OA
ATOM     14  C   UNL     1      -3.878   2.705  23.890  0.00  0.00    +0.253 C 
ATOM     15  O   UNL     1      -4.689   2.551  23.881  0.00  0.00    -0.327 OA
ATOM     16  C   UNL     1      -3.601   2.086  24.585  0.00  0.00    +0.147 C 
ATOM     17  C   UNL     1      -3.046   1.885  24.906  0.00  0.00    +0.194 C 
ATOM     18  O   UNL     1      -2.251   1.837  25.120  0.00  0.00    -0.220 OA
ENDROOT
BRANCH  10   9
ATOM      6  N   UNL     1      -3.780   0.108  24.596  0.00  0.00    -0.161 NA
ATOM      7  C   UNL     1      -4.271   0.392  25.196  0.00  0.00    +0.344 C 
ATOM      8  O   UNL     1      -4.721  -0.134  25.644  0.00  0.00    -0.249 OA
ATOM      9  N   UNL     1      -4.311   1.202  25.347  0.00  0.00    -0.183 NA
BRANCH   6   5
ATOM      3  C   UNL     1      -3.084  -1.961  24.608  0.00  0.00    +0.140 A 
ATOM      4  C   UNL     1      -3.124  -1.151  24.761  0.00  0.00    +0.054 A 
ATOM      5  C   UNL     1      -3.739  -0.702  24.445  0.00  0.00    +0.078 A 
ATOM     26  C   UNL     1      -4.316  -1.063  23.976  0.00  0.00    +0.017 A 
ATOM     27  C   UNL     1      -4.275  -1.872  23.825  0.00  0.00    +0.004 A 
ATOM     28  C   UNL     1      -3.660  -2.321  24.140  0.00  0.00    +0.037 A 
BRANCH   3   2
ATOM      1  C   UNL     1      -1.794  -2.561  24.473  0.00  0.00    +0.252 C 
ATOM      2  O   UNL     1      -2.468  -2.410  24.924  0.00  0.00    -0.471 OA
ENDBRANCH   3   2
ENDBRANCH   6   5
ENDBRANCH  10   9
BRANCH  16  19
ATOM     19  N   UNL     1      -2.945   2.497  24.297  0.00  0.00    -0.265 NA
ATOM     20  C   UNL     1      -2.672   2.356  23.531  0.00  0.00    +0.090 C 
BRANCH  19  21
ATOM     21  C   UNL     1      -2.562   3.049  24.776  0.00  0.00    +0.090 C 
BRANCH  21  22
ATOM     22  C   UNL     1      -1.885   3.433  24.503  0.00  0.00    +0.090 C 
BRANCH  22  23
ATOM     23  N   UNL     1      -1.458   3.925  25.008  0.00  0.00    -0.269 NA
ATOM     24  C   UNL     1      -1.770   4.656  25.233  0.00  0.00    +0.090 C 
ATOM     25  C   UNL     1      -0.719   3.688  25.289  0.00  0.00    +0.090 C 
ENDBRANCH  22  23
ENDBRANCH  21  22
ENDBRANCH  19  21
ENDBRANCH  16  19
TORSDOF 7
ENDMDL
MODEL 2
REMARK VINA RESULT:      -9.7      1.266      4.262
REMARK  Name = 
REMARK  7 active torsions:
REMARK  status: ('A' for Active; 'I' for Inactive)
REMARK    1  A    between atoms: O_2  and  C_3
REMARK    2  A    between atoms: C_5  and  N_6
REMARK    3  A    between atoms: N_9  and  C_10
REMARK    4  A    between atoms: C_16  and  N_19
REMARK    5  A    between atoms: N_19  and  C_21
REMARK    6  A    between atoms: C_21  and  C_22
REMARK    7  A    between atoms: C_22  and  N_23
REMARK                            x       y       z     vdW  Elec       q    Type
REMARK                         _______ _______ _______ _____ _____    ______ ____
ROOT
ATOM     10  C   UNL     1      -4.038   1.164  24.299  0.00  0.00    +0.158 C 
ATOM     11  C   UNL     1      -4.383   0.603  24.954  0.00  0.00    +0.170 C 
ATOM     12  C   UNL     1      -4.018  -0.079  25.032  0.00  0.00    +0.176 C 
ATOM     13  O   UNL     1      -3.996  -0.709  25.392  0.00  0.00    -0.327 OA
ATOM     14  C   UNL     1      -4.287   0.095  25.173  0.00  0.00    +0.253 C 
ATOM     15  O   UNL     1      -4.899   0.578  25.444  0.00  0.00    -0.327 OA
ATOM     16  C   UNL     1      -3.916   0.670  24.485  0.00  0.00    +0.147 C 
ATOM     17  C   UNL     1      -3.423   0.678  24.029  0.00  0.00    +0.194 C 
ATOM     18  O   UNL     1      -2.775   0.424  23.587  0.00  0.00    -0.220 OA
ENDROOT
BRANCH  10   9
ATOM      6  N   UNL     1      -3.263   2.497  24.888  0.00  0.00    -0.161 NA
ATOM      7  C   UNL     1      -3.885   2.585  24.353  0.00  0.00    +0.344 C 
ATOM      8  O   UNL     1      -4.119   3.338  24.112  0.00  0.00    -0.249 OA
ATOM      9  N   UNL     1      -4.272   1.919  24.058  0.00  0.00    -0.183 NA
BRANCH   6   5
ATOM      3  C   UNL     1      -1.754   4.049  25.173  0.00  0.00    +0.140 A 
ATOM      4  C   UNL     1      -2.141   3.383  24.877  0.00  0.00    +0.054 A 
ATOM      5  C   UNL     1      -2.875   3.163  25.183  0.00  0.00    +0.078 A 
ATOM     26  C   UNL     1      -3.222   3.608  25.785  0.00  0.00    +0.017 A 
ATOM     27  C   UNL     1      -2.834   4.274  26.080  0.00  0.00    +0.004 A 
ATOM     28  C   UNL     1      -2.101   4.494  25.775  0.00  0.00    +0.037 A 
BRANCH   3   2
ATOM      1  C   UNL     1      -0.810   5.066  24.835  0.00  0.00    +0.252 C 
ATOM      2  O   UNL     1      -1.021   4.269  24.866  0.00  0.00    -0.471 OA
ENDBRANCH   3   2
ENDBRANCH   6   5
ENDBRANCH  10   9
BRANCH  16  19
ATOM     19  N   UNL     1      -3.490  -0.035  24.520  0.00  0.00    -0.265 NA
ATOM     20  C   UNL     1      -3.810  -0.727  24.204  0.00  0.00    +0.090 C 
BRANCH  19  21
ATOM     21  C   UNL     1      -2.743  -0.050  24.872  0.00  0.00    +0.090 C 
BRANCH  21  22
ATOM     22  C   UNL     1      -2.286  -0.736  24.841  0.00  0.00    +0.090 C 
BRANCH  22  23
ATOM     23  N   UNL     1      -1.507  -0.724  25.113  0.00  0.00    -0.269 NA
ATOM     24  C   UNL     1      -0.883  -0.790  24.577  0.00  0.00    +0.090 C 
ATOM     25  C   UNL     1      -1.352  -0.647  25.919  0.00  0.00    +0.090 C 
ENDBRANCH  22  23
ENDBRANCH  21  22
ENDBRANCH  19  21
ENDBRANCH  16  19
TORSDOF 7
ENDMDL
MODEL 3
REMARK VINA RESULT:      -9.6      1.555      2.628
REMARK  Name = 
REMARK  7 active torsions:
REMARK  status: ('A' for Active; 'I' for Inactive)
REMARK    1  A    between atoms: O_2  and  C_3
REMARK    2  A    between atoms: C_5  and  N_6
REMARK    3  A    between atoms: N_9  and  C_10
REMARK    4  A    between atoms: C_16  and  N_19
REMARK    5  A    between atoms: N_19  and  C_21
REMARK    6  A    between atoms: C_21  and  C_22
REMARK    7  A    between atoms: C_22  and  N_23
REMARK                            x       y       z     vdW  Elec       q    Type
REMARK                         _______ _______ _______ _____ _____    ______ ____
ROOT
ATOM     10  C   UNL     1      -0.890   1.506  24.846  0.00  0.00    +0.158 C 
ATOM     11  C   UNL     1      -0.706   2.001  25.610  0.00  0.00    +0.170 C 
ATOM     12  C   UNL     1      -0.991   2.725  25.612  0.00  0.00    +0.176 C 
ATOM     13  O   UNL     1      -1.049   3.344  25.986  0.00  0.00    -0.327 OA
ATOM     14  C   UNL     1      -0.804   2.513  25.820  0.00  0.00    +0.253 C 
ATOM     15  O   UNL     1      -0.373   1.947  26.237  0.00  0.00    -0.327 OA
ATOM     16  C   UNL     1      -1.004   2.007  25.015  0.00  0.00    +0.147 C 
ATOM     17  C   UNL     1      -1.323   2.076  24.429  0.00  0.00    +0.194 C 
ATOM     18  O   UNL     1      -1.762   2.423  23.822  0.00  0.00    -0.220 OA
ENDROOT
BRANCH  10   9
ATOM      6  N   UNL     1      -1.992   0.288  25.012  0.00  0.00    -0.161 NA
ATOM      7  C   UNL     1      -1.235   0.123  24.726  0.00  0.00    +0.344 C 
ATOM      8  O   UNL     1      -1.030  -0.649  24.525  0.00  0.00    -0.249 OA
ATOM      9  N   UNL     1      -0.685   0.732  24.643  0.00  0.00    -0.183 NA
BRANCH   6   5
ATOM      3  C   UNL     1      -3.603  -1.113  24.556  0.00  0.00    +0.140 A 
ATOM      4  C   UNL     1      -3.052  -0.505  24.472  0.00  0.00    +0.054 A 
ATOM      5  C   UNL     1      -2.543  -0.320  25.095  0.00  0.00    +0.078 A 
ATOM     26  C   UNL     1      -2.586  -0.743  25.802  0.00  0.00    +0.017 A 
ATOM     27  C   UNL     1      -3.138  -1.351  25.886  0.00  0.00    +0.004 A 
ATOM     28  C   UNL     1      -3.645  -1.536  25.264  0.00  0.00    +0.037 A 
BRANCH   3   2
ATOM      1  C   UNL     1      -4.297  -2.085  23.773  0.00  0.00    +0.252 C 
ATOM      2  O   UNL     1      -4.111  -1.298  23.933  0.00  0.00    -0.471 OA
ENDBRANCH   3   2
ENDBRANCH   6   5
ENDBRANCH  10   9
BRANCH  16  19
ATOM     19  N   UNL     1      -1.330   2.763  24.960  0.00  0.00    -0.265 NA
ATOM     20  C   UNL     1      -0.853   3.405  24.757  0.00  0.00    +0.090 C 
BRANCH  19  21
ATOM     21  C   UNL     1      -2.134   2.877  25.106  0.00  0.00    +0.090 C 
BRANCH  21  22
ATOM     22  C   UNL     1      -2.489   3.599  24.922  0.00  0.00    +0.090 C 
BRANCH  22  23
ATOM     23  N   UNL     1      -3.304   3.690  25.003  0.00  0.00    -0.269 NA
ATOM     24  C   UNL     1      -3.630   3.852  25.744  0.00  0.00    +0.090 C 
ATOM     25  C   UNL     1      -3.796   3.619  24.344  0.00  0.00    +0.090 C 
ENDBRANCH  22  23
ENDBRANCH  21  22
ENDBRANCH  19  21
ENDBRANCH  16  19
TORSDOF 7
ENDMDL
MODEL 4
REMARK VINA RESULT:      -9.6      1.346      2.186
REMARK  Name = 
REMARK  7 active torsions:
REMARK  status: ('A' for Active; 'I' for Inactive)
REMARK    1  A    between atoms: O_2  and  C_3
REMARK    2  A    between atoms: C_5  and  N_6
REMARK    3  A    between atoms: N_9  and  C_10
REMARK    4  A    between atoms: C_16  and  N_19
REMARK    5  A    between atoms: N_19  and  C_21
REMARK    6  A    between atoms: C_21  and  C_22
REMARK    7  A    between atoms: C_22  and  N_23
REMARK                            x       y       z     vdW  Elec       q    Type
REMARK                         _______ _______ _______ _____ _____    ______ ____
ROOT
ATOM     10  C   UNL     1      -2.478   1.700  24.179  0.00  0.00    +0.158 C 
ATOM     11  C   UNL     1      -2.891   2.058  23.428  0.00  0.00    +0.170 C 
ATOM     12  C   UNL     1      -3.418   2.611  23.572  0.00  0.00    +0.176 C 
ATOM     13  O   UNL     1      -3.895   3.074  23.280  0.00  0.00    -0.327 OA
ATOM     14  C   UNL     1      -3.278   2.443  23.298  0.00  0.00    +0.253 C 
ATOM     15  O   UNL     1      -2.894   1.999  22.718  0.00  0.00    -0.327 OA
ATOM     16  C   UNL     1      -2.855   2.079  24.092  0.00  0.00    +0.147 C 
ATOM     17  C   UNL     1      -2.865   2.147  24.759  0.00  0.00    +0.194 C 
ATOM     18  O   UNL     1      -3.077   2.429  25.505  0.00  0.00    -0.220 OA
ENDROOT
BRANCH  10   9
ATOM      6  N   UNL     1      -2.906   0.164  24.609  0.00  0.00    -0.161 NA
ATOM      7  C   UNL     1      -2.114   0.346  24.463  0.00  0.00    +0.344 C 
ATOM      8  O   UNL     1      -1.538  -0.239  24.531  0.00  0.00    -0.249 OA
ATOM      9  N   UNL     1      -1.901   1.113  24.248  0.00  0.00    -0.183 NA
BRANCH   6   5
ATOM      3  C   UNL     1      -3.705  -1.864  24.493  0.00  0.00    +0.140 A 
ATOM      4  C   UNL     1      -3.490  -1.097  24.277  0.00  0.00    +0.054 A 
ATOM      5  C   UNL     1      -3.121  -0.602  24.824  0.00  0.00    +0.078 A 
ATOM     26  C   UNL     1      -2.966  -0.875  25.588  0.00  0.00    +0.017 A 
ATOM     27  C   UNL     1      -3.181  -1.641  25.803  0.00  0.00    +0.004 A 
ATOM     28  C   UNL     1      -3.550  -2.136  25.256  0.00  0.00    +0.037 A 
BRANCH   3   2
ATOM      1  C   UNL     1      -3.890  -3.162  23.925  0.00  0.00    +0.252 C 
ATOM      2  O   UNL     1      -4.074  -2.358  23.945  0.00  0.00    -0.471 OA
ENDBRANCH   3   2
ENDBRANCH   6   5
ENDBRANCH  10   9
BRANCH  16  19
ATOM     19  N   UNL     1      -3.402   2.658  24.307  0.00  0.00    -0.265 NA
ATOM     20  C   UNL     1      -3.211   3.457  24.224  0.00  0.00    +0.090 C 
BRANCH  19  21
ATOM     21  C   UNL     1      -4.139   2.439  24.605  0.00  0.00    +0.090 C 
BRANCH  21  22
ATOM     22  C   UNL     1      -4.655   3.015  24.893  0.00  0.00    +0.090 C 
BRANCH  22  23
ATOM     23  N   UNL     1      -5.335   2.791  25.303  0.00  0.00    -0.269 NA
ATOM     24  C   UNL     1      -5.875   2.272  24.955  0.00  0.00    +0.090 C 
ATOM     25  C   UNL     1      -5.476   3.085  26.061  0.00  0.00    +0.090 C 
ENDBRANCH  22  23
ENDBRANCH  21  22
ENDBRANCH  19  21
ENDBRANCH  16  19
TORSDOF 7
ENDMDL
MODEL 5
REMARK VINA RESULT:      -9.5      1.176      1.600
REMARK  Name = 
REMARK  7 active torsions:
REMARK  status: ('A' for Active; 'I' for Inactive)
REMARK    1  A    between atoms: O_2  and  C_3
REMARK    2  A    between atoms: C_5  and  N_6
REMARK    3  A    between atoms: N_9  and  C_10
REMARK    4  A    between atoms: C_16  and  N_19
REMARK    5  A    between atoms: N_19  and  C_21
REMARK    6  A    between atoms: C_21  and  C_22
REMARK    7  A    between atoms: C_22  and  N_23
REMARK                            x       y       z     vdW  Elec       q    Type
REMARK                         _______ _______ _______ _____ _____    ______ ____
ROOT
ATOM     10  C   UNL     1      -4.503   2.507  24.775  0.00  0.00    +0.158 C 
ATOM     11  C   UNL     1      -4.267   3.089  25.461  0.00  0.00    +0.170 C 
ATOM     12  C   UNL     1      -3.643   3.532  25.320  0.00  0.00    +0.176 C 
ATOM     13  O   UNL     1      -3.203   4.047  25.580  0.00  0.00    -0.327 OA
ATOM     14  C   UNL     1      -3.878   3.478  25.574  0.00  0.00    +0.253 C 
ATOM     15  O   UNL     1      -4.470   3.284  26.115  0.00  0.00    -0.327 OA
ATOM     16  C   UNL     1      -4.112   2.876  24.849  0.00  0.00    +0.147 C 
ATOM     17  C   UNL     1      -3.907   2.704  24.234  0.00  0.00    +0.194 C 
ATOM     18  O   UNL     1      -3.455   2.696  23.543  0.00  0.00    -0.220 OA
ENDROOT
BRANCH  10   9
ATOM      6  N   UNL     1      -4.187   0.892  24.894  0.00  0.00    -0.161 NA
ATOM      7  C   UNL     1      -4.961   1.153  24.781  0.00  0.00    +0.344 C 
ATOM      8  O   UNL     1      -5.577   0.607  24.727  0.00  0.00    -0.249 OA
ATOM      9  N   UNL     1      -5.119   1.961  24.722  0.00  0.00    -0.183 NA
BRANCH   6   5
ATOM      3  C   UNL     1      -3.930  -1.206  24.348  0.00  0.00    +0.140 A 
ATOM      4  C   UNL     1      -4.089  -0.399  24.287  0.00  0.00    +0.054 A 
ATOM      5  C   UNL     1      -4.028   0.084  24.953  0.00  0.00    +0.078 A 
ATOM     26  C   UNL     1      -3.808  -0.240  25.680  0.00  0.00    +0.017 A 
ATOM     27  C   UNL     1      -3.650  -1.047  25.739  0.00  0.00    +0.004 A 
ATOM     28  C   UNL     1      -3.711  -1.530  25.074  0.00  0.00    +0.037 A 
BRANCH   3   2
ATOM      1  C   UNL     1      -4.123  -2.499  23.770  0.00  0.00    +0.252 C 
ATOM      2  O   UNL     1      -3.992  -1.689  23.682  0.00  0.00    -0.471 OA
ENDBRANCH   3   2
ENDBRANCH   6   5
ENDBRANCH  10   9
BRANCH  16  19
ATOM     19  N   UNL     1      -3.447   3.318  24.643  0.00  0.00    -0.265 NA
ATOM     20  C   UNL     1      -3.536   4.074  24.325  0.00  0.00    +0.090 C 
BRANCH  19  21
ATOM     21  C   UNL     1      -2.692   3.004  24.753  0.00  0.00    +0.090 C 
BRANCH  21  22
ATOM     22  C   UNL     1      -2.043   3.346  24.376  0.00  0.00    +0.090 C 
BRANCH  22  23
ATOM     23  N   UNL     1      -1.292   3.020  24.472  0.00  0.00    -0.269 NA
ATOM     24  C   UNL     1      -1.058   2.377  24.011  0.00  0.00    +0.090 C 
ATOM     25  C   UNL     1      -0.773   3.337  25.031  0.00  0.00    +0.090 C 
ENDBRANCH  22  23
ENDBRANCH  21  22
ENDBRANCH  19  21
ENDBRANCH  16  19
TORSDOF 7
ENDMDL
MODEL 6
REMARK VINA RESULT:      -9.4      1.837      4.570
REMARK  Name = 
REMARK  7 active torsions:
REMARK  status: ('A' for Active; 'I' for Inactive)
REMARK    1  A    between atoms: O_2  and  C_3
REMARK    2  A    between atoms: C_5  and  N_6
REMARK    3  A    between atoms: N_9  and  C_10
REMARK    4  A    between atoms: C_16  and  N_19
REMARK    5  A    between atoms: N_19  and  C_21
REMARK    6  A    between atoms: C_21  and  C_22
REMARK    7  A    between atoms: C_22  and  N_23
REMARK                            x       y       z     vdW  Elec       q    Type
REMARK                         _______ _______ _______ _____ _____    ______ ____
ROOT
ATOM     10  C   UNL     1      -0.987   0.499  25.171  0.00  0.00    +0.158 C 
ATOM     11  C   UNL     1      -0.593   0.035  24.470  0.00  0.00    +0.170 C 
ATOM     12  C   UNL     1      -0.714  -0.734  24.472  0.00  0.00    +0.176 C 
ATOM     13  O   UNL     1      -0.584  -1.361  24.131  0.00  0.00    -0.327 OA
ATOM     14  C   UNL     1      -0.548  -0.492  24.279  0.00  0.00    +0.253 C 
ATOM     15  O   UNL     1      -0.192   0.143  23.891  0.00  0.00    -0.327 OA
ATOM     16  C   UNL     1      -0.966  -0.020  25.018  0.00  0.00    +0.147 C 
ATOM     17  C   UNL     1      -1.344  -0.140  25.559  0.00  0.00    +0.194 C 
ATOM     18  O   UNL     1      -1.781  -0.558  26.121  0.00  0.00    -0.220 OA
ENDROOT
BRANCH  10   9
ATOM      6  N   UNL     1      -2.270   1.448  24.748  0.00  0.00    -0.161 NA
ATOM      7  C   UNL     1      -1.624   1.779  25.141  0.00  0.00    +0.344 C 
ATOM      8  O   UNL     1      -1.620   2.583  25.323  0.00  0.00    -0.249 OA
ATOM      9  N   UNL     1      -0.983   1.305  25.353  0.00  0.00    -0.183 NA
BRANCH   6   5
ATOM      3  C   UNL     1      -4.206   2.453  24.824  0.00  0.00    +0.140 A 
ATOM      4  C   UNL     1      -3.565   1.979  25.037  0.00  0.00    +0.054 A 
ATOM      5  C   UNL     1      -2.912   1.921  24.537  0.00  0.00    +0.078 A 
ATOM     26  C   UNL     1      -2.899   2.337  23.824  0.00  0.00    +0.017 A 
ATOM     27  C   UNL     1      -3.541   2.810  23.612  0.00  0.00    +0.004 A 
ATOM     28  C   UNL     1      -4.194   2.868  24.112  0.00  0.00    +0.037 A 
BRANCH   3   2
ATOM      1  C   UNL     1      -5.166   3.252  25.519  0.00  0.00    +0.252 C 
ATOM      2  O   UNL     1      -4.860   2.511  25.325  0.00  0.00    -0.471 OA
ENDBRANCH   3   2
ENDBRANCH   6   5
ENDBRANCH  10   9
BRANCH  16  19
ATOM     19  N   UNL     1      -1.128  -0.827  25.074  0.00  0.00    -0.265 NA
ATOM     20  C   UNL     1      -0.555  -1.344  25.368  0.00  0.00    +0.090 C 
BRANCH  19  21
ATOM     21  C   UNL     1      -1.863  -1.118  24.837  0.00  0.00    +0.090 C 
BRANCH  21  22
ATOM     22  C   UNL     1      -2.094  -1.880  25.053  0.00  0.00    +0.090 C 
BRANCH  22  23
ATOM     23  N   UNL     1      -2.844  -2.156  24.847  0.00  0.00    -0.269 NA
ATOM     24  C   UNL     1      -3.499  -1.957  25.308  0.00  0.00    +0.090 C 
ATOM     25  C   UNL     1      -2.939  -2.633  24.180  0.00  0.00    +0.090 C 
ENDBRANCH  22  23
ENDBRANCH  21  22
ENDBRANCH  19  21
ENDBRANCH  16  19
TORSDOF 7
ENDMDL
MODEL 7
REMARK VINA RESULT:      -9.3      1.539      4.312
REMARK  Name = 
REMARK  7 active torsions:
REMARK  status: ('A' for Active; 'I' for Inactive)
REMARK    1  A    between atoms: O_2  and  C_3
REMARK    2  A    between atoms: C_5  and  N_6
REMARK    3  A    between atoms: N_9  and  C_10
REMARK    4  A    between atoms: C_16  and  N_19
REMARK    5  A    between atoms: N_19  and  C_21
REMARK    6  A    between atoms: C_21  and  C_22
REMARK    7  A    between atoms: C_22  and  N_23
REMARK                            x       y       z     vdW  Elec       q    Type
REMARK                         _______ _______ _______ _____ _____    ______ ____
ROOT
ATOM     10  C   UNL     1      -2.400  -0.031  24.542  0.00  0.00    +0.158 C 
ATOM     11  C   UNL     1      -2.849  -0.470  25.227  0.00  0.00    +0.170 C 
ATOM     12  C   UNL     1      -3.622  -0.380  25.227  0.00  0.00    +0.176 C 
ATOM     13  O   UNL     1      -4.244  -0.547  25.562  0.00  0.00    -0.327 OA
ATOM     14  C   UNL     1      -3.374  -0.542  25.414  0.00  0.00    +0.253 C 
ATOM     15  O   UNL     1      -2.726  -0.888  25.789  0.00  0.00    -0.327 OA
ATOM     16  C   UNL     1      -2.918  -0.078  24.693  0.00  0.00    +0.147 C 
ATOM     17  C   UNL     1      -3.053   0.315  24.166  0.00  0.00    +0.194 C 
ATOM     18  O   UNL     1      -3.487   0.757  23.621  0.00  0.00    -0.220 OA
ENDROOT
BRANCH  10   9
ATOM      6  N   UNL     1      -1.502   1.269  25.018  0.00  0.00    -0.161 NA
ATOM      7  C   UNL     1      -1.146   0.654  24.600  0.00  0.00    +0.344 C 
ATOM      8  O   UNL     1      -0.342   0.688  24.420  0.00  0.00    -0.249 OA
ATOM      9  N   UNL     1      -1.595   0.004  24.362  0.00  0.00    -0.183 NA
BRANCH   6   5
ATOM      3  C   UNL     1      -0.660   3.282  25.084  0.00  0.00    +0.140 A 
ATOM      4  C   UNL     1      -1.108   2.632  24.845  0.00  0.00    +0.054 A 
ATOM      5  C   UNL     1      -1.054   1.920  25.257  0.00  0.00    +0.078 A 
ATOM     26  C   UNL     1      -0.552   1.857  25.909  0.00  0.00    +0.017 A 
ATOM     27  C   UNL     1      -0.104   2.507  26.147  0.00  0.00    +0.004 A 
ATOM     28  C   UNL     1      -0.158   3.219  25.736  0.00  0.00    +0.037 A 
BRANCH   3   2
ATOM      1  C   UNL     1      -1.050   4.655  25.033  0.00  0.00    +0.252 C 
ATOM      2  O   UNL     1      -0.714   3.995  24.672  0.00  0.00    -0.471 OA
ENDBRANCH   3   2
ENDBRANCH   6   5
ENDBRANCH  10   9
BRANCH  16  19
ATOM     19  N   UNL     1      -3.731   0.054  24.641  0.00  0.00    -0.265 NA
ATOM     20  C   UNL     1      -4.223  -0.522  24.313  0.00  0.00    +0.090 C 
BRANCH  19  21
ATOM     21  C   UNL     1      -4.053   0.761  24.918  0.00  0.00    +0.090 C 
BRANCH  21  22
ATOM     22  C   UNL     1      -4.816   0.982  24.697  0.00  0.00    +0.090 C 
BRANCH  22  23
ATOM     23  N   UNL     1      -5.129   1.700  24.957  0.00  0.00    -0.269 NA
ATOM     24  C   UNL     1      -4.902   2.405  24.593  0.00  0.00    +0.090 C 
ATOM     25  C   UNL     1      -5.669   1.713  25.580  0.00  0.00    +0.090 C 
ENDBRANCH  22  23
ENDBRANCH  21  22
ENDBRANCH  19  21
ENDBRANCH  16  19
TORSDOF 7
ENDMDL
