MODEL 1
REMARK VINA RESULT:     -12.2      0.000      0.000
REMARK  Name = 
REMARK  3 active torsions:
REMARK  status: ('A' for Active; 'I' for Inactive)
REMARK    1  A    between atoms: C_2  and  C_4
REMARK    2  A    between atoms: C_4  and  C_5
REMARK    3  A    between atoms: C_7  and  C_18
REMARK                            x       y       z     vdW  Elec       q    Type
REMARK                         _______ _______ _______ _____ _____    ______ ____
ROOT
ATOM      5  C   UNL     1      -3.827   0.849  24.869  0.00  0.00    +0.095 C 
ATOM      6  N   UNL     1      -3.071   0.917  24.545  0.00  0.00    -0.207 NA
ATOM      7  C   UNL     1      -2.695   1.591  24.253  0.00  0.00    +0.154 C 
ATOM      8  C   UNL     1      -2.981   2.363  24.213  0.00  0.00    +0.055 C 
ATOM      9  C   UNL     1      -3.715   2.653  24.455  0.00  0.00    +0.000 A 
ATOM     10  C   UNL     1      -3.937   3.444  24.385  0.00  0.00    +0.095 A 
ATOM     11  N   UNL     1      -4.703   3.522  24.683  0.00  0.00    -0.244 NA
ATOM     12  C   UNL     1      -4.954   2.779  24.937  0.00  0.00    +0.081 A 
ATOM     13  C   UNL     1      -4.343   2.241  24.797  0.00  0.00    +0.013 A 
ATOM     14  C   UNL     1      -4.393   1.438  24.981  0.00  0.00    -0.005 A 
ATOM     15  C   UNL     1      -5.143   1.190  25.339  0.00  0.00    -0.003 A 
ATOM     16  C   UNL     1      -5.754   1.726  25.480  0.00  0.00    +0.001 A 
ATOM     17  C   UNL     1      -5.659   2.521  25.279  0.00  0.00    +0.019 A 
ENDROOT
BRANCH   7  18
ATOM     18  C   UNL     1      -1.930   1.476  23.963  0.00  0.00    +0.242 C 
ATOM     19  O   UNL     1      -1.817   1.241  23.181  0.00  0.00    -0.273 OA
ATOM     20  N   UNL     1      -1.280   1.598  24.457  0.00  0.00    -0.273 N 
ATOM     21  C   UNL     1      -0.517   1.484  24.167  0.00  0.00    +0.126 C 
ATOM     22  C   UNL     1       0.134   1.605  24.660  0.00  0.00    +0.164 C 
ATOM     23  O   UNL     1       0.020   1.840  25.443  0.00  0.00    -0.350 OA
ATOM     24  C   UNL     1      -0.744   1.954  25.732  0.00  0.00    +0.164 C 
ATOM     25  C   UNL     1      -1.394   1.833  25.239  0.00  0.00    +0.126 C 
ENDBRANCH   7  18
BRANCH   5   4
ATOM      4  C   UNL     1      -4.045   0.092  25.113  0.00  0.00    +0.022 C 
BRANCH   4   2
ATOM      1  C   UNL     1      -4.128  -0.715  23.936  0.00  0.00    +0.000 C 
ATOM      2  C   UNL     1      -3.801  -0.567  24.679  0.00  0.00    +0.002 C 
ATOM      3  C   UNL     1      -3.231  -1.077  24.989  0.00  0.00    +0.000 C 
ENDBRANCH   4   2
ENDBRANCH   5   4
TORSDOF 3
ENDMDL
MODEL 2
REMARK VINA RESULT:     -11.7      1.381      3.297
REMARK  Name = 
REMARK  3 active torsions:
REMARK  status: ('A' for Active; 'I' for Inactive)
REMARK    1  A    between atoms: C_2  and  C_4
REMARK    2  A    between atoms: C_4  and  C_5
REMARK    3  A    between atoms: C_7  and  C_18
REMARK                            x       y       z     vdW  Elec       q    Type
REMARK                         _______ _______ _______ _____ _____    ______ ____
ROOT
ATOM      5  C   UNL     1      -3.321  -0.089  24.386  0.00  0.00    +0.095 C 
ATOM      6  N   UNL     1      -2.682   0.334  24.693  0.00  0.00    -0.207 NA
ATOM      7  C   UNL     1      -1.977   0.044  25.008  0.00  0.00    +0.154 C 
ATOM      8  C   UNL     1      -1.737  -0.741  25.095  0.00  0.00    +0.055 C 
ATOM      9  C   UNL     1      -2.142  -1.429  24.888  0.00  0.00    +0.000 A 
ATOM     10  C   UNL     1      -1.840  -2.187  25.004  0.00  0.00    +0.095 A 
ATOM     11  N   UNL     1      -2.398  -2.730  24.731  0.00  0.00    -0.244 NA
ATOM     12  C   UNL     1      -3.047  -2.306  24.446  0.00  0.00    +0.081 A 
ATOM     13  C   UNL     1      -2.889  -1.502  24.543  0.00  0.00    +0.013 A 
ATOM     14  C   UNL     1      -3.413  -0.905  24.320  0.00  0.00    -0.005 A 
ATOM     15  C   UNL     1      -4.157  -1.183  23.969  0.00  0.00    -0.003 A 
ATOM     16  C   UNL     1      -4.316  -1.987  23.872  0.00  0.00    +0.001 A 
ATOM     17  C   UNL     1      -3.760  -2.548  24.110  0.00  0.00    +0.019 A 
ENDROOT
BRANCH   7  18
ATOM     18  C   UNL     1      -1.441   0.614  25.272  0.00  0.00    +0.242 C 
ATOM     19  O   UNL     1      -1.508   0.921  26.034  0.00  0.00    -0.273 OA
ATOM     20  N   UNL     1      -0.839   0.875  24.772  0.00  0.00    -0.273 N 
ATOM     21  C   UNL     1      -0.304   1.445  25.035  0.00  0.00    +0.126 C 
ATOM     22  C   UNL     1       0.298   1.707  24.535  0.00  0.00    +0.164 C 
ATOM     23  O   UNL     1       0.365   1.398  23.772  0.00  0.00    -0.350 OA
ATOM     24  C   UNL     1      -0.171   0.829  23.510  0.00  0.00    +0.164 C 
ATOM     25  C   UNL     1      -0.773   0.567  24.009  0.00  0.00    +0.126 C 
ENDBRANCH   7  18
BRANCH   5   4
ATOM      4  C   UNL     1      -3.951   0.367  24.111  0.00  0.00    +0.022 C 
BRANCH   4   2
ATOM      1  C   UNL     1      -4.605   0.950  25.240  0.00  0.00    +0.000 C 
ATOM      2  C   UNL     1      -4.192   1.035  24.531  0.00  0.00    +0.002 C 
ATOM      3  C   UNL     1      -4.019   1.789  24.241  0.00  0.00    +0.000 C 
ENDBRANCH   4   2
ENDBRANCH   5   4
TORSDOF 3
ENDMDL
MODEL 3
REMARK VINA RESULT:     -11.7      1.502      3.270
REMARK  Name = 
REMARK  3 active torsions:
REMARK  status: ('A' for Active; 'I' for Inactive)
REMARK    1  A    between atoms: C_2  and  C_4
REMARK    2  A    between atoms: C_4  and  C_5
REMARK    3  A    between atoms: C_7  and  C_18
REMARK                            x       y       z     vdW  Elec       q    Type
REMARK                         _______ _______ _______ _____ _____    ______ ____
ROOT
ATOM      5  C   UNL     1      -2.891   1.128  24.366  0.00  0.00    +0.095 C 
ATOM      6  N   UNL     1      -2.921   0.373  24.696  0.00  0.00    -0.207 NA
ATOM      7  C   UNL     1      -3.551   0.006  25.084  0.00  0.00    +0.154 C 
ATOM      8  C   UNL     1      -4.304   0.304  25.237  0.00  0.00    +0.055 C 
ATOM      9  C   UNL     1      -4.615   1.042  25.039  0.00  0.00    +0.000 A 
ATOM     10  C   UNL     1      -5.384   1.276  25.225  0.00  0.00    +0.095 A 
ATOM     11  N   UNL     1      -5.494   2.043  24.941  0.00  0.00    -0.244 NA
ATOM     12  C   UNL     1      -4.792   2.283  24.580  0.00  0.00    +0.081 A 
ATOM     13  C   UNL     1      -4.249   1.665  24.641  0.00  0.00    +0.013 A 
ATOM     14  C   UNL     1      -3.481   1.702  24.341  0.00  0.00    -0.005 A 
ATOM     15  C   UNL     1      -3.277   2.450  23.949  0.00  0.00    -0.003 A 
ATOM     16  C   UNL     1      -3.819   3.069  23.888  0.00  0.00    +0.001 A 
ATOM     17  C   UNL     1      -4.577   2.985  24.204  0.00  0.00    +0.019 A 
ENDROOT
BRANCH   7  18
ATOM     18  C   UNL     1      -3.407  -0.761  25.355  0.00  0.00    +0.242 C 
ATOM     19  O   UNL     1      -3.061  -0.878  26.094  0.00  0.00    -0.273 OA
ATOM     20  N   UNL     1      -3.609  -1.409  24.885  0.00  0.00    -0.273 N 
ATOM     21  C   UNL     1      -3.465  -2.174  25.155  0.00  0.00    +0.126 C 
ATOM     22  C   UNL     1      -3.667  -2.822  24.685  0.00  0.00    +0.164 C 
ATOM     23  O   UNL     1      -4.012  -2.703  23.946  0.00  0.00    -0.350 OA
ATOM     24  C   UNL     1      -4.156  -1.938  23.676  0.00  0.00    +0.164 C 
ATOM     25  C   UNL     1      -3.954  -1.290  24.145  0.00  0.00    +0.126 C 
ENDBRANCH   7  18
BRANCH   5   4
ATOM      4  C   UNL     1      -2.174   1.335  24.014  0.00  0.00    +0.022 C 
BRANCH   4   2
ATOM      1  C   UNL     1      -1.236   1.511  25.077  0.00  0.00    +0.000 C 
ATOM      2  C   UNL     1      -1.461   1.134  24.379  0.00  0.00    +0.002 C 
ATOM      3  C   UNL     1      -0.975   0.556  24.046  0.00  0.00    +0.000 C 
ENDBRANCH   4   2
ENDBRANCH   5   4
TORSDOF 3
ENDMDL
MODEL 4
REMARK VINA RESULT:     -11.6      1.446      3.641
REMARK  Name = 
REMARK  3 active torsions:
REMARK  status: ('A' for Active; 'I' for Inactive)
REMARK    1  A    between atoms: C_2  and  C_4
REMARK    2  A    between atoms: C_4  and  C_5
REMARK    3  A    between atoms: C_7  and  C_18
REMARK                            x       y       z     vdW  Elec       q    Type
REMARK                         _______ _______ _______ _____ _____    ______ ____
ROOT
ATOM      5  C   UNL     1      -2.404  -0.324  24.976  0.00  0.00    +0.095 C 
ATOM      6  N   UNL     1      -2.620   0.384  24.613  0.00  0.00    -0.207 NA
ATOM      7  C   UNL     1      -3.248   0.528  24.097  0.00  0.00    +0.154 C 
ATOM      8  C   UNL     1      -3.815  -0.002  23.817  0.00  0.00    +0.055 C 
ATOM      9  C   UNL     1      -3.894  -0.807  23.984  0.00  0.00    +0.000 A 
ATOM     10  C   UNL     1      -4.490  -1.280  23.666  0.00  0.00    +0.095 A 
ATOM     11  N   UNL     1      -4.390  -2.046  23.958  0.00  0.00    -0.244 NA
ATOM     12  C   UNL     1      -3.732  -2.045  24.455  0.00  0.00    +0.081 A 
ATOM     13  C   UNL     1      -3.425  -1.279  24.472  0.00  0.00    +0.013 A 
ATOM     14  C   UNL     1      -2.762  -1.064  24.913  0.00  0.00    -0.005 A 
ATOM     15  C   UNL     1      -2.400  -1.709  25.369  0.00  0.00    -0.003 A 
ATOM     16  C   UNL     1      -2.706  -2.475  25.353  0.00  0.00    +0.001 A 
ATOM     17  C   UNL     1      -3.373  -2.643  24.896  0.00  0.00    +0.019 A 
ENDROOT
BRANCH   7  18
ATOM     18  C   UNL     1      -3.318   1.304  23.825  0.00  0.00    +0.242 C 
ATOM     19  O   UNL     1      -2.898   1.546  23.158  0.00  0.00    -0.273 OA
ATOM     20  N   UNL     1      -3.808   1.837  24.222  0.00  0.00    -0.273 N 
ATOM     21  C   UNL     1      -3.878   2.612  23.950  0.00  0.00    +0.126 C 
ATOM     22  C   UNL     1      -4.368   3.145  24.347  0.00  0.00    +0.164 C 
ATOM     23  O   UNL     1      -4.788   2.901  25.014  0.00  0.00    -0.350 OA
ATOM     24  C   UNL     1      -4.717   2.126  25.285  0.00  0.00    +0.164 C 
ATOM     25  C   UNL     1      -4.228   1.593  24.889  0.00  0.00    +0.126 C 
ENDBRANCH   7  18
BRANCH   5   4
ATOM      4  C   UNL     1      -1.742  -0.287  25.466  0.00  0.00    +0.022 C 
BRANCH   4   2
ATOM      1  C   UNL     1      -0.597  -0.108  24.629  0.00  0.00    +0.000 C 
ATOM      2  C   UNL     1      -1.085   0.158  25.239  0.00  0.00    +0.002 C 
ATOM      3  C   UNL     1      -0.916   0.870  25.623  0.00  0.00    +0.000 C 
ENDBRANCH   4   2
ENDBRANCH   5   4
TORSDOF 3
ENDMDL
MODEL 5
REMARK VINA RESULT:     -11.4      1.452      2.666
REMARK  Name = 
REMARK  3 active torsions:
REMARK  status: ('A' for Active; 'I' for Inactive)
REMARK    1  A    between atoms: C_2  and  C_4
REMARK    2  A    between atoms: C_4  and  C_5
REMARK    3  A    between atoms: C_7  and  C_18
REMARK                            x       y       z     vdW  Elec       q    Type
REMARK                         _______ _______ _______ _____ _____    ______ ____
ROOT
ATOM      5  C   UNL     1      -2.131   2.755  25.282  0.00  0.00    +0.095 C 
ATOM      6  N   UNL     1      -1.715   2.137  24.927  0.00  0.00    -0.207 NA
ATOM      7  C   UNL     1      -2.009   1.513  24.474  0.00  0.00    +0.154 C 
ATOM      8  C   UNL     1      -2.790   1.353  24.264  0.00  0.00    +0.055 C 
ATOM      9  C   UNL     1      -3.472   1.777  24.455  0.00  0.00    +0.000 A 
ATOM     10  C   UNL     1      -4.228   1.558  24.209  0.00  0.00    +0.095 A 
ATOM     11  N   UNL     1      -4.763   2.112  24.506  0.00  0.00    -0.244 NA
ATOM     12  C   UNL     1      -4.338   2.673  24.935  0.00  0.00    +0.081 A 
ATOM     13  C   UNL     1      -3.539   2.467  24.904  0.00  0.00    +0.013 A 
ATOM     14  C   UNL     1      -2.942   2.902  25.271  0.00  0.00    -0.005 A 
ATOM     15  C   UNL     1      -3.214   3.605  25.702  0.00  0.00    -0.003 A 
ATOM     16  C   UNL     1      -4.012   3.812  25.734  0.00  0.00    +0.001 A 
ATOM     17  C   UNL     1      -4.574   3.346  25.350  0.00  0.00    +0.019 A 
ENDROOT
BRANCH   7  18
ATOM     18  C   UNL     1      -1.446   0.979  24.194  0.00  0.00    +0.242 C 
ATOM     19  O   UNL     1      -1.063   1.121  23.478  0.00  0.00    -0.273 OA
ATOM     20  N   UNL     1      -1.267   0.301  24.631  0.00  0.00    -0.273 N 
ATOM     21  C   UNL     1      -0.705  -0.232  24.351  0.00  0.00    +0.126 C 
ATOM     22  C   UNL     1      -0.526  -0.910  24.788  0.00  0.00    +0.164 C 
ATOM     23  O   UNL     1      -0.910  -1.052  25.504  0.00  0.00    -0.350 OA
ATOM     24  C   UNL     1      -1.472  -0.517  25.783  0.00  0.00    +0.164 C 
ATOM     25  C   UNL     1      -1.651   0.159  25.347  0.00  0.00    +0.126 C 
ENDBRANCH   7  18
BRANCH   5   4
ATOM      4  C   UNL     1      -1.674   3.298  25.702  0.00  0.00    +0.022 C 
BRANCH   4   2
ATOM      1  C   UNL     1      -0.862   4.046  24.795  0.00  0.00    +0.000 C 
ATOM      2  C   UNL     1      -0.928   3.514  25.422  0.00  0.00    +0.002 C 
ATOM      3  C   UNL     1      -0.250   3.198  25.769  0.00  0.00    +0.000 C 
ENDBRANCH   4   2
ENDBRANCH   5   4
TORSDOF 3
ENDMDL
MODEL 6
REMARK VINA RESULT:     -11.1      1.349      2.063
REMARK  Name = 
REMARK  3 active torsions:
REMARK  status: ('A' for Active; 'I' for Inactive)
REMARK    1  A    between atoms: C_2  and  C_4
REMARK    2  A    between atoms: C_4  and  C_5
REMARK    3  A    between atoms: C_7  and  C_18
REMARK                            x       y       z     vdW  Elec       q    Type
REMARK                         _______ _______ _______ _____ _____    ______ ____
ROOT
ATOM      5  C   UNL     1      -3.182   1.347  24.540  0.00  0.00    +0.095 C 
ATOM      6  N   UNL     1      -2.570   0.822  24.717  0.00  0.00    -0.207 NA
ATOM      7  C   UNL     1      -1.835   0.985  25.056  0.00  0.00    +0.154 C 
ATOM      8  C   UNL     1      -1.532   1.711  25.301  0.00  0.00    +0.055 C 
ATOM      9  C   UNL     1      -1.888   2.455  25.269  0.00  0.00    +0.000 A 
ATOM     10  C   UNL     1      -1.523   3.146  25.535  0.00  0.00    +0.095 A 
ATOM     11  N   UNL     1      -2.045   3.773  25.413  0.00  0.00    -0.244 NA
ATOM     12  C   UNL     1      -2.732   3.471  25.071  0.00  0.00    +0.081 A 
ATOM     13  C   UNL     1      -2.635   2.656  24.982  0.00  0.00    +0.013 A 
ATOM     14  C   UNL     1      -3.211   2.162  24.658  0.00  0.00    -0.005 A 
ATOM     15  C   UNL     1      -3.941   2.562  24.411  0.00  0.00    -0.003 A 
ATOM     16  C   UNL     1      -4.038   3.377  24.500  0.00  0.00    +0.001 A 
ATOM     17  C   UNL     1      -3.433   3.831  24.830  0.00  0.00    +0.019 A 
ENDROOT
BRANCH   7  18
ATOM     18  C   UNL     1      -1.339   0.334  25.163  0.00  0.00    +0.242 C 
ATOM     19  O   UNL     1      -1.399  -0.121  25.848  0.00  0.00    -0.273 OA
ATOM     20  N   UNL     1      -0.783   0.140  24.585  0.00  0.00    -0.273 N 
ATOM     21  C   UNL     1      -0.287  -0.509  24.692  0.00  0.00    +0.126 C 
ATOM     22  C   UNL     1       0.269  -0.703  24.114  0.00  0.00    +0.164 C 
ATOM     23  O   UNL     1       0.329  -0.247  23.429  0.00  0.00    -0.350 OA
ATOM     24  C   UNL     1      -0.167   0.403  23.323  0.00  0.00    +0.164 C 
ATOM     25  C   UNL     1      -0.723   0.597  23.900  0.00  0.00    +0.126 C 
ENDBRANCH   7  18
BRANCH   5   4
ATOM      4  C   UNL     1      -3.854   1.010  24.200  0.00  0.00    +0.022 C 
BRANCH   4   2
ATOM      1  C   UNL     1      -4.478   0.202  25.201  0.00  0.00    +0.000 C 
ATOM      2  C   UNL     1      -4.122   0.273  24.459  0.00  0.00    +0.002 C 
ATOM      3  C   UNL     1      -4.036  -0.391  23.977  0.00  0.00    +0.000 C 
ENDBRANCH   4   2
ENDBRANCH   5   4
TORSDOF 3
ENDMDL
MODEL 7
REMARK VINA RESULT:     -11.0      1.576      3.349
REMARK  Name = 
REMARK  3 active torsions:
REMARK  status: ('A' for Active; 'I' for Inactive)
REMARK    1  A    between atoms: C_2  and  C_4
REMARK    2  A    between atoms: C_4  and  C_5
REMARK    3  A    between atoms: C_7  and  C_18
REMARK                            x       y       z     vdW  Elec       q    Type
REMARK                         _______ _______ _______ _____ _____    ______ ____
ROOT
ATOM      5  C   UNL     1      -2.724  -0.056  24.670  0.00  0.00    +0.095 C 
ATOM      6  N   UNL     1      -2.995   0.649  24.338  0.00  0.00    -0.207 NA
ATOM      7  C   UNL     1      -2.560   1.241  23.961  0.00  0.00    +0.154 C 
ATOM      8  C   UNL     1      -1.748   1.273  23.823  0.00  0.00    +0.055 C 
ATOM      9  C   UNL     1      -1.169   0.722  24.028  0.00  0.00    +0.000 A 
ATOM     10  C   UNL     1      -0.368   0.819  23.857  0.00  0.00    +0.095 A 
ATOM     11  N   UNL     1       0.037   0.160  24.145  0.00  0.00    -0.244 NA
ATOM     12  C   UNL     1      -0.514  -0.345  24.494  0.00  0.00    +0.081 A 
ATOM     13  C   UNL     1      -1.260   0.002  24.421  0.00  0.00    +0.013 A 
ATOM     14  C   UNL     1      -1.953  -0.343  24.707  0.00  0.00    -0.005 A 
ATOM     15  C   UNL     1      -1.845  -1.112  25.097  0.00  0.00    -0.003 A 
ATOM     16  C   UNL     1      -1.100  -1.460  25.170  0.00  0.00    +0.001 A 
ATOM     17  C   UNL     1      -0.435  -1.075  24.868  0.00  0.00    +0.019 A 
ENDROOT
BRANCH   7  18
ATOM     18  C   UNL     1      -2.997   1.885  23.686  0.00  0.00    +0.242 C 
ATOM     19  O   UNL     1      -3.314   1.872  22.925  0.00  0.00    -0.273 OA
ATOM     20  N   UNL     1      -3.114   2.541  24.172  0.00  0.00    -0.273 N 
ATOM     21  C   UNL     1      -3.550   3.185  23.897  0.00  0.00    +0.126 C 
ATOM     22  C   UNL     1      -3.668   3.841  24.384  0.00  0.00    +0.164 C 
ATOM     23  O   UNL     1      -3.349   3.853  25.145  0.00  0.00    -0.350 OA
ATOM     24  C   UNL     1      -2.914   3.209  25.419  0.00  0.00    +0.164 C 
ATOM     25  C   UNL     1      -2.796   2.553  24.933  0.00  0.00    +0.126 C 
ENDBRANCH   7  18
BRANCH   5   4
ATOM      4  C   UNL     1      -3.302  -0.536  25.010  0.00  0.00    +0.022 C 
BRANCH   4   2
ATOM      1  C   UNL     1      -4.106  -1.116  23.980  0.00  0.00    +0.000 C 
ATOM      2  C   UNL     1      -4.035  -0.625  24.639  0.00  0.00    +0.002 C 
ATOM      3  C   UNL     1      -4.695  -0.223  24.928  0.00  0.00    +0.000 C 
ENDBRANCH   4   2
ENDBRANCH   5   4
TORSDOF 3
ENDMDL
MODEL 8
REMARK VINA RESULT:     -10.9      1.337      3.492
REMARK  Name = 
REMARK  3 active torsions:
REMARK  status: ('A' for Active; 'I' for Inactive)
REMARK    1  A    between atoms: C_2  and  C_4
REMARK    2  A    between atoms: C_4  and  C_5
REMARK    3  A    between atoms: C_7  and  C_18
REMARK                            x       y       z     vdW  Elec       q    Type
REMARK                         _______ _______ _______ _____ _____    ______ ____
ROOT
ATOM      5  C   UNL     1      -2.982   2.491  24.987  0.00  0.00    +0.095 C 
ATOM      6  N   UNL     1      -3.239   1.798  24.620  0.00  0.00    -0.207 NA
ATOM      7  C   UNL     1      -2.786   1.195  24.286  0.00  0.00    +0.154 C 
ATOM      8  C   UNL     1      -1.965   1.137  24.236  0.00  0.00    +0.055 C 
ATOM      9  C   UNL     1      -1.393   1.666  24.507  0.00  0.00    +0.000 A 
ATOM     10  C   UNL     1      -0.582   1.543  24.422  0.00  0.00    +0.095 A 
ATOM     11  N   UNL     1      -0.189   2.187  24.758  0.00  0.00    -0.244 NA
ATOM     12  C   UNL     1      -0.758   2.707  25.051  0.00  0.00    +0.081 A 
ATOM     13  C   UNL     1      -1.503   2.386  24.896  0.00  0.00    +0.013 A 
ATOM     14  C   UNL     1      -2.211   2.753  25.109  0.00  0.00    -0.005 A 
ATOM     15  C   UNL     1      -2.120   3.515  25.516  0.00  0.00    -0.003 A 
ATOM     16  C   UNL     1      -1.377   3.837  25.672  0.00  0.00    +0.001 A 
ATOM     17  C   UNL     1      -0.696   3.432  25.439  0.00  0.00    +0.019 A 
ENDROOT
BRANCH   7  18
ATOM     18  C   UNL     1      -3.211   0.568  23.959  0.00  0.00    +0.242 C 
ATOM     19  O   UNL     1      -3.463   0.605  23.175  0.00  0.00    -0.273 OA
ATOM     20  N   UNL     1      -3.382  -0.097  24.417  0.00  0.00    -0.273 N 
ATOM     21  C   UNL     1      -3.807  -0.724  24.090  0.00  0.00    +0.126 C 
ATOM     22  C   UNL     1      -3.979  -1.389  24.549  0.00  0.00    +0.164 C 
ATOM     23  O   UNL     1      -3.726  -1.426  25.333  0.00  0.00    -0.350 OA
ATOM     24  C   UNL     1      -3.301  -0.798  25.659  0.00  0.00    +0.164 C 
ATOM     25  C   UNL     1      -3.129  -0.134  25.202  0.00  0.00    +0.126 C 
ENDBRANCH   7  18
BRANCH   5   4
ATOM      4  C   UNL     1      -3.578   2.988  25.267  0.00  0.00    +0.022 C 
BRANCH   4   2
ATOM      1  C   UNL     1      -4.231   3.520  24.112  0.00  0.00    +0.000 C 
ATOM      2  C   UNL     1      -4.264   3.102  24.823  0.00  0.00    +0.002 C 
ATOM      3  C   UNL     1      -4.983   2.796  25.089  0.00  0.00    +0.000 C 
ENDBRANCH   4   2
ENDBRANCH   5   4
TORSDOF 3
ENDMDL
