MODEL 1
REMARK VINA RESULT:     -10.7      0.000      0.000
REMARK  Name = 
REMARK  4 active torsions:
REMARK  status: ('A' for Active; 'I' for Inactive)
REMARK    1  A    between atoms: O_2  and  C_3
REMARK    2  A    between atoms: C_3  and  C_5
REMARK    3  A    between atoms: N_13  and  C_14
REMARK    4  A    between atoms: C_14  and  C_15
REMARK                            x       y       z     vdW  Elec       q    Type
REMARK                         _______ _______ _______ _____ _____    ______ ____
ROOT
ATOM      5  C   UNL     1      -1.752   3.135  25.132  0.00  0.00    +0.325 C 
ATOM      6  O   UNL     1      -1.026   2.763  25.006  0.00  0.00    -0.263 OA
ATOM      7  N   UNL     1      -2.454   2.709  25.054  0.00  0.00    -0.267 N 
ATOM      8  C   UNL     1      -3.180   3.081  25.180  0.00  0.00    +0.115 C 
ATOM      9  C   UNL     1      -3.881   2.654  25.101  0.00  0.00    +0.116 C 
ATOM     10  N   UNL     1      -3.858   1.855  24.897  0.00  0.00    -0.261 N 
ATOM     11  C   UNL     1      -3.132   1.483  24.771  0.00  0.00    +0.116 C 
ATOM     12  C   UNL     1      -3.280   0.695  24.578  0.00  0.00    +0.117 C 
ATOM     13  N   UNL     1      -4.097   0.580  24.584  0.00  0.00    -0.258 N 
ATOM     22  C   UNL     1      -4.453   1.297  24.781  0.00  0.00    +0.308 C 
ATOM     23  O   UNL     1      -5.264   1.433  24.851  0.00  0.00    -0.252 OA
ATOM     24  C   UNL     1      -2.430   1.910  24.849  0.00  0.00    +0.115 C 
ENDROOT
BRANCH   5   3
ATOM      3  C   UNL     1      -1.776   3.934  25.336  0.00  0.00    +0.396 C 
ATOM      4  O   UNL     1      -1.988   4.159  26.101  0.00  0.00    -0.240 OA
BRANCH   3   2
ATOM      1  C   UNL     1      -1.296   5.242  25.016  0.00  0.00    +0.256 C 
ATOM      2  O   UNL     1      -1.588   4.509  24.774  0.00  0.00    -0.438 OA
ENDBRANCH   3   2
ENDBRANCH   5   3
BRANCH  13  14
ATOM     14  C   UNL     1      -4.488  -0.127  24.421  0.00  0.00    +0.122 C 
BRANCH  14  15
ATOM     15  C   UNL     1      -4.120  -0.849  24.576  0.00  0.00    -0.002 A 
ATOM     16  C   UNL     1      -3.923  -1.054  25.350  0.00  0.00    -0.000 A 
ATOM     17  C   UNL     1      -3.554  -1.776  25.504  0.00  0.00    +0.029 A 
ATOM     18  C   UNL     1      -3.382  -2.292  24.885  0.00  0.00    +0.140 A 
ATOM     19  F   UNL     1      -3.013  -3.014  25.039  0.00  0.00    -0.204 F 
ATOM     20  C   UNL     1      -3.578  -2.087  24.110  0.00  0.00    +0.029 A 
ATOM     21  C   UNL     1      -3.947  -1.365  23.955  0.00  0.00    -0.000 A 
ENDBRANCH  14  15
ENDBRANCH  13  14
TORSDOF 4
ENDMDL
MODEL 2
REMARK VINA RESULT:     -10.1      2.363      4.811
REMARK  Name = 
REMARK  4 active torsions:
REMARK  status: ('A' for Active; 'I' for Inactive)
REMARK    1  A    between atoms: O_2  and  C_3
REMARK    2  A    between atoms: C_3  and  C_5
REMARK    3  A    between atoms: N_13  and  C_14
REMARK    4  A    between atoms: C_14  and  C_15
REMARK                            x       y       z     vdW  Elec       q    Type
REMARK                         _______ _______ _______ _____ _____    ______ ____
ROOT
ATOM      5  C   UNL     1      -3.005  -1.011  24.763  0.00  0.00    +0.325 C 
ATOM      6  O   UNL     1      -2.199  -0.975  24.591  0.00  0.00    -0.263 OA
ATOM      7  N   UNL     1      -3.444  -0.314  24.829  0.00  0.00    -0.267 N 
ATOM      8  C   UNL     1      -4.250  -0.350  25.001  0.00  0.00    +0.115 C 
ATOM      9  C   UNL     1      -4.688   0.346  25.067  0.00  0.00    +0.116 C 
ATOM     10  N   UNL     1      -4.321   1.077  24.960  0.00  0.00    -0.261 N 
ATOM     11  C   UNL     1      -3.515   1.112  24.788  0.00  0.00    +0.116 C 
ATOM     12  C   UNL     1      -3.305   1.906  24.712  0.00  0.00    +0.117 C 
ATOM     13  N   UNL     1      -3.980   2.362  24.837  0.00  0.00    -0.258 N 
ATOM     22  C   UNL     1      -4.608   1.849  24.990  0.00  0.00    +0.308 C 
ATOM     23  O   UNL     1      -5.388   2.070  25.147  0.00  0.00    -0.252 OA
ATOM     24  C   UNL     1      -3.076   0.416  24.722  0.00  0.00    +0.115 C 
ENDROOT
BRANCH   5   3
ATOM      3  C   UNL     1      -3.373  -1.741  24.870  0.00  0.00    +0.396 C 
ATOM      4  O   UNL     1      -3.510  -2.027  25.632  0.00  0.00    -0.240 OA
BRANCH   3   2
ATOM      1  C   UNL     1      -3.626  -3.009  24.262  0.00  0.00    +0.256 C 
ATOM      2  O   UNL     1      -3.604  -2.186  24.214  0.00  0.00    -0.438 OA
ENDBRANCH   3   2
ENDBRANCH   5   3
BRANCH  13  14
ATOM     14  C   UNL     1      -4.021   3.185  24.813  0.00  0.00    +0.122 C 
BRANCH  14  15
ATOM     15  C   UNL     1      -3.367   3.638  25.030  0.00  0.00    -0.002 A 
ATOM     16  C   UNL     1      -3.243   3.832  25.822  0.00  0.00    -0.000 A 
ATOM     17  C   UNL     1      -2.587   4.285  26.038  0.00  0.00    +0.029 A 
ATOM     18  C   UNL     1      -2.056   4.543  25.462  0.00  0.00    +0.140 A 
ATOM     19  F   UNL     1      -1.401   4.996  25.677  0.00  0.00    -0.204 F 
ATOM     20  C   UNL     1      -2.180   4.348  24.670  0.00  0.00    +0.029 A 
ATOM     21  C   UNL     1      -2.835   3.896  24.453  0.00  0.00    -0.000 A 
ENDBRANCH  14  15
ENDBRANCH  13  14
TORSDOF 4
ENDMDL
MODEL 3
REMARK VINA RESULT:     -10.1      1.460      2.026
REMARK  Name = 
REMARK  4 active torsions:
REMARK  status: ('A' for Active; 'I' for Inactive)
REMARK    1  A    between atoms: O_2  and  C_3
REMARK    2  A    between atoms: C_3  and  C_5
REMARK    3  A    between atoms: N_13  and  C_14
REMARK    4  A    between atoms: C_14  and  C_15
REMARK                            x       y       z     vdW  Elec       q    Type
REMARK                         _______ _______ _______ _____ _____    ______ ____
ROOT
ATOM      5  C   UNL     1      -1.727   2.890  24.533  0.00  0.00    +0.325 C 
ATOM      6  O   UNL     1      -2.433   3.156  24.200  0.00  0.00    -0.263 OA
ATOM      7  N   UNL     1      -1.675   2.121  24.831  0.00  0.00    -0.267 N 
ATOM      8  C   UNL     1      -0.970   1.854  25.164  0.00  0.00    +0.115 C 
ATOM      9  C   UNL     1      -0.919   1.087  25.461  0.00  0.00    +0.116 C 
ATOM     10  N   UNL     1      -1.573   0.585  25.425  0.00  0.00    -0.261 N 
ATOM     11  C   UNL     1      -2.278   0.852  25.091  0.00  0.00    +0.116 C 
ATOM     12  C   UNL     1      -2.827   0.238  25.131  0.00  0.00    +0.117 C 
ATOM     13  N   UNL     1      -2.461  -0.408  25.489  0.00  0.00    -0.258 N 
ATOM     22  C   UNL     1      -1.686  -0.193  25.671  0.00  0.00    +0.308 C 
ATOM     23  O   UNL     1      -1.122  -0.673  26.035  0.00  0.00    -0.252 OA
ATOM     24  C   UNL     1      -2.330   1.621  24.794  0.00  0.00    +0.115 C 
ENDROOT
BRANCH   5   3
ATOM      3  C   UNL     1      -1.073   3.390  24.570  0.00  0.00    +0.396 C 
ATOM      4  O   UNL     1      -0.446   3.290  24.043  0.00  0.00    -0.240 OA
BRANCH   3   2
ATOM      1  C   UNL     1      -0.699   4.717  24.949  0.00  0.00    +0.256 C 
ATOM      2  O   UNL     1      -1.045   3.992  25.135  0.00  0.00    -0.438 OA
ENDBRANCH   3   2
ENDBRANCH   5   3
BRANCH  13  14
ATOM     14  C   UNL     1      -2.809  -1.141  25.640  0.00  0.00    +0.122 C 
BRANCH  14  15
ATOM     15  C   UNL     1      -3.241  -1.522  25.049  0.00  0.00    -0.002 A 
ATOM     16  C   UNL     1      -3.969  -1.218  24.808  0.00  0.00    -0.000 A 
ATOM     17  C   UNL     1      -4.400  -1.601  24.217  0.00  0.00    +0.029 A 
ATOM     18  C   UNL     1      -4.103  -2.286  23.868  0.00  0.00    +0.140 A 
ATOM     19  F   UNL     1      -4.534  -2.668  23.277  0.00  0.00    -0.204 F 
ATOM     20  C   UNL     1      -3.375  -2.590  24.109  0.00  0.00    +0.029 A 
ATOM     21  C   UNL     1      -2.944  -2.209  24.700  0.00  0.00    -0.000 A 
ENDBRANCH  14  15
ENDBRANCH  13  14
TORSDOF 4
ENDMDL
MODEL 4
REMARK VINA RESULT:      -9.9      1.775      2.370
REMARK  Name = 
REMARK  4 active torsions:
REMARK  status: ('A' for Active; 'I' for Inactive)
REMARK    1  A    between atoms: O_2  and  C_3
REMARK    2  A    between atoms: C_3  and  C_5
REMARK    3  A    between atoms: N_13  and  C_14
REMARK    4  A    between atoms: C_14  and  C_15
REMARK                            x       y       z     vdW  Elec       q    Type
REMARK                         _______ _______ _______ _____ _____    ______ ____
ROOT
ATOM      5  C   UNL     1      -5.297   2.698  25.678  0.00  0.00    +0.325 C 
ATOM      6  O   UNL     1      -5.860   2.296  26.129  0.00  0.00    -0.263 OA
ATOM      7  N   UNL     1      -4.796   2.279  25.174  0.00  0.00    -0.267 N 
ATOM      8  C   UNL     1      -4.233   2.681  24.724  0.00  0.00    +0.115 C 
ATOM      9  C   UNL     1      -3.733   2.262  24.220  0.00  0.00    +0.116 C 
ATOM     10  N   UNL     1      -3.793   1.441  24.166  0.00  0.00    -0.261 N 
ATOM     11  C   UNL     1      -4.356   1.039  24.617  0.00  0.00    +0.116 C 
ATOM     12  C   UNL     1      -4.288   0.234  24.450  0.00  0.00    +0.117 C 
ATOM     13  N   UNL     1      -3.684   0.138  23.897  0.00  0.00    -0.258 N 
ATOM     22  C   UNL     1      -3.379   0.884  23.722  0.00  0.00    +0.308 C 
ATOM     23  O   UNL     1      -2.765   1.045  23.194  0.00  0.00    -0.252 OA
ATOM     24  C   UNL     1      -4.857   1.458  25.121  0.00  0.00    +0.115 C 
ENDROOT
BRANCH   5   3
ATOM      3  C   UNL     1      -5.236   3.519  25.731  0.00  0.00    +0.396 C 
ATOM      4  O   UNL     1      -4.604   3.861  26.138  0.00  0.00    -0.240 OA
BRANCH   3   2
ATOM      1  C   UNL     1      -5.931   4.765  25.656  0.00  0.00    +0.256 C 
ATOM      2  O   UNL     1      -5.807   3.999  25.377  0.00  0.00    -0.438 OA
ENDBRANCH   3   2
ENDBRANCH   5   3
BRANCH  13  14
ATOM     14  C   UNL     1      -3.430  -0.577  23.575  0.00  0.00    +0.122 C 
BRANCH  14  15
ATOM     15  C   UNL     1      -3.451  -1.265  24.030  0.00  0.00    -0.002 A 
ATOM     16  C   UNL     1      -2.872  -1.401  24.602  0.00  0.00    -0.000 A 
ATOM     17  C   UNL     1      -2.895  -2.089  25.056  0.00  0.00    +0.029 A 
ATOM     18  C   UNL     1      -3.495  -2.642  24.939  0.00  0.00    +0.140 A 
ATOM     19  F   UNL     1      -3.518  -3.330  25.393  0.00  0.00    -0.204 F 
ATOM     20  C   UNL     1      -4.074  -2.506  24.367  0.00  0.00    +0.029 A 
ATOM     21  C   UNL     1      -4.053  -1.819  23.912  0.00  0.00    -0.000 A 
ENDBRANCH  14  15
ENDBRANCH  13  14
TORSDOF 4
ENDMDL
MODEL 5
REMARK VINA RESULT:      -9.7      2.879      3.686
REMARK  Name = 
REMARK  4 active torsions:
REMARK  status: ('A' for Active; 'I' for Inactive)
REMARK    1  A    between atoms: O_2  and  C_3
REMARK    2  A    between atoms: C_3  and  C_5
REMARK    3  A    between atoms: N_13  and  C_14
REMARK    4  A    between atoms: C_14  and  C_15
REMARK                            x       y       z     vdW  Elec       q    Type
REMARK                         _______ _______ _______ _____ _____    ______ ____
ROOT
ATOM      5  C   UNL     1      -0.622   0.977  24.533  0.00  0.00    +0.325 C 
ATOM      6  O   UNL     1      -0.573   0.808  25.339  0.00  0.00    -0.263 OA
ATOM      7  N   UNL     1      -1.279   1.377  24.234  0.00  0.00    -0.267 N 
ATOM      8  C   UNL     1      -1.327   1.547  23.428  0.00  0.00    +0.115 C 
ATOM      9  C   UNL     1      -1.983   1.946  23.129  0.00  0.00    +0.116 C 
ATOM     10  N   UNL     1      -2.593   2.177  23.636  0.00  0.00    -0.261 N 
ATOM     11  C   UNL     1      -2.545   2.007  24.442  0.00  0.00    +0.116 C 
ATOM     12  C   UNL     1      -3.224   2.300  24.805  0.00  0.00    +0.117 C 
ATOM     13  N   UNL     1      -3.693   2.651  24.224  0.00  0.00    -0.258 N 
ATOM     22  C   UNL     1      -3.302   2.574  23.502  0.00  0.00    +0.308 C 
ATOM     23  O   UNL     1      -3.574   2.848  22.772  0.00  0.00    -0.252 OA
ATOM     24  C   UNL     1      -1.887   1.607  24.741  0.00  0.00    +0.115 C 
ENDROOT
BRANCH   5   3
ATOM      3  C   UNL     1      -0.013   0.748  24.026  0.00  0.00    +0.396 C 
ATOM      4  O   UNL     1       0.585   1.281  23.830  0.00  0.00    -0.240 OA
BRANCH   3   2
ATOM      1  C   UNL     1       0.695  -0.325  23.402  0.00  0.00    +0.256 C 
ATOM      2  O   UNL     1      -0.003  -0.017  23.713  0.00  0.00    -0.438 OA
ENDBRANCH   3   2
ENDBRANCH   5   3
BRANCH  13  14
ATOM     14  C   UNL     1      -4.424   3.015  24.344  0.00  0.00    +0.122 C 
BRANCH  14  15
ATOM     15  C   UNL     1      -4.960   2.696  24.884  0.00  0.00    -0.002 A 
ATOM     16  C   UNL     1      -5.412   2.038  24.677  0.00  0.00    -0.000 A 
ATOM     17  C   UNL     1      -5.948   1.720  25.218  0.00  0.00    +0.029 A 
ATOM     18  C   UNL     1      -6.032   2.060  25.965  0.00  0.00    +0.140 A 
ATOM     19  F   UNL     1      -6.567   1.742  26.506  0.00  0.00    -0.204 F 
ATOM     20  C   UNL     1      -5.579   2.718  26.171  0.00  0.00    +0.029 A 
ATOM     21  C   UNL     1      -5.043   3.036  25.631  0.00  0.00    -0.000 A 
ENDBRANCH  14  15
ENDBRANCH  13  14
TORSDOF 4
ENDMDL
MODEL 6
REMARK VINA RESULT:      -9.5      2.683      5.308
REMARK  Name = 
REMARK  4 active torsions:
REMARK  status: ('A' for Active; 'I' for Inactive)
REMARK    1  A    between atoms: O_2  and  C_3
REMARK    2  A    between atoms: C_3  and  C_5
REMARK    3  A    between atoms: N_13  and  C_14
REMARK    4  A    between atoms: C_14  and  C_15
REMARK                            x       y       z     vdW  Elec       q    Type
REMARK                         _______ _______ _______ _____ _____    ______ ____
ROOT
ATOM      5  C   UNL     1      -3.413  -1.036  25.111  0.00  0.00    +0.325 C 
ATOM      6  O   UNL     1      -3.995  -0.650  25.550  0.00  0.00    -0.263 OA
ATOM      7  N   UNL     1      -2.681  -0.674  24.986  0.00  0.00    -0.267 N 
ATOM      8  C   UNL     1      -2.099  -1.059  24.546  0.00  0.00    +0.115 C 
ATOM      9  C   UNL     1      -1.369  -0.697  24.423  0.00  0.00    +0.116 C 
ATOM     10  N   UNL     1      -1.220   0.051  24.738  0.00  0.00    -0.261 N 
ATOM     11  C   UNL     1      -1.802   0.436  25.178  0.00  0.00    +0.116 C 
ATOM     12  C   UNL     1      -1.499   1.164  25.419  0.00  0.00    +0.117 C 
ATOM     13  N   UNL     1      -0.730   1.229  25.128  0.00  0.00    -0.258 N 
ATOM     22  C   UNL     1      -0.558   0.541  24.708  0.00  0.00    +0.308 C 
ATOM     23  O   UNL     1       0.153   0.372  24.323  0.00  0.00    -0.252 OA
ATOM     24  C   UNL     1      -2.533   0.074  25.302  0.00  0.00    +0.115 C 
ENDROOT
BRANCH   5   3
ATOM      3  C   UNL     1      -3.561  -1.783  24.795  0.00  0.00    +0.396 C 
ATOM      4  O   UNL     1      -3.329  -2.459  25.207  0.00  0.00    -0.240 OA
BRANCH   3   2
ATOM      1  C   UNL     1      -4.318  -2.561  23.865  0.00  0.00    +0.256 C 
ATOM      2  O   UNL     1      -3.942  -1.854  24.066  0.00  0.00    -0.438 OA
ENDBRANCH   3   2
ENDBRANCH   5   3
BRANCH  13  14
ATOM     14  C   UNL     1      -0.222   1.870  25.239  0.00  0.00    +0.122 C 
BRANCH  14  15
ATOM     15  C   UNL     1      -0.512   2.640  25.188  0.00  0.00    -0.002 A 
ATOM     16  C   UNL     1      -0.500   3.039  24.466  0.00  0.00    -0.000 A 
ATOM     17  C   UNL     1      -0.790   3.810  24.417  0.00  0.00    +0.029 A 
ATOM     18  C   UNL     1      -1.092   4.182  25.088  0.00  0.00    +0.140 A 
ATOM     19  F   UNL     1      -1.383   4.952  25.038  0.00  0.00    -0.204 F 
ATOM     20  C   UNL     1      -1.104   3.782  25.810  0.00  0.00    +0.029 A 
ATOM     21  C   UNL     1      -0.814   3.012  25.860  0.00  0.00    -0.000 A 
ENDBRANCH  14  15
ENDBRANCH  13  14
TORSDOF 4
ENDMDL
