REMARK  Name = 
REMARK  6 active torsions:
REMARK  status: ('A' for Active; 'I' for Inactive)
REMARK    1  A    between atoms: C_2  and  C_3
REMARK    2  A    between atoms: C_5  and  C_6
REMARK    3  A    between atoms: C_6  and  N_7
REMARK    4  A    between atoms: C_11  and  C_12
REMARK    5  A    between atoms: C_14  and  C_17
REMARK    6  A    between atoms: C_20  and  N_23
REMARK                            x       y       z     vdW  Elec       q    Type
REMARK                         _______ _______ _______ _____ _____    ______ ____
ROOT
ATOM     12  C   UNL     1      -2.047  -5.745   0.000  0.00  0.00    +0.251 A 
ATOM     13  N   UNL     1      -2.715  -6.230   0.000  0.00  0.00    -0.190 NA
ATOM     14  C   UNL     1      -3.382  -5.745   0.000  0.00  0.00    +0.205 A 
ATOM     15  N   UNL     1      -3.127  -4.961   0.000  0.00  0.00    -0.056 NA
ATOM     16  O   UNL     1      -2.303  -4.961   0.000  0.00  0.00    -0.336 OA
ENDROOT
BRANCH  14  17
ATOM     17  C   UNL     1      -4.167  -6.000   0.000  0.00  0.00    +0.058 A 
ATOM     18  C   UNL     1      -4.338  -6.807   0.000  0.00  0.00    +0.008 A 
ATOM     19  C   UNL     1      -5.123  -7.062   0.000  0.00  0.00    +0.034 A 
ATOM     20  C   UNL     1      -5.736  -6.510   0.000  0.00  0.00    +0.132 A 
ATOM     21  N   UNL     1      -5.565  -5.703   0.000  0.00  0.00    -0.229 NA
ATOM     22  C   UNL     1      -4.780  -5.448   0.000  0.00  0.00    +0.103 A 
BRANCH  20  23
ATOM     23  N   UNL     1      -6.521  -6.765   0.000  0.00  0.00    -0.288 N 
ATOM     24  C   UNL     1      -6.692  -7.572   0.000  0.00  0.00    +0.124 C 
ATOM     25  C   UNL     1      -7.477  -7.827   0.000  0.00  0.00    +0.164 C 
ATOM     26  O   UNL     1      -8.090  -7.275   0.000  0.00  0.00    -0.350 OA
ATOM     27  C   UNL     1      -7.919  -6.468   0.000  0.00  0.00    +0.164 C 
ATOM     28  C   UNL     1      -7.134  -6.213   0.000  0.00  0.00    +0.124 C 
ENDBRANCH  20  23
ENDBRANCH  14  17
BRANCH  12  11
ATOM      7  N   UNL     1      -0.596  -5.516   0.000  0.00  0.00    -0.263 NA
ATOM      8  C   UNL     1       0.072  -6.000   0.000  0.00  0.00    +0.073 C 
ATOM      9  C   UNL     1      -0.183  -6.785   0.000  0.00  0.00    +0.019 C 
ATOM     10  C   UNL     1      -1.008  -6.785   0.000  0.00  0.00    +0.027 C 
ATOM     11  C   UNL     1      -1.263  -6.000   0.000  0.00  0.00    +0.138 C 
BRANCH   7   6
ATOM      6  C   UNL     1      -0.596  -4.691   0.000  0.00  0.00    +0.099 C 
BRANCH   6   5
ATOM      3  C   UNL     1       1.548  -4.278   0.000  0.00  0.00    +0.068 A 
ATOM      4  C   UNL     1       0.834  -4.691   0.000  0.00  0.00    +0.007 A 
ATOM      5  C   UNL     1       0.119  -4.278   0.000  0.00  0.00    -0.005 A 
ATOM     29  C   UNL     1       0.119  -3.453   0.000  0.00  0.00    -0.003 A 
ATOM     30  C   UNL     1       0.834  -3.041   0.000  0.00  0.00    +0.000 A 
ATOM     31  C   UNL     1       1.548  -3.453   0.000  0.00  0.00    +0.010 A 
BRANCH   3   2
ATOM      1  N   UNL     1       2.977  -5.103   0.000  0.00  0.00    -0.191 NA
ATOM      2  C   UNL     1       2.262  -4.691   0.000  0.00  0.00    +0.100 C 
ENDBRANCH   3   2
ENDBRANCH   6   5
ENDBRANCH   7   6
ENDBRANCH  12  11
TORSDOF 6
