MODEL 1
REMARK VINA RESULT:      -9.7      0.000      0.000
REMARK  Name = 
REMARK  3 active torsions:
REMARK  status: ('A' for Active; 'I' for Inactive)
REMARK    1  A    between atoms: C_9  and  O_11
REMARK    2  A    between atoms: O_11  and  C_12
REMARK    3  A    between atoms: C_15  and  S_18
REMARK                            x       y       z     vdW  Elec       q    Type
REMARK                         _______ _______ _______ _____ _____    ______ ____
ROOT
ATOM     11  O   UNL     1      -3.810   1.412  23.970  0.00  0.00    -0.475 OA
ENDROOT
BRANCH  11   9
ATOM      1  C   UNL     1      -2.914   4.204  25.985  0.00  0.00    +0.095 C 
ATOM      2  C   UNL     1      -2.891   3.567  25.460  0.00  0.00    +0.226 C 
ATOM      3  O   UNL     1      -2.182   3.362  25.091  0.00  0.00    -0.275 OA
ATOM      4  N   UNL     1      -3.577   3.135  25.306  0.00  0.00    -0.273 N 
ATOM      5  C   UNL     1      -4.255   3.386  25.704  0.00  0.00    +0.126 C 
ATOM      6  C   UNL     1      -5.017   3.073  25.667  0.00  0.00    +0.164 C 
ATOM      7  O   UNL     1      -5.290   2.432  25.224  0.00  0.00    -0.348 OA
ATOM      8  C   UNL     1      -4.868   1.947  24.709  0.00  0.00    +0.187 C 
ATOM      9  C   UNL     1      -4.068   1.981  24.508  0.00  0.00    +0.215 C 
ATOM     10  C   UNL     1      -3.493   2.510  24.774  0.00  0.00    +0.139 C 
ENDBRANCH  11   9
BRANCH  11  12
ATOM     12  C   UNL     1      -3.718   0.628  24.212  0.00  0.00    +0.139 A 
ATOM     13  C   UNL     1      -4.366   0.117  24.211  0.00  0.00    +0.038 A 
ATOM     14  C   UNL     1      -4.274  -0.666  24.452  0.00  0.00    +0.021 A 
ATOM     15  C   UNL     1      -3.534  -0.938  24.696  0.00  0.00    +0.106 A 
ATOM     16  C   UNL     1      -2.887  -0.428  24.697  0.00  0.00    +0.021 A 
ATOM     17  C   UNL     1      -2.978   0.355  24.455  0.00  0.00    +0.038 A 
BRANCH  15  18
ATOM     18  S   UNL     1      -3.442  -1.722  24.937  0.00  0.00    +0.010 S 
ATOM     19  C   UNL     1      -3.350  -2.505  25.179  0.00  0.00    +0.182 C 
ATOM     20  O   UNL     1      -3.593  -1.499  25.717  0.00  0.00    -0.169 OA
ATOM     21  O   UNL     1      -3.292  -1.945  24.157  0.00  0.00    -0.169 OA
ENDBRANCH  15  18
ENDBRANCH  11  12
TORSDOF 3
ENDMDL
MODEL 2
REMARK VINA RESULT:      -9.5      1.069      1.597
REMARK  Name = 
REMARK  3 active torsions:
REMARK  status: ('A' for Active; 'I' for Inactive)
REMARK    1  A    between atoms: C_9  and  O_11
REMARK    2  A    between atoms: O_11  and  C_12
REMARK    3  A    between atoms: C_15  and  S_18
REMARK                            x       y       z     vdW  Elec       q    Type
REMARK                         _______ _______ _______ _____ _____    ______ ____
ROOT
ATOM     11  O   UNL     1      -4.798   0.495  24.633  0.00  0.00    -0.475 OA
ENDROOT
BRANCH  11   9
ATOM      1  C   UNL     1      -4.663   3.884  25.709  0.00  0.00    +0.095 C 
ATOM      2  C   UNL     1      -4.861   3.086  25.628  0.00  0.00    +0.226 C 
ATOM      3  O   UNL     1      -5.443   2.755  26.111  0.00  0.00    -0.275 OA
ATOM      4  N   UNL     1      -4.478   2.621  25.064  0.00  0.00    -0.273 N 
ATOM      5  C   UNL     1      -3.906   3.006  24.611  0.00  0.00    +0.126 C 
ATOM      6  C   UNL     1      -3.433   2.697  24.011  0.00  0.00    +0.164 C 
ATOM      7  O   UNL     1      -3.414   1.926  23.715  0.00  0.00    -0.348 OA
ATOM      8  C   UNL     1      -3.864   1.276  23.947  0.00  0.00    +0.187 C 
ATOM      9  C   UNL     1      -4.445   1.233  24.532  0.00  0.00    +0.215 C 
ATOM     10  C   UNL     1      -4.718   1.832  25.030  0.00  0.00    +0.139 C 
ENDBRANCH  11   9
BRANCH  11  12
ATOM     12  C   UNL     1      -4.331  -0.184  24.667  0.00  0.00    +0.139 A 
ATOM     13  C   UNL     1      -4.258  -0.669  24.003  0.00  0.00    +0.038 A 
ATOM     14  C   UNL     1      -3.792  -1.348  24.037  0.00  0.00    +0.021 A 
ATOM     15  C   UNL     1      -3.398  -1.543  24.735  0.00  0.00    +0.106 A 
ATOM     16  C   UNL     1      -3.471  -1.059  25.399  0.00  0.00    +0.021 A 
ATOM     17  C   UNL     1      -3.937  -0.380  25.365  0.00  0.00    +0.038 A 
BRANCH  15  18
ATOM     18  S   UNL     1      -2.931  -2.222  24.770  0.00  0.00    +0.010 S 
ATOM     19  C   UNL     1      -2.465  -2.902  24.804  0.00  0.00    +0.182 C 
ATOM     20  O   UNL     1      -2.294  -1.801  24.458  0.00  0.00    -0.169 OA
ATOM     21  O   UNL     1      -3.568  -2.644  25.081  0.00  0.00    -0.169 OA
ENDBRANCH  15  18
ENDBRANCH  11  12
TORSDOF 3
ENDMDL
MODEL 3
REMARK VINA RESULT:      -9.5      1.883      4.385
REMARK  Name = 
REMARK  3 active torsions:
REMARK  status: ('A' for Active; 'I' for Inactive)
REMARK    1  A    between atoms: C_9  and  O_11
REMARK    2  A    between atoms: O_11  and  C_12
REMARK    3  A    between atoms: C_15  and  S_18
REMARK                            x       y       z     vdW  Elec       q    Type
REMARK                         _______ _______ _______ _____ _____    ______ ____
ROOT
ATOM     11  O   UNL     1      -3.619   0.598  23.806  0.00  0.00    -0.475 OA
ENDROOT
BRANCH  11   9
ATOM      1  C   UNL     1      -3.462  -2.847  24.677  0.00  0.00    +0.095 C 
ATOM      2  C   UNL     1      -3.686  -2.123  24.350  0.00  0.00    +0.226 C 
ATOM      3  O   UNL     1      -4.341  -2.082  23.850  0.00  0.00    -0.275 OA
ATOM      4  N   UNL     1      -3.256  -1.441  24.525  0.00  0.00    -0.273 N 
ATOM      5  C   UNL     1      -2.612  -1.543  25.031  0.00  0.00    +0.126 C 
ATOM      6  C   UNL     1      -2.080  -0.976  25.306  0.00  0.00    +0.164 C 
ATOM      7  O   UNL     1      -2.060  -0.167  25.144  0.00  0.00    -0.348 OA
ATOM      8  C   UNL     1      -2.568   0.274  24.667  0.00  0.00    +0.187 C 
ATOM      9  C   UNL     1      -3.221   0.016  24.233  0.00  0.00    +0.215 C 
ATOM     10  C   UNL     1      -3.527  -0.747  24.169  0.00  0.00    +0.139 C 
ENDBRANCH  11   9
BRANCH  11  12
ATOM     12  C   UNL     1      -3.972   1.231  24.202  0.00  0.00    +0.139 A 
ATOM     13  C   UNL     1      -3.630   1.981  24.168  0.00  0.00    +0.038 A 
ATOM     14  C   UNL     1      -3.983   2.614  24.563  0.00  0.00    +0.021 A 
ATOM     15  C   UNL     1      -4.678   2.495  24.993  0.00  0.00    +0.106 A 
ATOM     16  C   UNL     1      -5.019   1.745  25.027  0.00  0.00    +0.021 A 
ATOM     17  C   UNL     1      -4.666   1.113  24.631  0.00  0.00    +0.038 A 
BRANCH  15  18
ATOM     18  S   UNL     1      -5.031   3.127  25.388  0.00  0.00    +0.010 S 
ATOM     19  C   UNL     1      -5.384   3.759  25.784  0.00  0.00    +0.182 C 
ATOM     20  O   UNL     1      -4.286   3.440  25.554  0.00  0.00    -0.169 OA
ATOM     21  O   UNL     1      -5.776   2.814  25.223  0.00  0.00    -0.169 OA
ENDBRANCH  15  18
ENDBRANCH  11  12
TORSDOF 3
ENDMDL
