REMARK  Name = 
REMARK  8 active torsions:
REMARK  status: ('A' for Active; 'I' for Inactive)
REMARK    1  A    between atoms: C_2  and  N_3
REMARK    2  A    between atoms: N_3  and  C_4
REMARK    3  A    between atoms: N_3  and  C_6
REMARK    4  A    between atoms: C_6  and  C_7
REMARK    5  A    between atoms: C_14  and  C_15
REMARK    6  A    between atoms: C_15  and  N_16
REMARK    7  A    between atoms: C_17  and  C_19
REMARK    8  A    between atoms: C_22  and  C_25
REMARK                            x       y       z     vdW  Elec       q    Type
REMARK                         _______ _______ _______ _____ _____    ______ ____
ROOT
ATOM      7  C   UNL     1       1.661  -1.343   0.000  0.00  0.00    +0.032 C 
ATOM      8  C   UNL     1       1.814  -2.106   0.000  0.00  0.00    +0.073 C 
ATOM      9  N   UNL     1       1.065  -1.759   0.000  0.00  0.00    -0.272 NA
ATOM     10  C   UNL     1       1.205  -0.720   0.000  0.00  0.00    +0.072 C 
ATOM     11  C   UNL     1       0.961  -0.114   0.000  0.00  0.00    +0.017 C 
ATOM     12  C   UNL     1       0.923  -1.010   0.000  0.00  0.00    +0.005 C 
ATOM     13  C   UNL     1       0.119  -1.362   0.000  0.00  0.00    +0.018 C 
ATOM     14  C   UNL     1       0.226  -2.118   0.000  0.00  0.00    +0.079 C 
ENDROOT
BRANCH   7   6
ATOM      6  C   UNL     1       2.307  -0.828   0.000  0.00  0.00    +0.073 C 
BRANCH   6   3
ATOM      3  N   UNL     1       2.184  -0.013   0.000  0.00  0.00    -0.273 NA
BRANCH   3   2
ATOM      1  C   UNL     1       2.707   1.317   0.000  0.00  0.00    +0.019 C 
ATOM      2  C   UNL     1       2.829   0.501   0.000  0.00  0.00    +0.072 C 
ENDBRANCH   3   2
BRANCH   3   4
ATOM      4  C   UNL     1       1.416   0.289   0.000  0.00  0.00    +0.072 C 
ATOM      5  C   UNL     1       1.294   1.105   0.000  0.00  0.00    +0.019 C 
ENDBRANCH   3   4
ENDBRANCH   6   3
ENDBRANCH   7   6
BRANCH  14  15
ATOM     15  C   UNL     1      -0.179  -2.836   0.000  0.00  0.00    +0.131 C 
BRANCH  15  16
ATOM     16  N   UNL     1      -1.004  -2.845   0.000  0.00  0.00    -0.200 NA
ATOM     17  C   UNL     1      -1.408  -3.564   0.000  0.00  0.00    +0.265 C 
ATOM     18  O   UNL     1      -0.988  -4.274   0.000  0.00  0.00    -0.268 OA
BRANCH  17  19
ATOM     19  C   UNL     1      -2.233  -3.573   0.000  0.00  0.00    +0.055 A 
ATOM     20  C   UNL     1      -2.638  -4.292   0.000  0.00  0.00    +0.005 A 
ATOM     21  C   UNL     1      -3.463  -4.301   0.000  0.00  0.00    +0.004 A 
ATOM     22  C   UNL     1      -3.883  -3.591   0.000  0.00  0.00    +0.071 A 
ATOM     23  C   UNL     1      -3.478  -2.872   0.000  0.00  0.00    +0.004 A 
ATOM     24  C   UNL     1      -2.654  -2.863   0.000  0.00  0.00    +0.005 A 
BRANCH  22  25
ATOM     25  C   UNL     1      -4.708  -3.599   0.000  0.00  0.00    +0.419 C 
ATOM     26  F   UNL     1      -5.533  -3.608   0.000  0.00  0.00    -0.166 F 
ATOM     27  F   UNL     1      -4.717  -2.775   0.000  0.00  0.00    -0.166 F 
ATOM     28  F   UNL     1      -4.699  -4.424   0.000  0.00  0.00    -0.166 F 
ENDBRANCH  22  25
ENDBRANCH  17  19
ENDBRANCH  15  16
ENDBRANCH  14  15
TORSDOF 8
