MODEL 1
REMARK VINA RESULT:     -12.6      0.000      0.000
REMARK  Name = 
REMARK  7 active torsions:
REMARK  status: ('A' for Active; 'I' for Inactive)
REMARK    1  A    between atoms: C_2  and  C_4
REMARK    2  A    between atoms: C_4  and  C_5
REMARK    3  A    between atoms: C_5  and  N_6
REMARK    4  A    between atoms: C_5  and  C_29
REMARK    5  A    between atoms: C_7  and  C_9
REMARK    6  A    between atoms: C_11  and  N_12
REMARK    7  A    between atoms: N_15  and  C_16
REMARK                            x       y       z     vdW  Elec       q    Type
REMARK                         _______ _______ _______ _____ _____    ______ ____
ROOT
ATOM      9  C   UNL     1      -3.686   2.871  24.920  0.00  0.00    +0.033 C 
ATOM     10  C   UNL     1      -3.897   2.125  24.636  0.00  0.00    -0.002 C 
ATOM     11  C   UNL     1      -4.646   1.819  24.799  0.00  0.00    +0.152 C 
ATOM     24  C   UNL     1      -5.182   2.257  25.245  0.00  0.00    +0.206 C 
ATOM     25  O   UNL     1      -5.932   1.950  25.408  0.00  0.00    -0.218 OA
ATOM     26  C   UNL     1      -4.972   3.002  25.528  0.00  0.00    +0.189 C 
ATOM     27  O   UNL     1      -5.510   3.441  25.974  0.00  0.00    -0.220 OA
ATOM     28  C   UNL     1      -4.223   3.309  25.365  0.00  0.00    +0.066 C 
ENDROOT
BRANCH  11  12
ATOM     12  N   UNL     1      -4.856   1.072  24.515  0.00  0.00    -0.181 NA
ATOM     13  C   UNL     1      -4.397   0.415  24.706  0.00  0.00    +0.344 C 
ATOM     14  O   UNL     1      -3.728   0.502  25.179  0.00  0.00    -0.249 OA
ATOM     15  N   UNL     1      -4.608  -0.331  24.423  0.00  0.00    -0.159 NA
BRANCH  15  16
ATOM     16  C   UNL     1      -4.148  -0.990  24.613  0.00  0.00    +0.102 A 
ATOM     17  C   UNL     1      -3.826  -1.063  25.370  0.00  0.00    +0.021 A 
ATOM     18  C   UNL     1      -3.367  -1.721  25.560  0.00  0.00    +0.031 A 
ATOM     19  C   UNL     1      -3.229  -2.305  24.995  0.00  0.00    +0.142 A 
ATOM     20  F   UNL     1      -2.770  -2.964  25.185  0.00  0.00    -0.204 F 
ATOM     21  C   UNL     1      -3.551  -2.232  24.239  0.00  0.00    +0.061 A 
ATOM     22  C   UNL     1      -4.010  -1.574  24.048  0.00  0.00    +0.158 A 
ATOM     23  F   UNL     1      -4.333  -1.500  23.292  0.00  0.00    -0.203 F 
ENDBRANCH  15  16
ENDBRANCH  11  12
BRANCH   9   7
ATOM      6  N   UNL     1      -2.367   3.209  25.353  0.00  0.00    -0.194 NA
ATOM      7  C   UNL     1      -2.938   3.177  24.757  0.00  0.00    +0.261 C 
ATOM      8  O   UNL     1      -2.760   3.451  23.999  0.00  0.00    -0.269 OA
BRANCH   6   5
ATOM      5  C   UNL     1      -1.619   3.516  25.190  0.00  0.00    +0.175 C 
BRANCH   5  29
ATOM     29  C   UNL     1      -1.479   4.325  25.262  0.00  0.00    +0.281 C 
ATOM     30  N   UNL     1      -0.969   4.704  24.736  0.00  0.00    -0.086 NA
ATOM     31  O   UNL     1      -1.850   4.756  25.860  0.00  0.00    -0.270 OA
ENDBRANCH   5  29
BRANCH   5   4
ATOM      4  C   UNL     1      -1.009   3.011  24.954  0.00  0.00    +0.031 C 
BRANCH   4   2
ATOM      1  C   UNL     1      -0.391   1.773  25.311  0.00  0.00    +0.000 C 
ATOM      2  C   UNL     1      -0.627   2.538  25.512  0.00  0.00    +0.002 C 
ATOM      3  C   UNL     1      -0.482   2.829  26.270  0.00  0.00    +0.000 C 
ENDBRANCH   4   2
ENDBRANCH   5   4
ENDBRANCH   6   5
ENDBRANCH   9   7
TORSDOF 7
ENDMDL
MODEL 2
REMARK VINA RESULT:     -11.7      2.342      4.886
REMARK  Name = 
REMARK  7 active torsions:
REMARK  status: ('A' for Active; 'I' for Inactive)
REMARK    1  A    between atoms: C_2  and  C_4
REMARK    2  A    between atoms: C_4  and  C_5
REMARK    3  A    between atoms: C_5  and  N_6
REMARK    4  A    between atoms: C_5  and  C_29
REMARK    5  A    between atoms: C_7  and  C_9
REMARK    6  A    between atoms: C_11  and  N_12
REMARK    7  A    between atoms: N_15  and  C_16
REMARK                            x       y       z     vdW  Elec       q    Type
REMARK                         _______ _______ _______ _____ _____    ______ ____
ROOT
ATOM      9  C   UNL     1      -4.190   1.101  24.751  0.00  0.00    +0.033 C 
ATOM     10  C   UNL     1      -3.790   1.713  25.136  0.00  0.00    -0.002 C 
ATOM     11  C   UNL     1      -4.210   2.363  25.420  0.00  0.00    +0.152 C 
ATOM     24  C   UNL     1      -5.027   2.403  25.320  0.00  0.00    +0.206 C 
ATOM     25  O   UNL     1      -5.447   3.054  25.605  0.00  0.00    -0.218 OA
ATOM     26  C   UNL     1      -5.426   1.792  24.936  0.00  0.00    +0.189 C 
ATOM     27  O   UNL     1      -6.244   1.831  24.836  0.00  0.00    -0.220 OA
ATOM     28  C   UNL     1      -5.007   1.140  24.651  0.00  0.00    +0.066 C 
ENDROOT
BRANCH  11  12
ATOM     12  N   UNL     1      -3.811   2.975  25.805  0.00  0.00    -0.181 NA
ATOM     13  C   UNL     1      -3.142   3.312  25.459  0.00  0.00    +0.344 C 
ATOM     14  O   UNL     1      -2.872   3.038  24.730  0.00  0.00    -0.249 OA
ATOM     15  N   UNL     1      -2.744   3.923  25.844  0.00  0.00    -0.159 NA
BRANCH  15  16
ATOM     16  C   UNL     1      -2.074   4.260  25.499  0.00  0.00    +0.102 A 
ATOM     17  C   UNL     1      -1.450   3.779  25.253  0.00  0.00    +0.021 A 
ATOM     18  C   UNL     1      -0.781   4.117  24.907  0.00  0.00    +0.031 A 
ATOM     19  C   UNL     1      -0.736   4.934  24.808  0.00  0.00    +0.142 A 
ATOM     20  F   UNL     1      -0.068   5.271  24.462  0.00  0.00    -0.204 F 
ATOM     21  C   UNL     1      -1.360   5.415  25.053  0.00  0.00    +0.061 A 
ATOM     22  C   UNL     1      -2.029   5.077  25.399  0.00  0.00    +0.158 A 
ATOM     23  F   UNL     1      -2.654   5.558  25.645  0.00  0.00    -0.203 F 
ENDBRANCH  15  16
ENDBRANCH  11  12
BRANCH   9   7
ATOM      6  N   UNL     1      -3.453  -0.099  24.995  0.00  0.00    -0.194 NA
ATOM      7  C   UNL     1      -3.770   0.450  24.466  0.00  0.00    +0.261 C 
ATOM      8  O   UNL     1      -3.667   0.348  23.654  0.00  0.00    -0.269 OA
BRANCH   6   5
ATOM      5  C   UNL     1      -3.033  -0.749  24.710  0.00  0.00    +0.175 C 
BRANCH   5  29
ATOM     29  C   UNL     1      -2.209  -0.756  24.744  0.00  0.00    +0.281 C 
ATOM     30  N   UNL     1      -1.824  -0.635  25.463  0.00  0.00    -0.086 NA
ATOM     31  O   UNL     1      -1.769  -0.883  24.057  0.00  0.00    -0.270 OA
ENDBRANCH   5  29
BRANCH   5   4
ATOM      4  C   UNL     1      -3.438  -1.394  24.392  0.00  0.00    +0.031 C 
BRANCH   4   2
ATOM      1  C   UNL     1      -3.565  -2.816  24.459  0.00  0.00    +0.000 C 
ATOM      2  C   UNL     1      -3.531  -2.083  24.837  0.00  0.00    +0.002 C 
ATOM      3  C   UNL     1      -3.591  -2.039  25.658  0.00  0.00    +0.000 C 
ENDBRANCH   4   2
ENDBRANCH   5   4
ENDBRANCH   6   5
ENDBRANCH   9   7
TORSDOF 7
ENDMDL
MODEL 3
REMARK VINA RESULT:     -11.5      2.762      5.734
REMARK  Name = 
REMARK  7 active torsions:
REMARK  status: ('A' for Active; 'I' for Inactive)
REMARK    1  A    between atoms: C_2  and  C_4
REMARK    2  A    between atoms: C_4  and  C_5
REMARK    3  A    between atoms: C_5  and  N_6
REMARK    4  A    between atoms: C_5  and  C_29
REMARK    5  A    between atoms: C_7  and  C_9
REMARK    6  A    between atoms: C_11  and  N_12
REMARK    7  A    between atoms: N_15  and  C_16
REMARK                            x       y       z     vdW  Elec       q    Type
REMARK                         _______ _______ _______ _____ _____    ______ ____
ROOT
ATOM      9  C   UNL     1      -1.063  -0.295  24.759  0.00  0.00    +0.033 C 
ATOM     10  C   UNL     1      -0.887   0.438  25.098  0.00  0.00    -0.002 C 
ATOM     11  C   UNL     1      -0.291   0.908  24.775  0.00  0.00    +0.152 C 
ATOM     24  C   UNL     1       0.129   0.647  24.115  0.00  0.00    +0.206 C 
ATOM     25  O   UNL     1       0.725   1.117  23.793  0.00  0.00    -0.218 OA
ATOM     26  C   UNL     1      -0.047  -0.085  23.777  0.00  0.00    +0.189 C 
ATOM     27  O   UNL     1       0.373  -0.346  23.117  0.00  0.00    -0.220 OA
ATOM     28  C   UNL     1      -0.643  -0.556  24.100  0.00  0.00    +0.066 C 
ENDROOT
BRANCH  11  12
ATOM     12  N   UNL     1      -0.115   1.640  25.113  0.00  0.00    -0.181 NA
ATOM     13  C   UNL     1      -0.686   2.236  25.126  0.00  0.00    +0.344 C 
ATOM     14  O   UNL     1      -1.431   2.100  24.801  0.00  0.00    -0.249 OA
ATOM     15  N   UNL     1      -0.509   2.967  25.464  0.00  0.00    -0.159 NA
BRANCH  15  16
ATOM     16  C   UNL     1      -1.080   3.563  25.477  0.00  0.00    +0.102 A 
ATOM     17  C   UNL     1      -1.805   3.433  25.850  0.00  0.00    +0.021 A 
ATOM     18  C   UNL     1      -2.375   4.029  25.862  0.00  0.00    +0.031 A 
ATOM     19  C   UNL     1      -2.221   4.754  25.503  0.00  0.00    +0.142 A 
ATOM     20  F   UNL     1      -2.791   5.350  25.516  0.00  0.00    -0.204 F 
ATOM     21  C   UNL     1      -1.497   4.885  25.130  0.00  0.00    +0.061 A 
ATOM     22  C   UNL     1      -0.926   4.289  25.118  0.00  0.00    +0.158 A 
ATOM     23  F   UNL     1      -0.202   4.420  24.744  0.00  0.00    -0.203 F 
ENDBRANCH  15  16
ENDBRANCH  11  12
BRANCH   9   7
ATOM      6  N   UNL     1      -2.424  -0.732  24.771  0.00  0.00    -0.194 NA
ATOM      7  C   UNL     1      -1.659  -0.764  25.082  0.00  0.00    +0.261 C 
ATOM      8  O   UNL     1      -1.492  -1.267  25.715  0.00  0.00    -0.269 OA
BRANCH   6   5
ATOM      5  C   UNL     1      -3.020  -1.202  25.094  0.00  0.00    +0.175 C 
BRANCH   5  29
ATOM     29  C   UNL     1      -3.533  -0.888  25.658  0.00  0.00    +0.281 C 
ATOM     30  N   UNL     1      -3.971  -0.211  25.486  0.00  0.00    -0.086 NA
ATOM     31  O   UNL     1      -3.608  -1.252  26.395  0.00  0.00    -0.270 OA
ENDBRANCH   5  29
BRANCH   5   4
ATOM      4  C   UNL     1      -3.102  -1.987  24.852  0.00  0.00    +0.031 C 
BRANCH   4   2
ATOM      1  C   UNL     1      -3.859  -2.975  24.150  0.00  0.00    +0.000 C 
ATOM      2  C   UNL     1      -3.661  -2.184  24.278  0.00  0.00    +0.002 C 
ATOM      3  C   UNL     1      -4.021  -1.591  23.831  0.00  0.00    +0.000 C 
ENDBRANCH   4   2
ENDBRANCH   5   4
ENDBRANCH   6   5
ENDBRANCH   9   7
TORSDOF 7
ENDMDL
MODEL 4
REMARK VINA RESULT:     -11.5      1.666      3.218
REMARK  Name = 
REMARK  7 active torsions:
REMARK  status: ('A' for Active; 'I' for Inactive)
REMARK    1  A    between atoms: C_2  and  C_4
REMARK    2  A    between atoms: C_4  and  C_5
REMARK    3  A    between atoms: C_5  and  N_6
REMARK    4  A    between atoms: C_5  and  C_29
REMARK    5  A    between atoms: C_7  and  C_9
REMARK    6  A    between atoms: C_11  and  N_12
REMARK    7  A    between atoms: N_15  and  C_16
REMARK                            x       y       z     vdW  Elec       q    Type
REMARK                         _______ _______ _______ _____ _____    ______ ____
ROOT
ATOM      9  C   UNL     1      -1.023   1.936  25.125  0.00  0.00    +0.033 C 
ATOM     10  C   UNL     1      -1.275   1.172  25.313  0.00  0.00    -0.002 C 
ATOM     11  C   UNL     1      -0.860   0.519  25.026  0.00  0.00    +0.152 C 
ATOM     24  C   UNL     1      -0.194   0.629  24.553  0.00  0.00    +0.206 C 
ATOM     25  O   UNL     1       0.221  -0.025  24.267  0.00  0.00    -0.218 OA
ATOM     26  C   UNL     1       0.058   1.392  24.366  0.00  0.00    +0.189 C 
ATOM     27  O   UNL     1       0.725   1.501  23.893  0.00  0.00    -0.220 OA
ATOM     28  C   UNL     1      -0.357   2.045  24.653  0.00  0.00    +0.066 C 
ENDROOT
BRANCH  11  12
ATOM     12  N   UNL     1      -1.113  -0.244  25.213  0.00  0.00    -0.181 NA
ATOM     13  C   UNL     1      -1.805  -0.542  24.879  0.00  0.00    +0.344 C 
ATOM     14  O   UNL     1      -2.245  -0.079  24.358  0.00  0.00    -0.249 OA
ATOM     15  N   UNL     1      -2.057  -1.305  25.066  0.00  0.00    -0.159 NA
BRANCH  15  16
ATOM     16  C   UNL     1      -2.750  -1.604  24.732  0.00  0.00    +0.102 A 
ATOM     17  C   UNL     1      -3.427  -1.133  24.694  0.00  0.00    +0.021 A 
ATOM     18  C   UNL     1      -4.119  -1.432  24.359  0.00  0.00    +0.031 A 
ATOM     19  C   UNL     1      -4.135  -2.201  24.064  0.00  0.00    +0.142 A 
ATOM     20  F   UNL     1      -4.828  -2.500  23.729  0.00  0.00    -0.204 F 
ATOM     21  C   UNL     1      -3.460  -2.672  24.101  0.00  0.00    +0.061 A 
ATOM     22  C   UNL     1      -2.767  -2.373  24.436  0.00  0.00    +0.158 A 
ATOM     23  F   UNL     1      -2.090  -2.845  24.474  0.00  0.00    -0.203 F 
ENDBRANCH  15  16
ENDBRANCH  11  12
BRANCH   9   7
ATOM      6  N   UNL     1      -1.988   2.972  24.929  0.00  0.00    -0.194 NA
ATOM      7  C   UNL     1      -1.438   2.588  25.412  0.00  0.00    +0.261 C 
ATOM      8  O   UNL     1      -1.304   2.858  26.180  0.00  0.00    -0.269 OA
BRANCH   6   5
ATOM      5  C   UNL     1      -2.403   3.624  25.216  0.00  0.00    +0.175 C 
BRANCH   5  29
ATOM     29  C   UNL     1      -2.059   4.374  25.194  0.00  0.00    +0.281 C 
ATOM     30  N   UNL     1      -2.090   4.861  25.859  0.00  0.00    -0.086 NA
ATOM     31  O   UNL     1      -1.685   4.636  24.507  0.00  0.00    -0.270 OA
ENDBRANCH   5  29
BRANCH   5   4
ATOM      4  C   UNL     1      -3.162   3.527  25.524  0.00  0.00    +0.031 C 
BRANCH   4   2
ATOM      1  C   UNL     1      -4.349   2.798  25.203  0.00  0.00    +0.000 C 
ATOM      2  C   UNL     1      -3.797   3.384  25.017  0.00  0.00    +0.002 C 
ATOM      3  C   UNL     1      -3.881   3.825  24.325  0.00  0.00    +0.000 C 
ENDBRANCH   4   2
ENDBRANCH   5   4
ENDBRANCH   6   5
ENDBRANCH   9   7
TORSDOF 7
ENDMDL
MODEL 5
REMARK VINA RESULT:     -11.4      1.647      3.279
REMARK  Name = 
REMARK  7 active torsions:
REMARK  status: ('A' for Active; 'I' for Inactive)
REMARK    1  A    between atoms: C_2  and  C_4
REMARK    2  A    between atoms: C_4  and  C_5
REMARK    3  A    between atoms: C_5  and  N_6
REMARK    4  A    between atoms: C_5  and  C_29
REMARK    5  A    between atoms: C_7  and  C_9
REMARK    6  A    between atoms: C_11  and  N_12
REMARK    7  A    between atoms: N_15  and  C_16
REMARK                            x       y       z     vdW  Elec       q    Type
REMARK                         _______ _______ _______ _____ _____    ______ ____
ROOT
ATOM      9  C   UNL     1      -1.760   2.182  25.001  0.00  0.00    +0.033 C 
ATOM     10  C   UNL     1      -1.832   1.399  25.255  0.00  0.00    -0.002 C 
ATOM     11  C   UNL     1      -1.201   0.877  25.162  0.00  0.00    +0.152 C 
ATOM     24  C   UNL     1      -0.499   1.135  24.816  0.00  0.00    +0.206 C 
ATOM     25  O   UNL     1       0.133   0.611  24.723  0.00  0.00    -0.218 OA
ATOM     26  C   UNL     1      -0.427   1.916  24.562  0.00  0.00    +0.189 C 
ATOM     27  O   UNL     1       0.276   2.175  24.215  0.00  0.00    -0.220 OA
ATOM     28  C   UNL     1      -1.058   2.440  24.655  0.00  0.00    +0.066 C 
ENDROOT
BRANCH  11  12
ATOM     12  N   UNL     1      -1.272   0.094  25.416  0.00  0.00    -0.181 NA
ATOM     13  C   UNL     1      -1.841  -0.398  25.078  0.00  0.00    +0.344 C 
ATOM     14  O   UNL     1      -2.337  -0.110  24.486  0.00  0.00    -0.249 OA
ATOM     15  N   UNL     1      -1.912  -1.179  25.332  0.00  0.00    -0.159 NA
BRANCH  15  16
ATOM     16  C   UNL     1      -2.481  -1.673  24.993  0.00  0.00    +0.102 A 
ATOM     17  C   UNL     1      -3.273  -1.440  24.980  0.00  0.00    +0.021 A 
ATOM     18  C   UNL     1      -3.841  -1.933  24.641  0.00  0.00    +0.031 A 
ATOM     19  C   UNL     1      -3.618  -2.657  24.317  0.00  0.00    +0.142 A 
ATOM     20  F   UNL     1      -4.186  -3.151  23.978  0.00  0.00    -0.204 F 
ATOM     21  C   UNL     1      -2.827  -2.890  24.330  0.00  0.00    +0.061 A 
ATOM     22  C   UNL     1      -2.258  -2.397  24.669  0.00  0.00    +0.158 A 
ATOM     23  F   UNL     1      -1.466  -2.629  24.682  0.00  0.00    -0.203 F 
ENDBRANCH  15  16
ENDBRANCH  11  12
BRANCH   9   7
ATOM      6  N   UNL     1      -3.089   2.588  24.668  0.00  0.00    -0.194 NA
ATOM      7  C   UNL     1      -2.391   2.704  25.094  0.00  0.00    +0.261 C 
ATOM      8  O   UNL     1      -2.326   3.343  25.612  0.00  0.00    -0.269 OA
BRANCH   6   5
ATOM      5  C   UNL     1      -3.720   3.111  24.761  0.00  0.00    +0.175 C 
BRANCH   5  29
ATOM     29  C   UNL     1      -3.859   3.696  24.196  0.00  0.00    +0.281 C 
ATOM     30  N   UNL     1      -3.977   3.488  23.408  0.00  0.00    -0.086 NA
ATOM     31  O   UNL     1      -3.878   4.490  24.422  0.00  0.00    -0.270 OA
ENDBRANCH   5  29
BRANCH   5   4
ATOM      4  C   UNL     1      -4.214   3.047  25.420  0.00  0.00    +0.031 C 
BRANCH   4   2
ATOM      1  C   UNL     1      -5.623   3.073  25.659  0.00  0.00    +0.000 C 
ATOM      2  C   UNL     1      -4.958   2.698  25.345  0.00  0.00    +0.002 C 
ATOM      3  C   UNL     1      -5.037   1.975  24.957  0.00  0.00    +0.000 C 
ENDBRANCH   4   2
ENDBRANCH   5   4
ENDBRANCH   6   5
ENDBRANCH   9   7
TORSDOF 7
ENDMDL
MODEL 6
REMARK VINA RESULT:     -11.3      2.389      5.083
REMARK  Name = 
REMARK  7 active torsions:
REMARK  status: ('A' for Active; 'I' for Inactive)
REMARK    1  A    between atoms: C_2  and  C_4
REMARK    2  A    between atoms: C_4  and  C_5
REMARK    3  A    between atoms: C_5  and  N_6
REMARK    4  A    between atoms: C_5  and  C_29
REMARK    5  A    between atoms: C_7  and  C_9
REMARK    6  A    between atoms: C_11  and  N_12
REMARK    7  A    between atoms: N_15  and  C_16
REMARK                            x       y       z     vdW  Elec       q    Type
REMARK                         _______ _______ _______ _____ _____    ______ ____
ROOT
ATOM      9  C   UNL     1      -1.341   0.351  24.712  0.00  0.00    +0.033 C 
ATOM     10  C   UNL     1      -1.921   0.875  24.447  0.00  0.00    -0.002 C 
ATOM     11  C   UNL     1      -1.707   1.629  24.190  0.00  0.00    +0.152 C 
ATOM     24  C   UNL     1      -0.916   1.859  24.197  0.00  0.00    +0.206 C 
ATOM     25  O   UNL     1      -0.703   2.614  23.939  0.00  0.00    -0.218 OA
ATOM     26  C   UNL     1      -0.336   1.335  24.461  0.00  0.00    +0.189 C 
ATOM     27  O   UNL     1       0.456   1.565  24.468  0.00  0.00    -0.220 OA
ATOM     28  C   UNL     1      -0.549   0.580  24.719  0.00  0.00    +0.066 C 
ENDROOT
BRANCH  11  12
ATOM     12  N   UNL     1      -2.288   2.154  23.925  0.00  0.00    -0.181 NA
ATOM     13  C   UNL     1      -2.954   2.299  24.389  0.00  0.00    +0.344 C 
ATOM     14  O   UNL     1      -3.041   1.921  25.116  0.00  0.00    -0.249 OA
ATOM     15  N   UNL     1      -3.533   2.823  24.124  0.00  0.00    -0.159 NA
BRANCH  15  16
ATOM     16  C   UNL     1      -4.200   2.969  24.588  0.00  0.00    +0.102 A 
ATOM     17  C   UNL     1      -4.753   2.369  24.716  0.00  0.00    +0.021 A 
ATOM     18  C   UNL     1      -5.419   2.515  25.180  0.00  0.00    +0.031 A 
ATOM     19  C   UNL     1      -5.534   3.259  25.515  0.00  0.00    +0.142 A 
ATOM     20  F   UNL     1      -6.200   3.405  25.978  0.00  0.00    -0.204 F 
ATOM     21  C   UNL     1      -4.982   3.859  25.387  0.00  0.00    +0.061 A 
ATOM     22  C   UNL     1      -4.315   3.713  24.923  0.00  0.00    +0.158 A 
ATOM     23  F   UNL     1      -3.763   4.313  24.794  0.00  0.00    -0.203 F 
ENDBRANCH  15  16
ENDBRANCH  11  12
BRANCH   9   7
ATOM      6  N   UNL     1      -1.927  -0.926  24.451  0.00  0.00    -0.194 NA
ATOM      7  C   UNL     1      -1.554  -0.403  24.970  0.00  0.00    +0.261 C 
ATOM      8  O   UNL     1      -1.395  -0.635  25.745  0.00  0.00    -0.269 OA
BRANCH   6   5
ATOM      5  C   UNL     1      -2.141  -1.680  24.708  0.00  0.00    +0.175 C 
BRANCH   5  29
ATOM     29  C   UNL     1      -1.619  -2.312  24.612  0.00  0.00    +0.281 C 
ATOM     30  N   UNL     1      -1.374  -2.533  23.856  0.00  0.00    -0.086 NA
ATOM     31  O   UNL     1      -1.344  -2.724  25.272  0.00  0.00    -0.270 OA
ENDBRANCH   5  29
BRANCH   5   4
ATOM      4  C   UNL     1      -2.876  -1.802  25.062  0.00  0.00    +0.031 C 
BRANCH   4   2
ATOM      1  C   UNL     1      -4.017  -1.459  24.273  0.00  0.00    +0.000 C 
ATOM      2  C   UNL     1      -3.522  -2.031  24.603  0.00  0.00    +0.002 C 
ATOM      3  C   UNL     1      -3.672  -2.832  24.473  0.00  0.00    +0.000 C 
ENDBRANCH   4   2
ENDBRANCH   5   4
ENDBRANCH   6   5
ENDBRANCH   9   7
TORSDOF 7
ENDMDL
