REMARK  Name = 
REMARK  4 active torsions:
REMARK  status: ('A' for Active; 'I' for Inactive)
REMARK    1  A    between atoms: O_2  and  C_3
REMARK    2  A    between atoms: C_6  and  C_9
REMARK    3  A    between atoms: C_12  and  C_14
REMARK    4  A    between atoms: N_18  and  C_19
REMARK                            x       y       z     vdW  Elec       q    Type
REMARK                         _______ _______ _______ _____ _____    ______ ____
ROOT
ATOM      9  C   UNL     1       0.715   3.466   0.000  0.00  0.00    +0.205 A 
ATOM     10  N   UNL     1       1.382   2.981   0.000  0.00  0.00    -0.056 NA
ATOM     11  O   UNL     1       1.127   2.196   0.000  0.00  0.00    -0.336 OA
ATOM     12  C   UNL     1       0.302   2.196   0.000  0.00  0.00    +0.251 A 
ATOM     13  N   UNL     1       0.047   2.981   0.000  0.00  0.00    -0.190 NA
ENDROOT
BRANCH   9   6
ATOM      3  C   UNL     1       0.715   5.941   0.000  0.00  0.00    +0.225 A 
ATOM      4  N   UNL     1       1.429   5.529   0.000  0.00  0.00    -0.210 NA
ATOM      5  C   UNL     1       1.429   4.704   0.000  0.00  0.00    +0.105 A 
ATOM      6  C   UNL     1       0.715   4.291   0.000  0.00  0.00    +0.058 A 
ATOM      7  C   UNL     1       0.000   4.704   0.000  0.00  0.00    +0.010 A 
ATOM      8  C   UNL     1       0.000   5.529   0.000  0.00  0.00    +0.058 A 
BRANCH   3   2
ATOM      1  C   UNL     1       0.000   7.179   0.000  0.00  0.00    +0.254 C 
ATOM      2  O   UNL     1       0.715   6.766   0.000  0.00  0.00    -0.456 OA
ENDBRANCH   3   2
ENDBRANCH   9   6
BRANCH  12  14
ATOM     14  C   UNL     1      -0.183   1.529   0.000  0.00  0.00    +0.138 C 
ATOM     15  C   UNL     1       0.072   0.745   0.000  0.00  0.00    +0.027 C 
ATOM     16  C   UNL     1      -0.596   0.260   0.000  0.00  0.00    +0.019 C 
ATOM     17  C   UNL     1      -1.263   0.745   0.000  0.00  0.00    +0.072 C 
ATOM     18  N   UNL     1      -1.008   1.529   0.000  0.00  0.00    -0.268 NA
BRANCH  18  19
ATOM     19  C   UNL     1      -1.493   2.196   0.000  0.00  0.00    +0.058 C 
ATOM     20  C   UNL     1      -2.313   2.110   0.000  0.00  0.00    +0.017 C 
ATOM     21  C   UNL     1      -1.157   2.950   0.000  0.00  0.00    +0.017 C 
ENDBRANCH  18  19
ENDBRANCH  12  14
TORSDOF 4
