MODEL 1
REMARK VINA RESULT:      -9.1      0.000      0.000
REMARK  Name = 
REMARK  6 active torsions:
REMARK  status: ('A' for Active; 'I' for Inactive)
REMARK    1  A    between atoms: N_4  and  C_5
REMARK    2  A    between atoms: C_8  and  C_9
REMARK    3  A    between atoms: C_9  and  N_10
REMARK    4  A    between atoms: N_10  and  C_11
REMARK    5  A    between atoms: C_14  and  C_15
REMARK    6  A    between atoms: C_15  and  N_16
REMARK                            x       y       z     vdW  Elec       q    Type
REMARK                         _______ _______ _______ _____ _____    ______ ____
ROOT
ATOM     11  C   UNL     1      -4.303   1.440  24.683  0.00  0.00    +0.135 C 
ATOM     12  C   UNL     1      -4.836   1.079  25.199  0.00  0.00    +0.162 C 
ATOM     13  O   UNL     1      -4.729   0.262  25.145  0.00  0.00    -0.350 OA
ATOM     14  C   UNL     1      -4.131   0.119  24.595  0.00  0.00    +0.169 C 
ATOM     25  C   UNL     1      -3.868   0.847  24.310  0.00  0.00    +0.199 C 
ATOM     26  O   UNL     1      -3.273   0.962  23.749  0.00  0.00    -0.219 OA
ENDROOT
BRANCH  11  10
ATOM     10  N   UNL     1      -4.220   2.252  24.561  0.00  0.00    -0.209 NA
BRANCH  10   9
ATOM      9  C   UNL     1      -4.169   2.762  25.208  0.00  0.00    +0.115 C 
BRANCH   9   8
ATOM      5  C   UNL     1      -2.488   4.578  25.218  0.00  0.00    +0.073 A 
ATOM      6  C   UNL     1      -2.972   4.469  24.560  0.00  0.00    +0.016 A 
ATOM      7  C   UNL     1      -3.532   3.863  24.557  0.00  0.00    -0.002 A 
ATOM      8  C   UNL     1      -3.608   3.367  25.211  0.00  0.00    -0.005 A 
ATOM     27  C   UNL     1      -3.123   3.477  25.870  0.00  0.00    -0.002 A 
ATOM     28  C   UNL     1      -2.563   4.083  25.873  0.00  0.00    +0.016 A 
BRANCH   5   4
ATOM      1  C   UNL     1      -0.598   5.642  24.962  0.00  0.00    +0.097 C 
ATOM      2  C   UNL     1      -1.158   5.036  24.959  0.00  0.00    +0.246 C 
ATOM      3  O   UNL     1      -0.951   4.283  24.693  0.00  0.00    -0.273 OA
ATOM      4  N   UNL     1      -1.927   5.184  25.221  0.00  0.00    -0.179 NA
ENDBRANCH   5   4
ENDBRANCH   9   8
ENDBRANCH  10   9
ENDBRANCH  11  10
BRANCH  14  15
ATOM     15  C   UNL     1      -3.846  -0.622  24.370  0.00  0.00    +0.149 C 
BRANCH  15  16
ATOM     16  N   UNL     1      -4.368  -1.200  24.096  0.00  0.00    -0.186 NA
ATOM     17  C   UNL     1      -4.122  -1.984  24.041  0.00  0.00    +0.323 C 
ATOM     18  O   UNL     1      -4.644  -2.562  23.767  0.00  0.00    -0.251 OA
ATOM     19  N   UNL     1      -3.355  -2.193  24.260  0.00  0.00    -0.258 N 
ATOM     20  C   UNL     1      -2.833  -1.615  24.534  0.00  0.00    +0.127 C 
ATOM     21  C   UNL     1      -2.065  -1.824  24.752  0.00  0.00    +0.164 C 
ATOM     22  O   UNL     1      -1.820  -2.610  24.697  0.00  0.00    -0.350 OA
ATOM     23  C   UNL     1      -2.341  -3.187  24.424  0.00  0.00    +0.164 C 
ATOM     24  C   UNL     1      -3.109  -2.979  24.205  0.00  0.00    +0.127 C 
ENDBRANCH  15  16
ENDBRANCH  14  15
TORSDOF 6
ENDMDL
MODEL 2
REMARK VINA RESULT:      -8.7      3.748      5.180
REMARK  Name = 
REMARK  6 active torsions:
REMARK  status: ('A' for Active; 'I' for Inactive)
REMARK    1  A    between atoms: N_4  and  C_5
REMARK    2  A    between atoms: C_8  and  C_9
REMARK    3  A    between atoms: C_9  and  N_10
REMARK    4  A    between atoms: N_10  and  C_11
REMARK    5  A    between atoms: C_14  and  C_15
REMARK    6  A    between atoms: C_15  and  N_16
REMARK                            x       y       z     vdW  Elec       q    Type
REMARK                         _______ _______ _______ _____ _____    ______ ____
ROOT
ATOM     11  C   UNL     1      -0.889   0.028  24.165  0.00  0.00    +0.135 C 
ATOM     12  C   UNL     1      -0.576  -0.715  24.345  0.00  0.00    +0.162 C 
ATOM     13  O   UNL     1       0.161  -0.776  23.979  0.00  0.00    -0.350 OA
ATOM     14  C   UNL     1       0.304  -0.072  23.574  0.00  0.00    +0.169 C 
ATOM     25  C   UNL     1      -0.346   0.425  23.689  0.00  0.00    +0.199 C 
ATOM     26  O   UNL     1      -0.436   1.185  23.381  0.00  0.00    -0.219 OA
ENDROOT
BRANCH  11  10
ATOM     10  N   UNL     1      -1.618   0.320  24.418  0.00  0.00    -0.209 NA
BRANCH  10   9
ATOM      9  C   UNL     1      -2.286  -0.164  24.399  0.00  0.00    +0.115 C 
BRANCH   9   8
ATOM      5  C   UNL     1      -4.524   0.798  24.839  0.00  0.00    +0.073 A 
ATOM      6  C   UNL     1      -4.075   1.071  24.203  0.00  0.00    +0.016 A 
ATOM      7  C   UNL     1      -3.329   0.751  24.057  0.00  0.00    -0.002 A 
ATOM      8  C   UNL     1      -3.032   0.157  24.545  0.00  0.00    -0.005 A 
ATOM     27  C   UNL     1      -3.481  -0.117  25.182  0.00  0.00    -0.002 A 
ATOM     28  C   UNL     1      -4.227   0.203  25.328  0.00  0.00    +0.016 A 
BRANCH   5   4
ATOM      1  C   UNL     1      -6.084   2.171  25.507  0.00  0.00    +0.097 C 
ATOM      2  C   UNL     1      -5.338   1.851  25.360  0.00  0.00    +0.246 C 
ATOM      3  O   UNL     1      -4.660   2.261  25.588  0.00  0.00    -0.273 OA
ATOM      4  N   UNL     1      -5.269   1.118  24.985  0.00  0.00    -0.179 NA
ENDBRANCH   5   4
ENDBRANCH   9   8
ENDBRANCH  10   9
ENDBRANCH  11  10
BRANCH  14  15
ATOM     15  C   UNL     1       0.976   0.106  23.131  0.00  0.00    +0.149 C 
BRANCH  15  16
ATOM     16  N   UNL     1       1.078  -0.227  22.383  0.00  0.00    -0.186 NA
ATOM     17  C   UNL     1       1.808  -0.175  22.004  0.00  0.00    +0.323 C 
ATOM     18  O   UNL     1       1.910  -0.507  21.256  0.00  0.00    -0.251 OA
ATOM     19  N   UNL     1       2.438   0.210  22.373  0.00  0.00    -0.258 N 
ATOM     20  C   UNL     1       2.337   0.543  23.122  0.00  0.00    +0.127 C 
ATOM     21  C   UNL     1       2.967   0.928  23.490  0.00  0.00    +0.164 C 
ATOM     22  O   UNL     1       3.697   0.980  23.111  0.00  0.00    -0.350 OA
ATOM     23  C   UNL     1       3.799   0.648  22.363  0.00  0.00    +0.164 C 
ATOM     24  C   UNL     1       3.169   0.262  21.994  0.00  0.00    +0.127 C 
ENDBRANCH  15  16
ENDBRANCH  14  15
TORSDOF 6
ENDMDL
MODEL 3
REMARK VINA RESULT:      -8.6      1.886      2.663
REMARK  Name = 
REMARK  6 active torsions:
REMARK  status: ('A' for Active; 'I' for Inactive)
REMARK    1  A    between atoms: N_4  and  C_5
REMARK    2  A    between atoms: C_8  and  C_9
REMARK    3  A    between atoms: C_9  and  N_10
REMARK    4  A    between atoms: N_10  and  C_11
REMARK    5  A    between atoms: C_14  and  C_15
REMARK    6  A    between atoms: C_15  and  N_16
REMARK                            x       y       z     vdW  Elec       q    Type
REMARK                         _______ _______ _______ _____ _____    ______ ____
ROOT
ATOM     11  C   UNL     1      -0.753   0.483  25.002  0.00  0.00    +0.135 C 
ATOM     12  C   UNL     1      -0.310   0.035  24.468  0.00  0.00    +0.162 C 
ATOM     13  O   UNL     1      -0.732  -0.654  24.302  0.00  0.00    -0.350 OA
ATOM     14  C   UNL     1      -1.436  -0.632  24.732  0.00  0.00    +0.169 C 
ATOM     25  C   UNL     1      -1.449   0.071  25.164  0.00  0.00    +0.199 C 
ATOM     26  O   UNL     1      -2.052   0.319  25.670  0.00  0.00    -0.219 OA
ENDROOT
BRANCH  11  10
ATOM     10  N   UNL     1      -0.537   1.215  25.316  0.00  0.00    -0.209 NA
BRANCH  10   9
ATOM      9  C   UNL     1      -0.113   1.752  24.856  0.00  0.00    +0.115 C 
BRANCH   9   8
ATOM      5  C   UNL     1      -0.658   4.164  24.955  0.00  0.00    +0.073 A 
ATOM      6  C   UNL     1      -0.636   3.776  24.228  0.00  0.00    +0.016 A 
ATOM      7  C   UNL     1      -0.455   2.972  24.195  0.00  0.00    -0.002 A 
ATOM      8  C   UNL     1      -0.294   2.556  24.889  0.00  0.00    -0.005 A 
ATOM     27  C   UNL     1      -0.316   2.945  25.617  0.00  0.00    -0.002 A 
ATOM     28  C   UNL     1      -0.497   3.749  25.650  0.00  0.00    +0.016 A 
BRANCH   5   4
ATOM      1  C   UNL     1      -1.803   6.015  25.129  0.00  0.00    +0.097 C 
ATOM      2  C   UNL     1      -1.621   5.211  25.096  0.00  0.00    +0.246 C 
ATOM      3  O   UNL     1      -2.220   4.649  25.170  0.00  0.00    -0.273 OA
ATOM      4  N   UNL     1      -0.839   4.969  24.989  0.00  0.00    -0.179 NA
ENDBRANCH   5   4
ENDBRANCH   9   8
ENDBRANCH  10   9
ENDBRANCH  11  10
BRANCH  14  15
ATOM     15  C   UNL     1      -2.024  -1.210  24.730  0.00  0.00    +0.149 C 
BRANCH  15  16
ATOM     16  N   UNL     1      -1.818  -2.009  24.731  0.00  0.00    -0.186 NA
ATOM     17  C   UNL     1      -2.371  -2.578  24.509  0.00  0.00    +0.323 C 
ATOM     18  O   UNL     1      -2.165  -3.377  24.510  0.00  0.00    -0.251 OA
ATOM     19  N   UNL     1      -3.132  -2.350  24.285  0.00  0.00    -0.258 N 
ATOM     20  C   UNL     1      -3.338  -1.550  24.284  0.00  0.00    +0.127 C 
ATOM     21  C   UNL     1      -4.099  -1.322  24.060  0.00  0.00    +0.164 C 
ATOM     22  O   UNL     1      -4.652  -1.892  23.837  0.00  0.00    -0.350 OA
ATOM     23  C   UNL     1      -4.446  -2.690  23.839  0.00  0.00    +0.164 C 
ATOM     24  C   UNL     1      -3.685  -2.919  24.063  0.00  0.00    +0.127 C 
ENDBRANCH  15  16
ENDBRANCH  14  15
TORSDOF 6
ENDMDL
MODEL 4
REMARK VINA RESULT:      -8.5      1.748      6.289
REMARK  Name = 
REMARK  6 active torsions:
REMARK  status: ('A' for Active; 'I' for Inactive)
REMARK    1  A    between atoms: N_4  and  C_5
REMARK    2  A    between atoms: C_8  and  C_9
REMARK    3  A    between atoms: C_9  and  N_10
REMARK    4  A    between atoms: N_10  and  C_11
REMARK    5  A    between atoms: C_14  and  C_15
REMARK    6  A    between atoms: C_15  and  N_16
REMARK                            x       y       z     vdW  Elec       q    Type
REMARK                         _______ _______ _______ _____ _____    ______ ____
ROOT
ATOM     11  C   UNL     1      -1.110   0.744  25.309  0.00  0.00    +0.135 C 
ATOM     12  C   UNL     1      -0.650   0.935  25.968  0.00  0.00    +0.162 C 
ATOM     13  O   UNL     1      -0.684   1.753  26.074  0.00  0.00    -0.350 OA
ATOM     14  C   UNL     1      -1.164   2.067  25.481  0.00  0.00    +0.169 C 
ATOM     25  C   UNL     1      -1.427   1.444  25.008  0.00  0.00    +0.199 C 
ATOM     26  O   UNL     1      -1.921   1.509  24.350  0.00  0.00    -0.219 OA
ENDROOT
BRANCH  11  10
ATOM     10  N   UNL     1      -1.231  -0.013  25.004  0.00  0.00    -0.209 NA
BRANCH  10   9
ATOM      9  C   UNL     1      -1.439  -0.631  25.510  0.00  0.00    +0.115 C 
BRANCH   9   8
ATOM      5  C   UNL     1      -3.002  -2.387  24.734  0.00  0.00    +0.073 A 
ATOM      6  C   UNL     1      -2.244  -2.339  24.414  0.00  0.00    +0.016 A 
ATOM      7  C   UNL     1      -1.723  -1.754  24.672  0.00  0.00    -0.002 A 
ATOM      8  C   UNL     1      -1.960  -1.217  25.251  0.00  0.00    -0.005 A 
ATOM     27  C   UNL     1      -2.720  -1.265  25.572  0.00  0.00    -0.002 A 
ATOM     28  C   UNL     1      -3.240  -1.850  25.313  0.00  0.00    +0.016 A 
BRANCH   5   4
ATOM      1  C   UNL     1      -4.628  -3.375  23.662  0.00  0.00    +0.097 C 
ATOM      2  C   UNL     1      -4.107  -2.790  23.921  0.00  0.00    +0.246 C 
ATOM      3  O   UNL     1      -4.168  -2.022  23.625  0.00  0.00    -0.273 OA
ATOM      4  N   UNL     1      -3.523  -2.972  24.475  0.00  0.00    -0.179 NA
ENDBRANCH   5   4
ENDBRANCH   9   8
ENDBRANCH  10   9
ENDBRANCH  11  10
BRANCH  14  15
ATOM     15  C   UNL     1      -1.348   2.864  25.378  0.00  0.00    +0.149 C 
BRANCH  15  16
ATOM     16  N   UNL     1      -2.001   3.190  25.763  0.00  0.00    -0.186 NA
ATOM     17  C   UNL     1      -2.127   4.005  25.744  0.00  0.00    +0.323 C 
ATOM     18  O   UNL     1      -2.780   4.331  26.129  0.00  0.00    -0.251 OA
ATOM     19  N   UNL     1      -1.600   4.495  25.340  0.00  0.00    -0.258 N 
ATOM     20  C   UNL     1      -0.947   4.169  24.955  0.00  0.00    +0.127 C 
ATOM     21  C   UNL     1      -0.420   4.659  24.551  0.00  0.00    +0.164 C 
ATOM     22  O   UNL     1      -0.546   5.474  24.532  0.00  0.00    -0.350 OA
ATOM     23  C   UNL     1      -1.199   5.799  24.917  0.00  0.00    +0.164 C 
ATOM     24  C   UNL     1      -1.726   5.310  25.321  0.00  0.00    +0.127 C 
ENDBRANCH  15  16
ENDBRANCH  14  15
TORSDOF 6
ENDMDL
MODEL 5
REMARK VINA RESULT:      -8.5      3.575      5.165
REMARK  Name = 
REMARK  6 active torsions:
REMARK  status: ('A' for Active; 'I' for Inactive)
REMARK    1  A    between atoms: N_4  and  C_5
REMARK    2  A    between atoms: C_8  and  C_9
REMARK    3  A    between atoms: C_9  and  N_10
REMARK    4  A    between atoms: N_10  and  C_11
REMARK    5  A    between atoms: C_14  and  C_15
REMARK    6  A    between atoms: C_15  and  N_16
REMARK                            x       y       z     vdW  Elec       q    Type
REMARK                         _______ _______ _______ _____ _____    ______ ____
ROOT
ATOM     11  C   UNL     1      -1.426   0.908  24.141  0.00  0.00    +0.135 C 
ATOM     12  C   UNL     1      -1.588   0.495  24.837  0.00  0.00    +0.162 C 
ATOM     13  O   UNL     1      -2.343   0.712  25.092  0.00  0.00    -0.350 OA
ATOM     14  C   UNL     1      -2.646   1.259  24.554  0.00  0.00    +0.169 C 
ATOM     25  C   UNL     1      -2.079   1.380  23.966  0.00  0.00    +0.199 C 
ATOM     26  O   UNL     1      -2.153   1.884  23.317  0.00  0.00    -0.219 OA
ENDROOT
BRANCH  11  10
ATOM     10  N   UNL     1      -0.732   0.857  23.698  0.00  0.00    -0.209 NA
BRANCH  10   9
ATOM      9  C   UNL     1      -0.114   0.374  23.954  0.00  0.00    +0.115 C 
BRANCH   9   8
ATOM      5  C   UNL     1       2.047   0.387  22.747  0.00  0.00    +0.073 A 
ATOM      6  C   UNL     1       1.543  -0.263  22.683  0.00  0.00    +0.016 A 
ATOM      7  C   UNL     1       0.823  -0.267  23.086  0.00  0.00    -0.002 A 
ATOM      8  C   UNL     1       0.607   0.378  23.552  0.00  0.00    -0.005 A 
ATOM     27  C   UNL     1       1.111   1.029  23.615  0.00  0.00    -0.002 A 
ATOM     28  C   UNL     1       1.832   1.033  23.213  0.00  0.00    +0.016 A 
BRANCH   5   4
ATOM      1  C   UNL     1       4.187   0.557  22.349  0.00  0.00    +0.097 C 
ATOM      2  C   UNL     1       3.467   0.553  22.752  0.00  0.00    +0.246 C 
ATOM      3  O   UNL     1       3.445   0.710  23.561  0.00  0.00    -0.273 OA
ATOM      4  N   UNL     1       2.767   0.391  22.344  0.00  0.00    -0.179 NA
ENDBRANCH   5   4
ENDBRANCH   9   8
ENDBRANCH  10   9
ENDBRANCH  11  10
BRANCH  14  15
ATOM     15  C   UNL     1      -3.386   1.621  24.596  0.00  0.00    +0.149 C 
BRANCH  15  16
ATOM     16  N   UNL     1      -4.071   1.161  24.616  0.00  0.00    -0.186 NA
ATOM     17  C   UNL     1      -4.780   1.490  24.876  0.00  0.00    +0.323 C 
ATOM     18  O   UNL     1      -5.465   1.030  24.897  0.00  0.00    -0.251 OA
ATOM     19  N   UNL     1      -4.807   2.278  25.117  0.00  0.00    -0.258 N 
ATOM     20  C   UNL     1      -4.121   2.739  25.097  0.00  0.00    +0.127 C 
ATOM     21  C   UNL     1      -4.148   3.527  25.338  0.00  0.00    +0.164 C 
ATOM     22  O   UNL     1      -4.858   3.856  25.598  0.00  0.00    -0.350 OA
ATOM     23  C   UNL     1      -5.542   3.396  25.618  0.00  0.00    +0.164 C 
ATOM     24  C   UNL     1      -5.517   2.607  25.378  0.00  0.00    +0.127 C 
ENDBRANCH  15  16
ENDBRANCH  14  15
TORSDOF 6
ENDMDL
MODEL 6
REMARK VINA RESULT:      -8.1      1.063      5.811
REMARK  Name = 
REMARK  6 active torsions:
REMARK  status: ('A' for Active; 'I' for Inactive)
REMARK    1  A    between atoms: N_4  and  C_5
REMARK    2  A    between atoms: C_8  and  C_9
REMARK    3  A    between atoms: C_9  and  N_10
REMARK    4  A    between atoms: N_10  and  C_11
REMARK    5  A    between atoms: C_14  and  C_15
REMARK    6  A    between atoms: C_15  and  N_16
REMARK                            x       y       z     vdW  Elec       q    Type
REMARK                         _______ _______ _______ _____ _____    ______ ____
ROOT
ATOM     11  C   UNL     1      -4.182   1.595  24.776  0.00  0.00    +0.135 C 
ATOM     12  C   UNL     1      -4.675   2.020  25.284  0.00  0.00    +0.162 C 
ATOM     13  O   UNL     1      -4.315   2.745  25.442  0.00  0.00    -0.350 OA
ATOM     14  C   UNL     1      -3.599   2.769  25.032  0.00  0.00    +0.169 C 
ATOM     25  C   UNL     1      -3.518   2.058  24.621  0.00  0.00    +0.199 C 
ATOM     26  O   UNL     1      -2.882   1.847  24.138  0.00  0.00    -0.219 OA
ENDROOT
BRANCH  11  10
ATOM     10  N   UNL     1      -4.329   0.841  24.477  0.00  0.00    -0.209 NA
BRANCH  10   9
ATOM      9  C   UNL     1      -4.538   0.228  24.988  0.00  0.00    +0.115 C 
BRANCH   9   8
ATOM      5  C   UNL     1      -3.672  -2.058  24.598  0.00  0.00    +0.073 A 
ATOM      6  C   UNL     1      -4.099  -1.673  24.008  0.00  0.00    +0.016 A 
ATOM      7  C   UNL     1      -4.388  -0.911  24.138  0.00  0.00    -0.002 A 
ATOM      8  C   UNL     1      -4.249  -0.534  24.858  0.00  0.00    -0.005 A 
ATOM     27  C   UNL     1      -3.822  -0.920  25.450  0.00  0.00    -0.002 A 
ATOM     28  C   UNL     1      -3.533  -1.682  25.320  0.00  0.00    +0.016 A 
BRANCH   5   4
ATOM      1  C   UNL     1      -2.308  -3.692  24.114  0.00  0.00    +0.097 C 
ATOM      2  C   UNL     1      -2.596  -2.930  24.244  0.00  0.00    +0.246 C 
ATOM      3  O   UNL     1      -2.099  -2.279  24.151  0.00  0.00    -0.273 OA
ATOM      4  N   UNL     1      -3.383  -2.820  24.468  0.00  0.00    -0.179 NA
ENDBRANCH   5   4
ENDBRANCH   9   8
ENDBRANCH  10   9
ENDBRANCH  11  10
BRANCH  14  15
ATOM     15  C   UNL     1      -3.060   3.393  25.033  0.00  0.00    +0.149 C 
BRANCH  15  16
ATOM     16  N   UNL     1      -3.213   4.070  25.480  0.00  0.00    -0.186 NA
ATOM     17  C   UNL     1      -2.633   4.650  25.559  0.00  0.00    +0.323 C 
ATOM     18  O   UNL     1      -2.786   5.328  26.006  0.00  0.00    -0.251 OA
ATOM     19  N   UNL     1      -1.900   4.556  25.193  0.00  0.00    -0.258 N 
ATOM     20  C   UNL     1      -1.747   3.878  24.746  0.00  0.00    +0.127 C 
ATOM     21  C   UNL     1      -1.014   3.783  24.380  0.00  0.00    +0.164 C 
ATOM     22  O   UNL     1      -0.435   4.365  24.459  0.00  0.00    -0.350 OA
ATOM     23  C   UNL     1      -0.587   5.041  24.906  0.00  0.00    +0.164 C 
ATOM     24  C   UNL     1      -1.321   5.137  25.273  0.00  0.00    +0.127 C 
ENDBRANCH  15  16
ENDBRANCH  14  15
TORSDOF 6
ENDMDL
MODEL 7
REMARK VINA RESULT:      -7.9      4.775      6.018
REMARK  Name = 
REMARK  6 active torsions:
REMARK  status: ('A' for Active; 'I' for Inactive)
REMARK    1  A    between atoms: N_4  and  C_5
REMARK    2  A    between atoms: C_8  and  C_9
REMARK    3  A    between atoms: C_9  and  N_10
REMARK    4  A    between atoms: N_10  and  C_11
REMARK    5  A    between atoms: C_14  and  C_15
REMARK    6  A    between atoms: C_15  and  N_16
REMARK                            x       y       z     vdW  Elec       q    Type
REMARK                         _______ _______ _______ _____ _____    ______ ____
ROOT
ATOM     11  C   UNL     1       0.513   0.512  23.562  0.00  0.00    +0.135 C 
ATOM     12  C   UNL     1       0.084  -0.113  23.236  0.00  0.00    +0.162 C 
ATOM     13  O   UNL     1      -0.708  -0.017  23.446  0.00  0.00    -0.350 OA
ATOM     14  C   UNL     1      -0.769   0.668  23.903  0.00  0.00    +0.169 C 
ATOM     25  C   UNL     1      -0.014   0.994  23.974  0.00  0.00    +0.199 C 
ATOM     26  O   UNL     1       0.180   1.683  24.386  0.00  0.00    -0.219 OA
ENDROOT
BRANCH  11  10
ATOM     10  N   UNL     1       1.326   0.632  23.489  0.00  0.00    -0.209 NA
BRANCH  10   9
ATOM      9  C   UNL     1       1.739   0.286  22.864  0.00  0.00    +0.115 C 
BRANCH   9   8
ATOM      5  C   UNL     1       4.213   0.215  22.908  0.00  0.00    +0.073 A 
ATOM      6  C   UNL     1       3.778  -0.469  23.059  0.00  0.00    +0.016 A 
ATOM      7  C   UNL     1       2.954  -0.445  23.044  0.00  0.00    -0.002 A 
ATOM      8  C   UNL     1       2.564   0.263  22.879  0.00  0.00    -0.005 A 
ATOM     27  C   UNL     1       2.999   0.948  22.728  0.00  0.00    -0.002 A 
ATOM     28  C   UNL     1       3.824   0.924  22.742  0.00  0.00    +0.016 A 
BRANCH   5   4
ATOM      1  C   UNL     1       6.265   0.269  23.650  0.00  0.00    +0.097 C 
ATOM      2  C   UNL     1       5.441   0.293  23.636  0.00  0.00    +0.246 C 
ATOM      3  O   UNL     1       5.019   0.417  24.334  0.00  0.00    -0.273 OA
ATOM      4  N   UNL     1       5.037   0.192  22.923  0.00  0.00    -0.179 NA
ENDBRANCH   5   4
ENDBRANCH   9   8
ENDBRANCH  10   9
ENDBRANCH  11  10
BRANCH  14  15
ATOM     15  C   UNL     1      -1.461   0.973  24.230  0.00  0.00    +0.149 C 
BRANCH  15  16
ATOM     16  N   UNL     1      -1.923   0.506  24.730  0.00  0.00    -0.186 NA
ATOM     17  C   UNL     1      -2.711   0.703  24.867  0.00  0.00    +0.323 C 
ATOM     18  O   UNL     1      -3.173   0.236  25.367  0.00  0.00    -0.251 OA
ATOM     19  N   UNL     1      -3.040   1.368  24.504  0.00  0.00    -0.258 N 
ATOM     20  C   UNL     1      -2.578   1.835  24.005  0.00  0.00    +0.127 C 
ATOM     21  C   UNL     1      -2.907   2.499  23.642  0.00  0.00    +0.164 C 
ATOM     22  O   UNL     1      -3.696   2.696  23.780  0.00  0.00    -0.350 OA
ATOM     23  C   UNL     1      -4.157   2.229  24.279  0.00  0.00    +0.164 C 
ATOM     24  C   UNL     1      -3.829   1.565  24.642  0.00  0.00    +0.127 C 
ENDBRANCH  15  16
ENDBRANCH  14  15
TORSDOF 6
ENDMDL
MODEL 8
REMARK VINA RESULT:      -7.2     13.949     16.910
REMARK  Name = 
REMARK  6 active torsions:
REMARK  status: ('A' for Active; 'I' for Inactive)
REMARK    1  A    between atoms: N_4  and  C_5
REMARK    2  A    between atoms: C_8  and  C_9
REMARK    3  A    between atoms: C_9  and  N_10
REMARK    4  A    between atoms: N_10  and  C_11
REMARK    5  A    between atoms: C_14  and  C_15
REMARK    6  A    between atoms: C_15  and  N_16
REMARK                            x       y       z     vdW  Elec       q    Type
REMARK                         _______ _______ _______ _____ _____    ______ ____
ROOT
ATOM     11  C   UNL     1      -5.368 -10.031  13.138  0.00  0.00    +0.135 C 
ATOM     12  C   UNL     1      -4.747 -10.563  13.025  0.00  0.00    +0.162 C 
ATOM     13  O   UNL     1      -4.485 -10.488  12.246  0.00  0.00    -0.350 OA
ATOM     14  C   UNL     1      -4.943  -9.909  11.878  0.00  0.00    +0.169 C 
ATOM     25  C   UNL     1      -5.489  -9.627  12.429  0.00  0.00    +0.199 C 
ATOM     26  O   UNL     1      -6.057  -9.044  12.294  0.00  0.00    -0.219 OA
ENDROOT
BRANCH  11  10
ATOM     10  N   UNL     1      -5.793  -9.922  13.837  0.00  0.00    -0.209 NA
BRANCH  10   9
ATOM      9  C   UNL     1      -5.580 -10.338  14.517  0.00  0.00    +0.115 C 
BRANCH   9   8
ATOM      5  C   UNL     1      -6.869 -10.031  16.607  0.00  0.00    +0.073 A 
ATOM      6  C   UNL     1      -6.176  -9.602  16.484  0.00  0.00    +0.016 A 
ATOM      7  C   UNL     1      -5.746  -9.704  15.787  0.00  0.00    -0.002 A 
ATOM      8  C   UNL     1      -6.010 -10.236  15.214  0.00  0.00    -0.005 A 
ATOM     27  C   UNL     1      -6.704 -10.665  15.338  0.00  0.00    -0.002 A 
ATOM     28  C   UNL     1      -7.133 -10.563  16.035  0.00  0.00    +0.016 A 
BRANCH   5   4
ATOM      1  C   UNL     1      -8.354  -9.288  18.025  0.00  0.00    +0.097 C 
ATOM      2  C   UNL     1      -7.925  -9.390  17.328  0.00  0.00    +0.246 C 
ATOM      3  O   UNL     1      -8.120  -8.956  16.655  0.00  0.00    -0.273 OA
ATOM      4  N   UNL     1      -7.299  -9.929  17.304  0.00  0.00    -0.179 NA
ENDBRANCH   5   4
ENDBRANCH   9   8
ENDBRANCH  10   9
ENDBRANCH  11  10
BRANCH  14  15
ATOM     15  C   UNL     1      -4.870  -9.657  11.096  0.00  0.00    +0.149 C 
BRANCH  15  16
ATOM     16  N   UNL     1      -4.157  -9.336  10.831  0.00  0.00    -0.186 NA
ATOM     17  C   UNL     1      -4.008  -9.276  10.023  0.00  0.00    +0.323 C 
ATOM     18  O   UNL     1      -3.295  -8.954   9.757  0.00  0.00    -0.251 OA
ATOM     19  N   UNL     1      -4.570  -9.536   9.478  0.00  0.00    -0.258 N 
ATOM     20  C   UNL     1      -5.283  -9.858   9.743  0.00  0.00    +0.127 C 
ATOM     21  C   UNL     1      -5.845 -10.118   9.198  0.00  0.00    +0.164 C 
ATOM     22  O   UNL     1      -5.695 -10.057   8.390  0.00  0.00    -0.350 OA
ATOM     23  C   UNL     1      -4.983  -9.736   8.125  0.00  0.00    +0.164 C 
ATOM     24  C   UNL     1      -4.420  -9.476   8.669  0.00  0.00    +0.127 C 
ENDBRANCH  15  16
ENDBRANCH  14  15
TORSDOF 6
ENDMDL
MODEL 9
REMARK VINA RESULT:      -7.1     13.932     15.464
REMARK  Name = 
REMARK  6 active torsions:
REMARK  status: ('A' for Active; 'I' for Inactive)
REMARK    1  A    between atoms: N_4  and  C_5
REMARK    2  A    between atoms: C_8  and  C_9
REMARK    3  A    between atoms: C_9  and  N_10
REMARK    4  A    between atoms: N_10  and  C_11
REMARK    5  A    between atoms: C_14  and  C_15
REMARK    6  A    between atoms: C_15  and  N_16
REMARK                            x       y       z     vdW  Elec       q    Type
REMARK                         _______ _______ _______ _____ _____    ______ ____
ROOT
ATOM     11  C   UNL     1      -5.319 -10.336  15.757  0.00  0.00    +0.135 C 
ATOM     12  C   UNL     1      -4.774 -10.676  16.275  0.00  0.00    +0.162 C 
ATOM     13  O   UNL     1      -4.064 -10.781  15.867  0.00  0.00    -0.350 OA
ATOM     14  C   UNL     1      -4.171 -10.505  15.096  0.00  0.00    +0.169 C 
ATOM     25  C   UNL     1      -4.946 -10.230  15.029  0.00  0.00    +0.199 C 
ATOM     26  O   UNL     1      -5.289  -9.906  14.352  0.00  0.00    -0.219 OA
ENDROOT
BRANCH  11  10
ATOM     10  N   UNL     1      -6.099 -10.136  15.937  0.00  0.00    -0.209 NA
BRANCH  10   9
ATOM      9  C   UNL     1      -6.404 -10.299  16.686  0.00  0.00    +0.115 C 
BRANCH   9   8
ATOM      5  C   UNL     1      -8.660  -9.490  17.305  0.00  0.00    +0.073 A 
ATOM      6  C   UNL     1      -7.996  -9.035  17.482  0.00  0.00    +0.016 A 
ATOM      7  C   UNL     1      -7.244  -9.305  17.275  0.00  0.00    -0.002 A 
ATOM      8  C   UNL     1      -7.156 -10.030  16.892  0.00  0.00    -0.005 A 
ATOM     27  C   UNL     1      -7.821 -10.486  16.715  0.00  0.00    -0.002 A 
ATOM     28  C   UNL     1      -8.573 -10.216  16.921  0.00  0.00    +0.016 A 
BRANCH   5   4
ATOM      1  C   UNL     1     -10.486  -8.294  17.334  0.00  0.00    +0.097 C 
ATOM      2  C   UNL     1      -9.734  -8.564  17.128  0.00  0.00    +0.246 C 
ATOM      3  O   UNL     1      -9.304  -8.178  16.539  0.00  0.00    -0.273 OA
ATOM      4  N   UNL     1      -9.411  -9.220  17.511  0.00  0.00    -0.179 NA
ENDBRANCH   5   4
ENDBRANCH   9   8
ENDBRANCH  10   9
ENDBRANCH  11  10
BRANCH  14  15
ATOM     15  C   UNL     1      -3.603 -10.504  14.499  0.00  0.00    +0.149 C 
BRANCH  15  16
ATOM     16  N   UNL     1      -2.805 -10.409  14.687  0.00  0.00    -0.186 NA
ATOM     17  C   UNL     1      -2.236 -10.429  14.091  0.00  0.00    +0.323 C 
ATOM     18  O   UNL     1      -1.438 -10.333  14.279  0.00  0.00    -0.251 OA
ATOM     19  N   UNL     1      -2.463 -10.545  13.306  0.00  0.00    -0.258 N 
ATOM     20  C   UNL     1      -3.261 -10.641  13.118  0.00  0.00    +0.127 C 
ATOM     21  C   UNL     1      -3.487 -10.757  12.333  0.00  0.00    +0.164 C 
ATOM     22  O   UNL     1      -2.917 -10.777  11.738  0.00  0.00    -0.350 OA
ATOM     23  C   UNL     1      -2.120 -10.681  11.926  0.00  0.00    +0.164 C 
ATOM     24  C   UNL     1      -1.893 -10.565  12.711  0.00  0.00    +0.127 C 
ENDBRANCH  15  16
ENDBRANCH  14  15
TORSDOF 6
ENDMDL
MODEL 10
REMARK VINA RESULT:      -6.8     13.544     15.966
REMARK  Name = 
REMARK  6 active torsions:
REMARK  status: ('A' for Active; 'I' for Inactive)
REMARK    1  A    between atoms: N_4  and  C_5
REMARK    2  A    between atoms: C_8  and  C_9
REMARK    3  A    between atoms: C_9  and  N_10
REMARK    4  A    between atoms: N_10  and  C_11
REMARK    5  A    between atoms: C_14  and  C_15
REMARK    6  A    between atoms: C_15  and  N_16
REMARK                            x       y       z     vdW  Elec       q    Type
REMARK                         _______ _______ _______ _____ _____    ______ ____
ROOT
ATOM     11  C   UNL     1      -6.201 -10.316  14.445  0.00  0.00    +0.135 C 
ATOM     12  C   UNL     1      -6.906 -10.736  14.533  0.00  0.00    +0.162 C 
ATOM     13  O   UNL     1      -7.111 -10.723  15.333  0.00  0.00    -0.350 OA
ATOM     14  C   UNL     1      -6.533 -10.296  15.738  0.00  0.00    +0.169 C 
ATOM     25  C   UNL     1      -5.971 -10.044  15.189  0.00  0.00    +0.199 C 
ATOM     26  O   UNL     1      -5.296  -9.598  15.355  0.00  0.00    -0.219 OA
ENDROOT
BRANCH  11  10
ATOM     10  N   UNL     1      -5.797 -10.190  13.736  0.00  0.00    -0.209 NA
BRANCH  10   9
ATOM      9  C   UNL     1      -6.163 -10.364  13.017  0.00  0.00    +0.115 C 
BRANCH   9   8
ATOM      5  C   UNL     1      -4.979  -9.920  10.890  0.00  0.00    +0.073 A 
ATOM      6  C   UNL     1      -4.563 -10.207  11.540  0.00  0.00    +0.016 A 
ATOM      7  C   UNL     1      -4.957 -10.355  12.250  0.00  0.00    -0.002 A 
ATOM      8  C   UNL     1      -5.768 -10.216  12.308  0.00  0.00    -0.005 A 
ATOM     27  C   UNL     1      -6.185  -9.928  11.656  0.00  0.00    -0.002 A 
ATOM     28  C   UNL     1      -5.791  -9.780  10.947  0.00  0.00    +0.016 A 
BRANCH   5   4
ATOM      1  C   UNL     1      -3.862  -8.879   9.328  0.00  0.00    +0.097 C 
ATOM      2  C   UNL     1      -4.257  -9.027  10.038  0.00  0.00    +0.246 C 
ATOM      3  O   UNL     1      -4.324  -8.432  10.605  0.00  0.00    -0.273 OA
ATOM      4  N   UNL     1      -4.585  -9.772  10.180  0.00  0.00    -0.179 NA
ENDBRANCH   5   4
ENDBRANCH   9   8
ENDBRANCH  10   9
ENDBRANCH  11  10
BRANCH  14  15
ATOM     15  C   UNL     1      -6.520 -10.146  16.549  0.00  0.00    +0.149 C 
BRANCH  15  16
ATOM     16  N   UNL     1      -7.185  -9.828  16.921  0.00  0.00    -0.186 NA
ATOM     17  C   UNL     1      -7.235  -9.829  17.744  0.00  0.00    +0.323 C 
ATOM     18  O   UNL     1      -7.900  -9.511  18.116  0.00  0.00    -0.251 OA
ATOM     19  N   UNL     1      -6.622 -10.146  18.196  0.00  0.00    -0.258 N 
ATOM     20  C   UNL     1      -5.958 -10.464  17.823  0.00  0.00    +0.127 C 
ATOM     21  C   UNL     1      -5.345 -10.781  18.275  0.00  0.00    +0.164 C 
ATOM     22  O   UNL     1      -5.396 -10.781  19.098  0.00  0.00    -0.350 OA
ATOM     23  C   UNL     1      -6.060 -10.464  19.470  0.00  0.00    +0.164 C 
ATOM     24  C   UNL     1      -6.674 -10.146  19.019  0.00  0.00    +0.127 C 
ENDBRANCH  15  16
ENDBRANCH  14  15
TORSDOF 6
ENDMDL
