MODEL 1
REMARK VINA RESULT:     -13.2      0.000      0.000
REMARK  Name = 
REMARK  6 active torsions:
REMARK  status: ('A' for Active; 'I' for Inactive)
REMARK    1  A    between atoms: C_2  and  C_5
REMARK    2  A    between atoms: C_7  and  C_8
REMARK    3  A    between atoms: C_8  and  C_9
REMARK    4  A    between atoms: C_14  and  C_15
REMARK    5  A    between atoms: C_15  and  C_16
REMARK    6  A    between atoms: N_18  and  C_19
REMARK                            x       y       z     vdW  Elec       q    Type
REMARK                         _______ _______ _______ _____ _____    ______ ____
ROOT
ATOM      9  C   UNL     1      -4.492   2.796  25.065  0.00  0.00    +0.024 C 
ATOM     10  C   UNL     1      -4.891   3.304  25.579  0.00  0.00    +0.089 C 
ATOM     11  N   UNL     1      -5.543   3.032  26.005  0.00  0.00    -0.218 NA
ATOM     12  C   UNL     1      -5.797   2.253  25.917  0.00  0.00    +0.089 C 
ATOM     13  C   UNL     1      -5.399   1.745  25.403  0.00  0.00    +0.019 C 
ATOM     14  C   UNL     1      -4.747   2.016  24.978  0.00  0.00    +0.012 C 
ENDROOT
BRANCH   9   8
ATOM      8  C   UNL     1      -3.840   3.068  24.640  0.00  0.00    +0.051 C 
BRANCH   8   7
ATOM      5  C   UNL     1      -2.148   4.217  25.252  0.00  0.00    +0.153 A 
ATOM      6  C   UNL     1      -2.569   3.807  24.673  0.00  0.00    +0.054 A 
ATOM      7  C   UNL     1      -3.257   3.513  25.019  0.00  0.00    +0.100 A 
ATOM     25  N   UNL     1      -3.262   3.742  25.811  0.00  0.00    -0.082 NA
ATOM     26  O   UNL     1      -2.577   4.177  25.955  0.00  0.00    -0.358 OA
BRANCH   5   2
ATOM      1  C   UNL     1      -0.703   4.984  25.040  0.00  0.00    +0.008 C 
ATOM      2  C   UNL     1      -1.425   4.601  25.146  0.00  0.00    +0.054 C 
ATOM      3  C   UNL     1      -1.813   5.329  25.134  0.00  0.00    +0.008 C 
ATOM      4  C   UNL     1      -1.037   3.873  25.158  0.00  0.00    +0.008 C 
ENDBRANCH   5   2
ENDBRANCH   8   7
ENDBRANCH   9   8
BRANCH  14  15
ATOM     15  C   UNL     1      -4.348   1.508  24.464  0.00  0.00    +0.087 C 
BRANCH  15  16
ATOM     16  C   UNL     1      -4.350   0.696  24.603  0.00  0.00    +0.241 C 
ATOM     17  O   UNL     1      -5.012   0.337  24.941  0.00  0.00    -0.273 OA
ATOM     18  N   UNL     1      -3.690   0.241  24.405  0.00  0.00    -0.207 NA
BRANCH  18  19
ATOM     19  C   UNL     1      -3.693  -0.572  24.545  0.00  0.00    +0.095 C 
ATOM     20  C   UNL     1      -3.986  -1.088  23.973  0.00  0.00    +0.022 C 
ATOM     21  C   UNL     1      -3.989  -1.901  24.111  0.00  0.00    +0.002 C 
ATOM     22  C   UNL     1      -3.697  -2.198  24.824  0.00  0.00    +0.000 C 
ATOM     23  C   UNL     1      -3.404  -1.683  25.396  0.00  0.00    +0.002 C 
ATOM     24  C   UNL     1      -3.401  -0.869  25.258  0.00  0.00    +0.022 C 
ENDBRANCH  18  19
ENDBRANCH  15  16
ENDBRANCH  14  15
TORSDOF 6
ENDMDL
MODEL 2
REMARK VINA RESULT:     -12.9      0.947      5.086
REMARK  Name = 
REMARK  6 active torsions:
REMARK  status: ('A' for Active; 'I' for Inactive)
REMARK    1  A    between atoms: C_2  and  C_5
REMARK    2  A    between atoms: C_7  and  C_8
REMARK    3  A    between atoms: C_8  and  C_9
REMARK    4  A    between atoms: C_14  and  C_15
REMARK    5  A    between atoms: C_15  and  C_16
REMARK    6  A    between atoms: N_18  and  C_19
REMARK                            x       y       z     vdW  Elec       q    Type
REMARK                         _______ _______ _______ _____ _____    ______ ____
ROOT
ATOM      9  C   UNL     1      -4.067   1.296  24.687  0.00  0.00    +0.024 C 
ATOM     10  C   UNL     1      -4.883   1.190  24.633  0.00  0.00    +0.089 C 
ATOM     11  N   UNL     1      -5.394   1.794  24.867  0.00  0.00    -0.218 NA
ATOM     12  C   UNL     1      -5.089   2.504  25.156  0.00  0.00    +0.089 C 
ATOM     13  C   UNL     1      -4.272   2.610  25.209  0.00  0.00    +0.019 C 
ATOM     14  C   UNL     1      -3.762   2.006  24.975  0.00  0.00    +0.012 C 
ENDROOT
BRANCH   9   8
ATOM      8  C   UNL     1      -3.555   0.692  24.452  0.00  0.00    +0.051 C 
BRANCH   8   7
ATOM      5  C   UNL     1      -3.809  -1.416  24.669  0.00  0.00    +0.153 A 
ATOM      6  C   UNL     1      -3.589  -0.759  24.220  0.00  0.00    +0.054 A 
ATOM      7  C   UNL     1      -3.705  -0.086  24.682  0.00  0.00    +0.100 A 
ATOM     25  N   UNL     1      -3.996  -0.326  25.415  0.00  0.00    -0.082 NA
ATOM     26  O   UNL     1      -4.061  -1.148  25.407  0.00  0.00    -0.358 OA
BRANCH   5   2
ATOM      1  C   UNL     1      -3.755  -2.989  24.174  0.00  0.00    +0.008 C 
ATOM      2  C   UNL     1      -3.782  -2.203  24.421  0.00  0.00    +0.054 C 
ATOM      3  C   UNL     1      -3.271  -2.381  25.044  0.00  0.00    +0.008 C 
ATOM      4  C   UNL     1      -4.293  -2.025  23.798  0.00  0.00    +0.008 C 
ENDBRANCH   5   2
ENDBRANCH   8   7
ENDBRANCH   9   8
BRANCH  14  15
ATOM     15  C   UNL     1      -2.945   2.112  25.029  0.00  0.00    +0.087 C 
BRANCH  15  16
ATOM     16  C   UNL     1      -2.614   2.852  24.876  0.00  0.00    +0.241 C 
ATOM     17  O   UNL     1      -2.861   3.287  24.220  0.00  0.00    -0.273 OA
ATOM     18  N   UNL     1      -2.035   3.157  25.378  0.00  0.00    -0.207 NA
BRANCH  18  19
ATOM     19  C   UNL     1      -1.704   3.897  25.225  0.00  0.00    +0.095 C 
ATOM     20  C   UNL     1      -0.977   3.952  24.841  0.00  0.00    +0.022 C 
ATOM     21  C   UNL     1      -0.645   4.691  24.687  0.00  0.00    +0.002 C 
ATOM     22  C   UNL     1      -1.042   5.377  24.918  0.00  0.00    +0.000 C 
ATOM     23  C   UNL     1      -1.770   5.323  25.302  0.00  0.00    +0.002 C 
ATOM     24  C   UNL     1      -2.102   4.583  25.456  0.00  0.00    +0.022 C 
ENDBRANCH  18  19
ENDBRANCH  15  16
ENDBRANCH  14  15
TORSDOF 6
ENDMDL
MODEL 3
REMARK VINA RESULT:     -12.7      2.257      3.252
REMARK  Name = 
REMARK  6 active torsions:
REMARK  status: ('A' for Active; 'I' for Inactive)
REMARK    1  A    between atoms: C_2  and  C_5
REMARK    2  A    between atoms: C_7  and  C_8
REMARK    3  A    between atoms: C_8  and  C_9
REMARK    4  A    between atoms: C_14  and  C_15
REMARK    5  A    between atoms: C_15  and  C_16
REMARK    6  A    between atoms: N_18  and  C_19
REMARK                            x       y       z     vdW  Elec       q    Type
REMARK                         _______ _______ _______ _____ _____    ______ ____
ROOT
ATOM      9  C   UNL     1      -0.607   1.005  24.945  0.00  0.00    +0.024 C 
ATOM     10  C   UNL     1      -0.037   1.366  24.471  0.00  0.00    +0.089 C 
ATOM     11  N   UNL     1       0.317   0.943  23.857  0.00  0.00    -0.218 NA
ATOM     12  C   UNL     1       0.101   0.160  23.717  0.00  0.00    +0.089 C 
ATOM     13  C   UNL     1      -0.470  -0.201  24.192  0.00  0.00    +0.019 C 
ATOM     14  C   UNL     1      -0.824   0.221  24.805  0.00  0.00    +0.012 C 
ENDROOT
BRANCH   9   8
ATOM      8  C   UNL     1      -0.962   1.428  25.559  0.00  0.00    +0.051 C 
BRANCH   8   7
ATOM      5  C   UNL     1      -1.165   3.552  25.509  0.00  0.00    +0.153 A 
ATOM      6  C   UNL     1      -1.477   2.795  25.402  0.00  0.00    +0.054 A 
ATOM      7  C   UNL     1      -0.889   2.249  25.589  0.00  0.00    +0.100 A 
ATOM     25  N   UNL     1      -0.214   2.667  25.812  0.00  0.00    -0.082 NA
ATOM     26  O   UNL     1      -0.384   3.472  25.762  0.00  0.00    -0.358 OA
BRANCH   5   2
ATOM      1  C   UNL     1      -1.963   4.974  25.260  0.00  0.00    +0.008 C 
ATOM      2  C   UNL     1      -1.564   4.263  25.384  0.00  0.00    +0.054 C 
ATOM      3  C   UNL     1      -0.896   4.573  25.012  0.00  0.00    +0.008 C 
ATOM      4  C   UNL     1      -2.232   3.953  25.756  0.00  0.00    +0.008 C 
ENDBRANCH   5   2
ENDBRANCH   8   7
ENDBRANCH   9   8
BRANCH  14  15
ATOM     15  C   UNL     1      -1.395  -0.140  25.279  0.00  0.00    +0.087 C 
BRANCH  15  16
ATOM     16  C   UNL     1      -1.871  -0.737  24.969  0.00  0.00    +0.241 C 
ATOM     17  O   UNL     1      -1.532  -1.352  24.535  0.00  0.00    -0.273 OA
ATOM     18  N   UNL     1      -2.687  -0.721  25.092  0.00  0.00    -0.207 NA
BRANCH  18  19
ATOM     19  C   UNL     1      -3.163  -1.318  24.782  0.00  0.00    +0.095 C 
ATOM     20  C   UNL     1      -3.127  -2.080  25.096  0.00  0.00    +0.022 C 
ATOM     21  C   UNL     1      -3.603  -2.678  24.786  0.00  0.00    +0.002 C 
ATOM     22  C   UNL     1      -4.116  -2.513  24.161  0.00  0.00    +0.000 C 
ATOM     23  C   UNL     1      -4.153  -1.752  23.846  0.00  0.00    +0.002 C 
ATOM     24  C   UNL     1      -3.676  -1.154  24.156  0.00  0.00    +0.022 C 
ENDBRANCH  18  19
ENDBRANCH  15  16
ENDBRANCH  14  15
TORSDOF 6
ENDMDL
MODEL 4
REMARK VINA RESULT:     -12.4      2.246      5.795
REMARK  Name = 
REMARK  6 active torsions:
REMARK  status: ('A' for Active; 'I' for Inactive)
REMARK    1  A    between atoms: C_2  and  C_5
REMARK    2  A    between atoms: C_7  and  C_8
REMARK    3  A    between atoms: C_8  and  C_9
REMARK    4  A    between atoms: C_14  and  C_15
REMARK    5  A    between atoms: C_15  and  C_16
REMARK    6  A    between atoms: N_18  and  C_19
REMARK                            x       y       z     vdW  Elec       q    Type
REMARK                         _______ _______ _______ _____ _____    ______ ____
ROOT
ATOM      9  C   UNL     1      -1.008  -0.016  24.808  0.00  0.00    +0.024 C 
ATOM     10  C   UNL     1      -0.575  -0.504  24.302  0.00  0.00    +0.089 C 
ATOM     11  N   UNL     1       0.006  -0.180  23.815  0.00  0.00    -0.218 NA
ATOM     12  C   UNL     1       0.156   0.631  23.834  0.00  0.00    +0.089 C 
ATOM     13  C   UNL     1      -0.277   1.118  24.340  0.00  0.00    +0.019 C 
ATOM     14  C   UNL     1      -0.859   0.795  24.827  0.00  0.00    +0.012 C 
ENDROOT
BRANCH   9   8
ATOM      8  C   UNL     1      -1.590  -0.340  25.295  0.00  0.00    +0.051 C 
BRANCH   8   7
ATOM      5  C   UNL     1      -2.978  -1.789  24.566  0.00  0.00    +0.153 A 
ATOM      6  C   UNL     1      -2.776  -1.008  24.739  0.00  0.00    +0.054 A 
ATOM      7  C   UNL     1      -2.012  -1.005  25.048  0.00  0.00    +0.100 A 
ATOM     25  N   UNL     1      -1.740  -1.784  25.065  0.00  0.00    -0.082 NA
ATOM     26  O   UNL     1      -2.337  -2.268  24.768  0.00  0.00    -0.358 OA
BRANCH   5   2
ATOM      1  C   UNL     1      -4.410  -2.303  23.929  0.00  0.00    +0.008 C 
ATOM      2  C   UNL     1      -3.694  -2.046  24.247  0.00  0.00    +0.054 C 
ATOM      3  C   UNL     1      -3.433  -2.828  24.291  0.00  0.00    +0.008 C 
ATOM      4  C   UNL     1      -3.955  -1.264  24.204  0.00  0.00    +0.008 C 
ENDBRANCH   5   2
ENDBRANCH   8   7
ENDBRANCH   9   8
BRANCH  14  15
ATOM     15  C   UNL     1      -1.291   1.282  25.333  0.00  0.00    +0.087 C 
BRANCH  15  16
ATOM     16  C   UNL     1      -1.399   2.078  25.146  0.00  0.00    +0.241 C 
ATOM     17  O   UNL     1      -1.653   2.295  24.392  0.00  0.00    -0.273 OA
ATOM     18  N   UNL     1      -1.253   2.659  25.714  0.00  0.00    -0.207 NA
BRANCH  18  19
ATOM     19  C   UNL     1      -1.360   3.455  25.528  0.00  0.00    +0.095 C 
ATOM     20  C   UNL     1      -0.739   3.891  25.207  0.00  0.00    +0.022 C 
ATOM     21  C   UNL     1      -0.846   4.687  25.020  0.00  0.00    +0.002 C 
ATOM     22  C   UNL     1      -1.576   5.047  25.155  0.00  0.00    +0.000 C 
ATOM     23  C   UNL     1      -2.198   4.612  25.475  0.00  0.00    +0.002 C 
ATOM     24  C   UNL     1      -2.091   3.815  25.662  0.00  0.00    +0.022 C 
ENDBRANCH  18  19
ENDBRANCH  15  16
ENDBRANCH  14  15
TORSDOF 6
ENDMDL
