MODEL 1
REMARK VINA RESULT:     -13.5      0.000      0.000
REMARK  Name = 
REMARK  5 active torsions:
REMARK  status: ('A' for Active; 'I' for Inactive)
REMARK    1  A    between atoms: C_5  and  C_6
REMARK    2  A    between atoms: C_6  and  N_7
REMARK    3  A    between atoms: C_12  and  C_13
REMARK    4  A    between atoms: C_18  and  C_19
REMARK    5  A    between atoms: C_19  and  C_20
REMARK                            x       y       z     vdW  Elec       q    Type
REMARK                         _______ _______ _______ _____ _____    ______ ____
ROOT
ATOM      7  N   UNL     1      -2.614   2.679  24.664  0.00  0.00    -0.257 NA
ATOM      8  C   UNL     1      -2.701   3.267  25.236  0.00  0.00    +0.121 C 
ATOM      9  C   UNL     1      -3.451   3.559  25.417  0.00  0.00    +0.090 A 
ATOM     10  C   UNL     1      -4.114   3.263  25.026  0.00  0.00    +0.077 A 
ATOM     11  C   UNL     1      -4.027   2.675  24.453  0.00  0.00    +0.072 C 
ATOM     12  C   UNL     1      -3.277   2.383  24.273  0.00  0.00    +0.142 C 
ATOM     28  N   UNL     1      -4.779   3.654  25.318  0.00  0.00    -0.227 NA
ATOM     29  C   UNL     1      -4.527   4.193  25.890  0.00  0.00    +0.198 A 
ATOM     30  N   UNL     1      -3.706   4.134  25.950  0.00  0.00    -0.226 NA
ENDROOT
BRANCH  12  13
ATOM     13  C   UNL     1      -3.191   1.795  23.701  0.00  0.00    +0.241 C 
ATOM     14  O   UNL     1      -2.783   1.955  23.002  0.00  0.00    -0.273 OA
ATOM     15  N   UNL     1      -3.513   1.046  23.829  0.00  0.00    -0.278 N 
ATOM     16  C   UNL     1      -3.427   0.458  23.257  0.00  0.00    +0.093 C 
ATOM     17  C   UNL     1      -3.749  -0.292  23.384  0.00  0.00    +0.022 C 
ATOM     18  C   UNL     1      -4.157  -0.452  24.083  0.00  0.00    +0.008 C 
ATOM     26  C   UNL     1      -4.243   0.137  24.654  0.00  0.00    +0.022 C 
ATOM     27  C   UNL     1      -3.921   0.885  24.527  0.00  0.00    +0.093 C 
BRANCH  18  19
ATOM     19  C   UNL     1      -4.479  -1.200  24.210  0.00  0.00    +0.026 C 
BRANCH  19  20
ATOM     20  C   UNL     1      -3.998  -1.817  24.473  0.00  0.00    -0.022 A 
ATOM     21  C   UNL     1      -3.826  -2.450  23.971  0.00  0.00    -0.004 A 
ATOM     22  C   UNL     1      -3.345  -3.066  24.235  0.00  0.00    -0.000 A 
ATOM     23  C   UNL     1      -3.036  -3.050  24.999  0.00  0.00    -0.000 A 
ATOM     24  C   UNL     1      -3.207  -2.418  25.501  0.00  0.00    -0.000 A 
ATOM     25  C   UNL     1      -3.688  -1.801  25.237  0.00  0.00    -0.004 A 
ENDBRANCH  19  20
ENDBRANCH  18  19
ENDBRANCH  12  13
BRANCH   7   6
ATOM      6  C   UNL     1      -1.864   2.388  24.483  0.00  0.00    +0.100 C 
BRANCH   6   5
ATOM      1 CL   UNL     1       0.593   2.689  26.665  0.00  0.00    -0.082 Cl
ATOM      2  C   UNL     1      -0.021   2.613  26.120  0.00  0.00    +0.058 A 
ATOM      3  C   UNL     1      -0.504   1.945  26.132  0.00  0.00    +0.011 A 
ATOM      4  C   UNL     1      -1.118   1.870  25.587  0.00  0.00    -0.002 A 
ATOM      5  C   UNL     1      -1.250   2.463  25.029  0.00  0.00    -0.006 A 
ATOM     31  C   UNL     1      -0.767   3.132  25.017  0.00  0.00    -0.002 A 
ATOM     32  C   UNL     1      -0.152   3.207  25.562  0.00  0.00    +0.011 A 
ENDBRANCH   6   5
ENDBRANCH   7   6
TORSDOF 5
ENDMDL
MODEL 2
REMARK VINA RESULT:     -12.9      1.890      4.941
REMARK  Name = 
REMARK  5 active torsions:
REMARK  status: ('A' for Active; 'I' for Inactive)
REMARK    1  A    between atoms: C_5  and  C_6
REMARK    2  A    between atoms: C_6  and  N_7
REMARK    3  A    between atoms: C_12  and  C_13
REMARK    4  A    between atoms: C_18  and  C_19
REMARK    5  A    between atoms: C_19  and  C_20
REMARK                            x       y       z     vdW  Elec       q    Type
REMARK                         _______ _______ _______ _____ _____    ______ ____
ROOT
ATOM      7  N   UNL     1      -3.936   0.479  24.313  0.00  0.00    -0.257 NA
ATOM      8  C   UNL     1      -4.602   0.252  24.742  0.00  0.00    +0.121 C 
ATOM      9  C   UNL     1      -5.147   0.819  24.990  0.00  0.00    +0.090 A 
ATOM     10  C   UNL     1      -5.026   1.615  24.809  0.00  0.00    +0.077 A 
ATOM     11  C   UNL     1      -4.358   1.843  24.380  0.00  0.00    +0.072 C 
ATOM     12  C   UNL     1      -3.814   1.275  24.132  0.00  0.00    +0.142 C 
ATOM     28  N   UNL     1      -5.652   2.047  25.125  0.00  0.00    -0.227 NA
ATOM     29  C   UNL     1      -6.162   1.519  25.501  0.00  0.00    +0.198 A 
ATOM     30  N   UNL     1      -5.850   0.761  25.418  0.00  0.00    -0.226 NA
ENDROOT
BRANCH  12  13
ATOM     13  C   UNL     1      -3.148   1.503  23.703  0.00  0.00    +0.241 C 
ATOM     14  O   UNL     1      -3.045   1.240  22.928  0.00  0.00    -0.273 OA
ATOM     15  N   UNL     1      -2.583   1.997  24.049  0.00  0.00    -0.278 N 
ATOM     16  C   UNL     1      -1.917   2.225  23.620  0.00  0.00    +0.093 C 
ATOM     17  C   UNL     1      -1.353   2.718  23.967  0.00  0.00    +0.022 C 
ATOM     18  C   UNL     1      -1.455   2.982  24.742  0.00  0.00    +0.008 C 
ATOM     26  C   UNL     1      -2.123   2.753  25.170  0.00  0.00    +0.022 C 
ATOM     27  C   UNL     1      -2.686   2.260  24.824  0.00  0.00    +0.093 C 
BRANCH  18  19
ATOM     19  C   UNL     1      -0.892   3.474  25.088  0.00  0.00    +0.026 C 
BRANCH  19  20
ATOM     20  C   UNL     1      -0.954   4.293  25.007  0.00  0.00    -0.022 A 
ATOM     21  C   UNL     1      -0.390   4.709  24.571  0.00  0.00    -0.004 A 
ATOM     22  C   UNL     1      -0.452   5.528  24.490  0.00  0.00    -0.000 A 
ATOM     23  C   UNL     1      -1.079   5.930  24.845  0.00  0.00    -0.000 A 
ATOM     24  C   UNL     1      -1.643   5.515  25.280  0.00  0.00    -0.000 A 
ATOM     25  C   UNL     1      -1.580   4.697  25.361  0.00  0.00    -0.004 A 
ENDBRANCH  19  20
ENDBRANCH  18  19
ENDBRANCH  12  13
BRANCH   7   6
ATOM      6  C   UNL     1      -3.392  -0.088  24.065  0.00  0.00    +0.100 C 
BRANCH   6   5
ATOM      1 CL   UNL     1      -3.663  -3.205  25.114  0.00  0.00    -0.082 Cl
ATOM      2  C   UNL     1      -3.596  -2.425  24.852  0.00  0.00    +0.058 A 
ATOM      3  C   UNL     1      -3.954  -2.195  24.146  0.00  0.00    +0.011 A 
ATOM      4  C   UNL     1      -3.886  -1.416  23.884  0.00  0.00    -0.002 A 
ATOM      5  C   UNL     1      -3.460  -0.867  24.327  0.00  0.00    -0.006 A 
ATOM     31  C   UNL     1      -3.100  -1.098  25.034  0.00  0.00    -0.002 A 
ATOM     32  C   UNL     1      -3.168  -1.877  25.296  0.00  0.00    +0.011 A 
ENDBRANCH   6   5
ENDBRANCH   7   6
TORSDOF 5
ENDMDL
MODEL 3
REMARK VINA RESULT:     -12.2      1.657      2.740
REMARK  Name = 
REMARK  5 active torsions:
REMARK  status: ('A' for Active; 'I' for Inactive)
REMARK    1  A    between atoms: C_5  and  C_6
REMARK    2  A    between atoms: C_6  and  N_7
REMARK    3  A    between atoms: C_12  and  C_13
REMARK    4  A    between atoms: C_18  and  C_19
REMARK    5  A    between atoms: C_19  and  C_20
REMARK                            x       y       z     vdW  Elec       q    Type
REMARK                         _______ _______ _______ _____ _____    ______ ____
ROOT
ATOM      7  N   UNL     1      -1.416   2.373  24.247  0.00  0.00    -0.257 NA
ATOM      8  C   UNL     1      -0.643   2.528  24.485  0.00  0.00    +0.121 C 
ATOM      9  C   UNL     1      -0.036   2.004  24.287  0.00  0.00    +0.090 A 
ATOM     10  C   UNL     1      -0.205   1.325  23.851  0.00  0.00    +0.077 A 
ATOM     11  C   UNL     1      -0.980   1.169  23.613  0.00  0.00    +0.072 C 
ATOM     12  C   UNL     1      -1.585   1.693  23.811  0.00  0.00    +0.142 C 
ATOM     28  N   UNL     1       0.500   0.913  23.738  0.00  0.00    -0.227 NA
ATOM     29  C   UNL     1       1.105   1.337  24.104  0.00  0.00    +0.198 A 
ATOM     30  N   UNL     1       0.773   2.012  24.443  0.00  0.00    -0.226 NA
ENDROOT
BRANCH  12  13
ATOM     13  C   UNL     1      -2.359   1.537  23.573  0.00  0.00    +0.241 C 
ATOM     14  O   UNL     1      -2.712   1.997  22.986  0.00  0.00    -0.273 OA
ATOM     15  N   UNL     1      -2.781   0.919  23.923  0.00  0.00    -0.278 N 
ATOM     16  C   UNL     1      -3.555   0.763  23.685  0.00  0.00    +0.093 C 
ATOM     17  C   UNL     1      -3.978   0.146  24.035  0.00  0.00    +0.022 C 
ATOM     18  C   UNL     1      -3.625  -0.314  24.622  0.00  0.00    +0.008 C 
ATOM     26  C   UNL     1      -2.851  -0.157  24.859  0.00  0.00    +0.022 C 
ATOM     27  C   UNL     1      -2.429   0.459  24.510  0.00  0.00    +0.093 C 
BRANCH  18  19
ATOM     19  C   UNL     1      -4.047  -0.931  24.971  0.00  0.00    +0.026 C 
BRANCH  19  20
ATOM     20  C   UNL     1      -3.920  -1.708  24.725  0.00  0.00    -0.022 A 
ATOM     21  C   UNL     1      -3.433  -2.207  25.168  0.00  0.00    -0.004 A 
ATOM     22  C   UNL     1      -3.306  -2.984  24.923  0.00  0.00    -0.000 A 
ATOM     23  C   UNL     1      -3.666  -3.263  24.235  0.00  0.00    -0.000 A 
ATOM     24  C   UNL     1      -4.152  -2.766  23.793  0.00  0.00    -0.000 A 
ATOM     25  C   UNL     1      -4.279  -1.988  24.038  0.00  0.00    -0.004 A 
ENDBRANCH  19  20
ENDBRANCH  18  19
ENDBRANCH  12  13
BRANCH   7   6
ATOM      6  C   UNL     1      -2.022   2.896  24.446  0.00  0.00    +0.100 C 
BRANCH   6   5
ATOM      1 CL   UNL     1      -1.302   5.996  25.318  0.00  0.00    -0.082 Cl
ATOM      2  C   UNL     1      -1.482   5.221  25.100  0.00  0.00    +0.058 A 
ATOM      3  C   UNL     1      -1.395   4.983  24.316  0.00  0.00    +0.011 A 
ATOM      4  C   UNL     1      -1.574   4.208  24.098  0.00  0.00    -0.002 A 
ATOM      5  C   UNL     1      -1.842   3.671  24.664  0.00  0.00    -0.006 A 
ATOM     31  C   UNL     1      -1.930   3.910  25.449  0.00  0.00    -0.002 A 
ATOM     32  C   UNL     1      -1.750   4.685  25.667  0.00  0.00    +0.011 A 
ENDBRANCH   6   5
ENDBRANCH   7   6
TORSDOF 5
ENDMDL
MODEL 4
REMARK VINA RESULT:     -12.2      2.321      5.484
REMARK  Name = 
REMARK  5 active torsions:
REMARK  status: ('A' for Active; 'I' for Inactive)
REMARK    1  A    between atoms: C_5  and  C_6
REMARK    2  A    between atoms: C_6  and  N_7
REMARK    3  A    between atoms: C_12  and  C_13
REMARK    4  A    between atoms: C_18  and  C_19
REMARK    5  A    between atoms: C_19  and  C_20
REMARK                            x       y       z     vdW  Elec       q    Type
REMARK                         _______ _______ _______ _____ _____    ______ ____
ROOT
ATOM      7  N   UNL     1      -2.162  -0.193  24.395  0.00  0.00    -0.257 NA
ATOM      8  C   UNL     1      -1.567  -0.763  24.426  0.00  0.00    +0.121 C 
ATOM      9  C   UNL     1      -0.807  -0.582  24.161  0.00  0.00    +0.090 A 
ATOM     10  C   UNL     1      -0.643   0.170  23.863  0.00  0.00    +0.077 A 
ATOM     11  C   UNL     1      -1.238   0.741  23.832  0.00  0.00    +0.072 C 
ATOM     12  C   UNL     1      -1.998   0.559  24.097  0.00  0.00    +0.142 C 
ATOM     28  N   UNL     1       0.152   0.189  23.643  0.00  0.00    -0.227 NA
ATOM     29  C   UNL     1       0.479  -0.551  23.804  0.00  0.00    +0.198 A 
ATOM     30  N   UNL     1      -0.114  -1.027  24.124  0.00  0.00    -0.226 NA
ENDROOT
BRANCH  12  13
ATOM     13  C   UNL     1      -2.592   1.129  24.066  0.00  0.00    +0.241 C 
ATOM     14  O   UNL     1      -3.265   1.000  23.606  0.00  0.00    -0.273 OA
ATOM     15  N   UNL     1      -2.514   1.831  24.495  0.00  0.00    -0.278 N 
ATOM     16  C   UNL     1      -3.109   2.401  24.463  0.00  0.00    +0.093 C 
ATOM     17  C   UNL     1      -3.030   3.102  24.892  0.00  0.00    +0.022 C 
ATOM     18  C   UNL     1      -2.358   3.232  25.352  0.00  0.00    +0.008 C 
ATOM     26  C   UNL     1      -1.763   2.660  25.383  0.00  0.00    +0.022 C 
ATOM     27  C   UNL     1      -1.841   1.960  24.954  0.00  0.00    +0.093 C 
BRANCH  18  19
ATOM     19  C   UNL     1      -2.280   3.932  25.780  0.00  0.00    +0.026 C 
BRANCH  19  20
ATOM     20  C   UNL     1      -1.876   4.573  25.452  0.00  0.00    -0.022 A 
ATOM     21  C   UNL     1      -2.273   5.283  25.312  0.00  0.00    -0.004 A 
ATOM     22  C   UNL     1      -1.870   5.924  24.985  0.00  0.00    -0.000 A 
ATOM     23  C   UNL     1      -1.069   5.854  24.797  0.00  0.00    -0.000 A 
ATOM     24  C   UNL     1      -0.672   5.145  24.937  0.00  0.00    -0.000 A 
ATOM     25  C   UNL     1      -1.076   4.505  25.265  0.00  0.00    -0.004 A 
ENDBRANCH  19  20
ENDBRANCH  18  19
ENDBRANCH  12  13
BRANCH   7   6
ATOM      6  C   UNL     1      -2.921  -0.374  24.660  0.00  0.00    +0.100 C 
BRANCH   6   5
ATOM      1 CL   UNL     1      -3.923  -3.517  24.773  0.00  0.00    -0.082 Cl
ATOM      2  C   UNL     1      -3.673  -2.731  24.745  0.00  0.00    +0.058 A 
ATOM      3  C   UNL     1      -3.779  -2.289  24.057  0.00  0.00    +0.011 A 
ATOM      4  C   UNL     1      -3.528  -1.504  24.029  0.00  0.00    -0.002 A 
ATOM      5  C   UNL     1      -3.172  -1.160  24.688  0.00  0.00    -0.006 A 
ATOM     31  C   UNL     1      -3.065  -1.603  25.377  0.00  0.00    -0.002 A 
ATOM     32  C   UNL     1      -3.316  -2.388  25.405  0.00  0.00    +0.011 A 
ENDBRANCH   6   5
ENDBRANCH   7   6
TORSDOF 5
ENDMDL
MODEL 5
REMARK VINA RESULT:     -11.8      2.093      3.840
REMARK  Name = 
REMARK  5 active torsions:
REMARK  status: ('A' for Active; 'I' for Inactive)
REMARK    1  A    between atoms: C_5  and  C_6
REMARK    2  A    between atoms: C_6  and  N_7
REMARK    3  A    between atoms: C_12  and  C_13
REMARK    4  A    between atoms: C_18  and  C_19
REMARK    5  A    between atoms: C_19  and  C_20
REMARK                            x       y       z     vdW  Elec       q    Type
REMARK                         _______ _______ _______ _____ _____    ______ ____
ROOT
ATOM      7  N   UNL     1      -1.026   1.450  24.607  0.00  0.00    -0.257 NA
ATOM      8  C   UNL     1      -0.438   1.380  25.182  0.00  0.00    +0.121 C 
ATOM      9  C   UNL     1      -0.152   2.054  25.564  0.00  0.00    +0.090 A 
ATOM     10  C   UNL     1      -0.455   2.796  25.371  0.00  0.00    +0.077 A 
ATOM     11  C   UNL     1      -1.043   2.866  24.796  0.00  0.00    +0.072 C 
ATOM     12  C   UNL     1      -1.328   2.193  24.414  0.00  0.00    +0.142 C 
ATOM     28  N   UNL     1      -0.069   3.357  25.836  0.00  0.00    -0.227 NA
ATOM     29  C   UNL     1       0.472   2.962  26.317  0.00  0.00    +0.198 A 
ATOM     30  N   UNL     1       0.420   2.156  26.148  0.00  0.00    -0.226 NA
ENDROOT
BRANCH  12  13
ATOM     13  C   UNL     1      -1.915   2.263  23.840  0.00  0.00    +0.241 C 
ATOM     14  O   UNL     1      -1.743   2.096  23.050  0.00  0.00    -0.273 OA
ATOM     15  N   UNL     1      -2.676   2.501  24.055  0.00  0.00    -0.278 N 
ATOM     16  C   UNL     1      -3.264   2.571  23.481  0.00  0.00    +0.093 C 
ATOM     17  C   UNL     1      -4.025   2.809  23.696  0.00  0.00    +0.022 C 
ATOM     18  C   UNL     1      -4.197   2.976  24.485  0.00  0.00    +0.008 C 
ATOM     26  C   UNL     1      -3.608   2.905  25.059  0.00  0.00    +0.022 C 
ATOM     27  C   UNL     1      -2.848   2.668  24.845  0.00  0.00    +0.093 C 
BRANCH  18  19
ATOM     19  C   UNL     1      -4.956   3.213  24.700  0.00  0.00    +0.026 C 
BRANCH  19  20
ATOM     20  C   UNL     1      -5.446   2.699  25.119  0.00  0.00    -0.022 A 
ATOM     21  C   UNL     1      -5.554   2.801  25.932  0.00  0.00    -0.004 A 
ATOM     22  C   UNL     1      -6.044   2.286  26.351  0.00  0.00    -0.000 A 
ATOM     23  C   UNL     1      -6.426   1.669  25.957  0.00  0.00    -0.000 A 
ATOM     24  C   UNL     1      -6.318   1.567  25.147  0.00  0.00    -0.000 A 
ATOM     25  C   UNL     1      -5.828   2.081  24.728  0.00  0.00    -0.004 A 
ENDBRANCH  19  20
ENDBRANCH  18  19
ENDBRANCH  12  13
BRANCH   7   6
ATOM      6  C   UNL     1      -1.311   0.777  24.225  0.00  0.00    +0.100 C 
BRANCH   6   5
ATOM      1 CL   UNL     1      -0.539  -2.220  25.369  0.00  0.00    -0.082 Cl
ATOM      2  C   UNL     1      -0.732  -1.471  25.083  0.00  0.00    +0.058 A 
ATOM      3  C   UNL     1      -0.274  -1.126  24.491  0.00  0.00    +0.011 A 
ATOM      4  C   UNL     1      -0.467  -0.376  24.205  0.00  0.00    -0.002 A 
ATOM      5  C   UNL     1      -1.118   0.028  24.511  0.00  0.00    -0.006 A 
ATOM     31  C   UNL     1      -1.576  -0.318  25.105  0.00  0.00    -0.002 A 
ATOM     32  C   UNL     1      -1.383  -1.068  25.391  0.00  0.00    +0.011 A 
ENDBRANCH   6   5
ENDBRANCH   7   6
TORSDOF 5
ENDMDL
MODEL 6
REMARK VINA RESULT:     -11.7      2.432      4.981
REMARK  Name = 
REMARK  5 active torsions:
REMARK  status: ('A' for Active; 'I' for Inactive)
REMARK    1  A    between atoms: C_5  and  C_6
REMARK    2  A    between atoms: C_6  and  N_7
REMARK    3  A    between atoms: C_12  and  C_13
REMARK    4  A    between atoms: C_18  and  C_19
REMARK    5  A    between atoms: C_19  and  C_20
REMARK                            x       y       z     vdW  Elec       q    Type
REMARK                         _______ _______ _______ _____ _____    ______ ____
ROOT
ATOM      7  N   UNL     1      -0.724   0.031  24.767  0.00  0.00    -0.257 NA
ATOM      8  C   UNL     1      -0.408  -0.456  24.181  0.00  0.00    +0.121 C 
ATOM      9  C   UNL     1       0.149  -0.157  23.651  0.00  0.00    +0.090 A 
ATOM     10  C   UNL     1       0.390   0.630  23.708  0.00  0.00    +0.077 A 
ATOM     11  C   UNL     1       0.074   1.118  24.294  0.00  0.00    +0.072 C 
ATOM     12  C   UNL     1      -0.483   0.818  24.824  0.00  0.00    +0.142 C 
ATOM     28  N   UNL     1       0.943   0.771  23.113  0.00  0.00    -0.227 NA
ATOM     29  C   UNL     1       1.044   0.071  22.689  0.00  0.00    +0.198 A 
ATOM     30  N   UNL     1       0.553  -0.502  23.022  0.00  0.00    -0.226 NA
ENDROOT
BRANCH  12  13
ATOM     13  C   UNL     1      -0.799   1.305  25.409  0.00  0.00    +0.241 C 
ATOM     14  O   UNL     1      -0.541   1.234  26.190  0.00  0.00    -0.273 OA
ATOM     15  N   UNL     1      -1.373   1.865  25.214  0.00  0.00    -0.278 N 
ATOM     16  C   UNL     1      -1.689   2.353  25.800  0.00  0.00    +0.093 C 
ATOM     17  C   UNL     1      -2.263   2.913  25.605  0.00  0.00    +0.022 C 
ATOM     18  C   UNL     1      -2.521   2.985  24.825  0.00  0.00    +0.008 C 
ATOM     26  C   UNL     1      -2.205   2.496  24.239  0.00  0.00    +0.022 C 
ATOM     27  C   UNL     1      -1.631   1.937  24.434  0.00  0.00    +0.093 C 
BRANCH  18  19
ATOM     19  C   UNL     1      -3.095   3.544  24.630  0.00  0.00    +0.026 C 
BRANCH  19  20
ATOM     20  C   UNL     1      -3.885   3.408  24.823  0.00  0.00    -0.022 A 
ATOM     21  C   UNL     1      -4.236   3.824  25.444  0.00  0.00    -0.004 A 
ATOM     22  C   UNL     1      -5.027   3.688  25.636  0.00  0.00    -0.000 A 
ATOM     23  C   UNL     1      -5.466   3.136  25.208  0.00  0.00    -0.000 A 
ATOM     24  C   UNL     1      -5.116   2.721  24.588  0.00  0.00    -0.000 A 
ATOM     25  C   UNL     1      -4.325   2.857  24.395  0.00  0.00    -0.004 A 
ENDBRANCH  19  20
ENDBRANCH  18  19
ENDBRANCH  12  13
BRANCH   7   6
ATOM      6  C   UNL     1      -1.281  -0.269  25.296  0.00  0.00    +0.100 C 
BRANCH   6   5
ATOM      1 CL   UNL     1      -3.023  -2.959  24.511  0.00  0.00    -0.082 Cl
ATOM      2  C   UNL     1      -2.587  -2.287  24.708  0.00  0.00    +0.058 A 
ATOM      3  C   UNL     1      -1.831  -2.364  25.025  0.00  0.00    +0.011 A 
ATOM      4  C   UNL     1      -1.395  -1.691  25.221  0.00  0.00    -0.002 A 
ATOM      5  C   UNL     1      -1.716  -0.941  25.100  0.00  0.00    -0.006 A 
ATOM     31  C   UNL     1      -2.474  -0.864  24.782  0.00  0.00    -0.002 A 
ATOM     32  C   UNL     1      -2.910  -1.537  24.586  0.00  0.00    +0.011 A 
ENDBRANCH   6   5
ENDBRANCH   7   6
TORSDOF 5
ENDMDL
MODEL 7
REMARK VINA RESULT:     -11.4      2.126      2.786
REMARK  Name = 
REMARK  5 active torsions:
REMARK  status: ('A' for Active; 'I' for Inactive)
REMARK    1  A    between atoms: C_5  and  C_6
REMARK    2  A    between atoms: C_6  and  N_7
REMARK    3  A    between atoms: C_12  and  C_13
REMARK    4  A    between atoms: C_18  and  C_19
REMARK    5  A    between atoms: C_19  and  C_20
REMARK                            x       y       z     vdW  Elec       q    Type
REMARK                         _______ _______ _______ _____ _____    ______ ____
ROOT
ATOM      7  N   UNL     1      -0.539   1.606  24.244  0.00  0.00    -0.257 NA
ATOM      8  C   UNL     1       0.103   1.745  24.742  0.00  0.00    +0.121 C 
ATOM      9  C   UNL     1      -0.008   2.139  25.459  0.00  0.00    +0.090 A 
ATOM     10  C   UNL     1      -0.761   2.395  25.676  0.00  0.00    +0.077 A 
ATOM     11  C   UNL     1      -1.405   2.255  25.178  0.00  0.00    +0.072 C 
ATOM     12  C   UNL     1      -1.293   1.861  24.462  0.00  0.00    +0.142 C 
ATOM     28  N   UNL     1      -0.703   2.766  26.410  0.00  0.00    -0.227 NA
ATOM     29  C   UNL     1       0.087   2.741  26.646  0.00  0.00    +0.198 A 
ATOM     30  N   UNL     1       0.516   2.354  26.058  0.00  0.00    -0.226 NA
ENDROOT
BRANCH  12  13
ATOM     13  C   UNL     1      -1.936   1.722  23.964  0.00  0.00    +0.241 C 
ATOM     14  O   UNL     1      -2.018   2.153  23.266  0.00  0.00    -0.273 OA
ATOM     15  N   UNL     1      -2.497   1.151  24.166  0.00  0.00    -0.278 N 
ATOM     16  C   UNL     1      -3.140   1.012  23.668  0.00  0.00    +0.093 C 
ATOM     17  C   UNL     1      -3.701   0.440  23.870  0.00  0.00    +0.022 C 
ATOM     18  C   UNL     1      -3.619   0.009  24.568  0.00  0.00    +0.008 C 
ATOM     26  C   UNL     1      -2.975   0.149  25.065  0.00  0.00    +0.022 C 
ATOM     27  C   UNL     1      -2.415   0.719  24.864  0.00  0.00    +0.093 C 
BRANCH  18  19
ATOM     19  C   UNL     1      -4.179  -0.561  24.769  0.00  0.00    +0.026 C 
BRANCH  19  20
ATOM     20  C   UNL     1      -4.029  -1.358  24.617  0.00  0.00    -0.022 A 
ATOM     21  C   UNL     1      -4.294  -1.702  23.915  0.00  0.00    -0.004 A 
ATOM     22  C   UNL     1      -4.144  -2.498  23.763  0.00  0.00    -0.000 A 
ATOM     23  C   UNL     1      -3.729  -2.952  24.314  0.00  0.00    -0.000 A 
ATOM     24  C   UNL     1      -3.465  -2.609  25.015  0.00  0.00    -0.000 A 
ATOM     25  C   UNL     1      -3.615  -1.812  25.167  0.00  0.00    -0.004 A 
ENDBRANCH  19  20
ENDBRANCH  18  19
ENDBRANCH  12  13
BRANCH   7   6
ATOM      6  C   UNL     1      -0.428   1.212  23.529  0.00  0.00    +0.100 C 
BRANCH   6   5
ATOM      1 CL   UNL     1       2.419  -0.343  22.926  0.00  0.00    -0.082 Cl
ATOM      2  C   UNL     1       1.707   0.045  23.077  0.00  0.00    +0.058 A 
ATOM      3  C   UNL     1       1.671   0.868  23.041  0.00  0.00    +0.011 A 
ATOM      4  C   UNL     1       0.960   1.257  23.191  0.00  0.00    -0.002 A 
ATOM      5  C   UNL     1       0.283   0.823  23.378  0.00  0.00    -0.006 A 
ATOM     31  C   UNL     1       0.320  -0.001  23.414  0.00  0.00    -0.002 A 
ATOM     32  C   UNL     1       1.031  -0.390  23.263  0.00  0.00    +0.011 A 
ENDBRANCH   6   5
ENDBRANCH   7   6
TORSDOF 5
ENDMDL
MODEL 8
REMARK VINA RESULT:     -11.2      1.813      2.959
REMARK  Name = 
REMARK  5 active torsions:
REMARK  status: ('A' for Active; 'I' for Inactive)
REMARK    1  A    between atoms: C_5  and  C_6
REMARK    2  A    between atoms: C_6  and  N_7
REMARK    3  A    between atoms: C_12  and  C_13
REMARK    4  A    between atoms: C_18  and  C_19
REMARK    5  A    between atoms: C_19  and  C_20
REMARK                            x       y       z     vdW  Elec       q    Type
REMARK                         _______ _______ _______ _____ _____    ______ ____
ROOT
ATOM      7  N   UNL     1      -2.658   2.972  24.340  0.00  0.00    -0.257 NA
ATOM      8  C   UNL     1      -2.559   3.650  24.798  0.00  0.00    +0.121 C 
ATOM      9  C   UNL     1      -1.801   3.928  24.966  0.00  0.00    +0.090 A 
ATOM     10  C   UNL     1      -1.141   3.527  24.676  0.00  0.00    +0.077 A 
ATOM     11  C   UNL     1      -1.240   2.847  24.218  0.00  0.00    +0.072 C 
ATOM     12  C   UNL     1      -1.999   2.570  24.050  0.00  0.00    +0.142 C 
ATOM     28  N   UNL     1      -0.467   3.927  24.930  0.00  0.00    -0.227 NA
ATOM     29  C   UNL     1      -0.709   4.577  25.377  0.00  0.00    +0.198 A 
ATOM     30  N   UNL     1      -1.534   4.577  25.399  0.00  0.00    -0.226 NA
ENDROOT
BRANCH  12  13
ATOM     13  C   UNL     1      -2.097   1.891  23.593  0.00  0.00    +0.241 C 
ATOM     14  O   UNL     1      -2.324   1.955  22.802  0.00  0.00    -0.273 OA
ATOM     15  N   UNL     1      -1.968   1.147  23.926  0.00  0.00    -0.278 N 
ATOM     16  C   UNL     1      -2.066   0.467  23.469  0.00  0.00    +0.093 C 
ATOM     17  C   UNL     1      -1.937  -0.277  23.802  0.00  0.00    +0.022 C 
ATOM     18  C   UNL     1      -1.711  -0.341  24.593  0.00  0.00    +0.008 C 
ATOM     26  C   UNL     1      -1.613   0.339  25.050  0.00  0.00    +0.022 C 
ATOM     27  C   UNL     1      -1.741   1.083  24.717  0.00  0.00    +0.093 C 
BRANCH  18  19
ATOM     19  C   UNL     1      -1.582  -1.084  24.926  0.00  0.00    +0.026 C 
BRANCH  19  20
ATOM     20  C   UNL     1      -2.203  -1.624  24.980  0.00  0.00    -0.022 A 
ATOM     21  C   UNL     1      -2.800  -1.512  25.540  0.00  0.00    -0.004 A 
ATOM     22  C   UNL     1      -3.421  -2.053  25.594  0.00  0.00    -0.000 A 
ATOM     23  C   UNL     1      -3.445  -2.705  25.089  0.00  0.00    -0.000 A 
ATOM     24  C   UNL     1      -2.849  -2.817  24.531  0.00  0.00    -0.000 A 
ATOM     25  C   UNL     1      -2.228  -2.277  24.476  0.00  0.00    -0.004 A 
ENDBRANCH  19  20
ENDBRANCH  18  19
ENDBRANCH  12  13
BRANCH   7   6
ATOM      6  C   UNL     1      -3.416   2.694  24.172  0.00  0.00    +0.100 C 
BRANCH   6   5
ATOM      1 CL   UNL     1      -6.019   3.930  25.781  0.00  0.00    -0.082 Cl
ATOM      2  C   UNL     1      -5.368   3.621  25.379  0.00  0.00    +0.058 A 
ATOM      3  C   UNL     1      -5.061   4.019  24.726  0.00  0.00    +0.011 A 
ATOM      4  C   UNL     1      -4.410   3.710  24.324  0.00  0.00    -0.002 A 
ATOM      5  C   UNL     1      -4.067   3.003  24.574  0.00  0.00    -0.006 A 
ATOM     31  C   UNL     1      -4.375   2.605  25.229  0.00  0.00    -0.002 A 
ATOM     32  C   UNL     1      -5.026   2.914  25.631  0.00  0.00    +0.011 A 
ENDBRANCH   6   5
ENDBRANCH   7   6
TORSDOF 5
ENDMDL
MODEL 9
REMARK VINA RESULT:     -10.9      2.670      4.407
REMARK  Name = 
REMARK  5 active torsions:
REMARK  status: ('A' for Active; 'I' for Inactive)
REMARK    1  A    between atoms: C_5  and  C_6
REMARK    2  A    between atoms: C_6  and  N_7
REMARK    3  A    between atoms: C_12  and  C_13
REMARK    4  A    between atoms: C_18  and  C_19
REMARK    5  A    between atoms: C_19  and  C_20
REMARK                            x       y       z     vdW  Elec       q    Type
REMARK                         _______ _______ _______ _____ _____    ______ ____
ROOT
ATOM      7  N   UNL     1      -0.389   0.411  24.364  0.00  0.00    -0.257 NA
ATOM      8  C   UNL     1      -0.234  -0.398  24.335  0.00  0.00    +0.121 C 
ATOM      9  C   UNL     1      -0.609  -0.910  24.863  0.00  0.00    +0.090 A 
ATOM     10  C   UNL     1      -1.140  -0.612  25.419  0.00  0.00    +0.077 A 
ATOM     11  C   UNL     1      -1.296   0.199  25.448  0.00  0.00    +0.072 C 
ATOM     12  C   UNL     1      -0.920   0.709  24.921  0.00  0.00    +0.142 C 
ATOM     28  N   UNL     1      -1.425  -1.244  25.864  0.00  0.00    -0.227 NA
ATOM     29  C   UNL     1      -1.071  -1.934  25.584  0.00  0.00    +0.198 A 
ATOM     30  N   UNL     1      -0.567  -1.727  24.965  0.00  0.00    -0.226 NA
ENDROOT
BRANCH  12  13
ATOM     13  C   UNL     1      -1.076   1.519  24.950  0.00  0.00    +0.241 C 
ATOM     14  O   UNL     1      -0.489   2.044  25.196  0.00  0.00    -0.273 OA
ATOM     15  N   UNL     1      -1.820   1.803  24.733  0.00  0.00    -0.278 N 
ATOM     16  C   UNL     1      -1.976   2.613  24.763  0.00  0.00    +0.093 C 
ATOM     17  C   UNL     1      -2.720   2.897  24.546  0.00  0.00    +0.022 C 
ATOM     18  C   UNL     1      -3.307   2.372  24.300  0.00  0.00    +0.008 C 
ATOM     26  C   UNL     1      -3.150   1.563  24.271  0.00  0.00    +0.022 C 
ATOM     27  C   UNL     1      -2.407   1.278  24.488  0.00  0.00    +0.093 C 
BRANCH  18  19
ATOM     19  C   UNL     1      -4.050   2.657  24.084  0.00  0.00    +0.026 C 
BRANCH  19  20
ATOM     20  C   UNL     1      -4.667   2.656  24.631  0.00  0.00    -0.022 A 
ATOM     21  C   UNL     1      -5.178   2.009  24.677  0.00  0.00    -0.004 A 
ATOM     22  C   UNL     1      -5.795   2.008  25.225  0.00  0.00    -0.000 A 
ATOM     23  C   UNL     1      -5.902   2.655  25.726  0.00  0.00    -0.000 A 
ATOM     24  C   UNL     1      -5.392   3.301  25.681  0.00  0.00    -0.000 A 
ATOM     25  C   UNL     1      -4.775   3.302  25.134  0.00  0.00    -0.004 A 
ENDBRANCH  19  20
ENDBRANCH  18  19
ENDBRANCH  12  13
BRANCH   7   6
ATOM      6  C   UNL     1      -0.014   0.922  23.837  0.00  0.00    +0.100 C 
BRANCH   6   5
ATOM      1 CL   UNL     1       2.703  -0.058  22.242  0.00  0.00    -0.082 Cl
ATOM      2  C   UNL     1       2.024   0.187  22.641  0.00  0.00    +0.058 A 
ATOM      3  C   UNL     1       1.282  -0.064  22.383  0.00  0.00    +0.011 A 
ATOM      4  C   UNL     1       0.603   0.181  22.782  0.00  0.00    -0.002 A 
ATOM      5  C   UNL     1       0.665   0.677  23.438  0.00  0.00    -0.006 A 
ATOM     31  C   UNL     1       1.409   0.928  23.696  0.00  0.00    -0.002 A 
ATOM     32  C   UNL     1       2.088   0.683  23.297  0.00  0.00    +0.011 A 
ENDBRANCH   6   5
ENDBRANCH   7   6
TORSDOF 5
ENDMDL
