MODEL 1
REMARK VINA RESULT:     -11.9      0.000      0.000
REMARK  Name = 
REMARK  6 active torsions:
REMARK  status: ('A' for Active; 'I' for Inactive)
REMARK    1  A    between atoms: O_2  and  C_3
REMARK    2  A    between atoms: C_6  and  C_7
REMARK    3  A    between atoms: C_7  and  C_8
REMARK    4  A    between atoms: N_10  and  C_11
REMARK    5  A    between atoms: C_13  and  C_17
REMARK    6  A    between atoms: C_19  and  C_22
REMARK                            x       y       z     vdW  Elec       q    Type
REMARK                         _______ _______ _______ _____ _____    ______ ____
ROOT
ATOM     11  C   UNL     1      -0.575   2.361  24.940  0.00  0.00    +0.113 C 
ATOM     12  C   UNL     1      -0.909   1.608  24.982  0.00  0.00    +0.049 C 
ATOM     13  C   UNL     1      -0.381   1.076  24.638  0.00  0.00    +0.139 C 
ATOM     14  N   UNL     1       0.279   1.500  24.382  0.00  0.00    -0.264 NA
ATOM     15  C   UNL     1       0.942   1.185  24.006  0.00  0.00    +0.090 C 
ATOM     16  C   UNL     1       0.159   2.295  24.569  0.00  0.00    +0.094 C 
ENDROOT
BRANCH  13  17
ATOM     17  C   UNL     1      -0.493   0.262  24.562  0.00  0.00    +0.251 A 
ATOM     18  N   UNL     1      -1.219  -0.130  24.577  0.00  0.00    -0.190 NA
ATOM     19  C   UNL     1      -1.073  -0.937  24.482  0.00  0.00    +0.203 A 
ATOM     20  N   UNL     1      -0.258  -1.043  24.410  0.00  0.00    -0.056 NA
ATOM     21  O   UNL     1       0.100  -0.301  24.459  0.00  0.00    -0.336 OA
BRANCH  19  22
ATOM     22  C   UNL     1      -1.644  -1.533  24.464  0.00  0.00    +0.039 A 
ATOM     23  C   UNL     1      -2.422  -1.354  24.260  0.00  0.00    +0.003 A 
ATOM     24  C   UNL     1      -2.992  -1.950  24.242  0.00  0.00    +0.000 A 
ATOM     25  C   UNL     1      -3.771  -1.770  24.038  0.00  0.00    +0.000 A 
ATOM     26  C   UNL     1      -4.340  -2.366  24.020  0.00  0.00    +0.000 A 
ATOM     27  C   UNL     1      -4.131  -3.143  24.206  0.00  0.00    +0.000 A 
ATOM     28  C   UNL     1      -3.353  -3.323  24.410  0.00  0.00    +0.000 A 
ATOM     29  C   UNL     1      -2.782  -2.727  24.428  0.00  0.00    +0.000 A 
ATOM     30  C   UNL     1      -2.004  -2.906  24.632  0.00  0.00    +0.000 A 
ATOM     31  C   UNL     1      -1.434  -2.310  24.650  0.00  0.00    +0.003 A 
ENDBRANCH  19  22
ENDBRANCH  13  17
BRANCH  11  10
ATOM      8  C   UNL     1      -1.552   3.398  24.818  0.00  0.00    +0.246 C 
ATOM      9  O   UNL     1      -1.849   3.038  24.137  0.00  0.00    -0.273 OA
ATOM     10  N   UNL     1      -0.915   3.059  25.219  0.00  0.00    -0.205 NA
BRANCH   8   7
ATOM      7  C   UNL     1      -1.891   4.096  25.098  0.00  0.00    +0.113 C 
BRANCH   7   6
ATOM      3  C   UNL     1      -4.293   4.150  25.693  0.00  0.00    +0.139 A 
ATOM      4  C   UNL     1      -3.721   4.146  26.287  0.00  0.00    +0.037 A 
ATOM      5  C   UNL     1      -2.920   4.128  26.089  0.00  0.00    -0.001 A 
ATOM      6  C   UNL     1      -2.692   4.114  25.296  0.00  0.00    -0.013 A 
ATOM     32  C   UNL     1      -3.264   4.118  24.702  0.00  0.00    -0.001 A 
ATOM     33  C   UNL     1      -4.065   4.136  24.901  0.00  0.00    +0.037 A 
BRANCH   3   2
ATOM      1  C   UNL     1      -5.581   3.532  25.698  0.00  0.00    +0.252 C 
ATOM      2  O   UNL     1      -5.094   4.168  25.892  0.00  0.00    -0.471 OA
ENDBRANCH   3   2
ENDBRANCH   7   6
ENDBRANCH   8   7
ENDBRANCH  11  10
TORSDOF 6
ENDMDL
MODEL 2
REMARK VINA RESULT:     -11.8      2.449      5.855
REMARK  Name = 
REMARK  6 active torsions:
REMARK  status: ('A' for Active; 'I' for Inactive)
REMARK    1  A    between atoms: O_2  and  C_3
REMARK    2  A    between atoms: C_6  and  C_7
REMARK    3  A    between atoms: C_7  and  C_8
REMARK    4  A    between atoms: N_10  and  C_11
REMARK    5  A    between atoms: C_13  and  C_17
REMARK    6  A    between atoms: C_19  and  C_22
REMARK                            x       y       z     vdW  Elec       q    Type
REMARK                         _______ _______ _______ _____ _____    ______ ____
ROOT
ATOM     11  C   UNL     1       0.387  -0.139  23.479  0.00  0.00    +0.113 C 
ATOM     12  C   UNL     1      -0.058   0.539  23.631  0.00  0.00    +0.049 C 
ATOM     13  C   UNL     1      -0.596   0.361  24.230  0.00  0.00    +0.139 C 
ATOM     14  N   UNL     1      -0.483  -0.426  24.450  0.00  0.00    -0.264 NA
ATOM     15  C   UNL     1      -0.904  -0.833  25.031  0.00  0.00    +0.090 C 
ATOM     16  C   UNL     1       0.125  -0.735  23.985  0.00  0.00    +0.094 C 
ENDROOT
BRANCH  13  17
ATOM     17  C   UNL     1      -1.149   0.881  24.554  0.00  0.00    +0.251 A 
ATOM     18  N   UNL     1      -1.935   0.962  24.317  0.00  0.00    -0.190 NA
ATOM     19  C   UNL     1      -2.285   1.542  24.789  0.00  0.00    +0.203 A 
ATOM     20  N   UNL     1      -1.715   1.818  25.318  0.00  0.00    -0.056 NA
ATOM     21  O   UNL     1      -1.013   1.409  25.173  0.00  0.00    -0.336 OA
BRANCH  19  22
ATOM     22  C   UNL     1      -3.067   1.799  24.739  0.00  0.00    +0.039 A 
ATOM     23  C   UNL     1      -3.677   1.327  25.032  0.00  0.00    +0.003 A 
ATOM     24  C   UNL     1      -4.458   1.584  24.982  0.00  0.00    +0.000 A 
ATOM     25  C   UNL     1      -5.068   1.112  25.275  0.00  0.00    +0.000 A 
ATOM     26  C   UNL     1      -5.850   1.369  25.225  0.00  0.00    +0.000 A 
ATOM     27  C   UNL     1      -6.023   2.101  24.882  0.00  0.00    +0.000 A 
ATOM     28  C   UNL     1      -5.413   2.573  24.590  0.00  0.00    +0.000 A 
ATOM     29  C   UNL     1      -4.631   2.316  24.639  0.00  0.00    +0.000 A 
ATOM     30  C   UNL     1      -4.022   2.788  24.347  0.00  0.00    +0.000 A 
ATOM     31  C   UNL     1      -3.240   2.531  24.397  0.00  0.00    +0.003 A 
ENDBRANCH  19  22
ENDBRANCH  13  17
BRANCH  11  10
ATOM      8  C   UNL     1       1.662   0.266  22.975  0.00  0.00    +0.246 C 
ATOM      9  O   UNL     1       1.733   0.811  23.591  0.00  0.00    -0.273 OA
ATOM     10  N   UNL     1       0.989  -0.208  22.919  0.00  0.00    -0.205 NA
BRANCH   8   7
ATOM      7  C   UNL     1       2.264   0.195  22.415  0.00  0.00    +0.113 C 
BRANCH   7   6
ATOM      3  C   UNL     1       4.632   0.355  23.118  0.00  0.00    +0.139 A 
ATOM      4  C   UNL     1       4.220  -0.354  23.212  0.00  0.00    +0.037 A 
ATOM      5  C   UNL     1       3.431  -0.407  22.978  0.00  0.00    -0.001 A 
ATOM      6  C   UNL     1       3.053   0.248  22.649  0.00  0.00    -0.013 A 
ATOM     32  C   UNL     1       3.465   0.957  22.555  0.00  0.00    -0.001 A 
ATOM     33  C   UNL     1       4.254   1.010  22.789  0.00  0.00    +0.037 A 
BRANCH   3   2
ATOM      1  C   UNL     1       5.738  -0.156  23.863  0.00  0.00    +0.252 C 
ATOM      2  O   UNL     1       5.421   0.408  23.352  0.00  0.00    -0.471 OA
ENDBRANCH   3   2
ENDBRANCH   7   6
ENDBRANCH   8   7
ENDBRANCH  11  10
TORSDOF 6
ENDMDL
MODEL 3
REMARK VINA RESULT:     -11.6      2.118      3.640
REMARK  Name = 
REMARK  6 active torsions:
REMARK  status: ('A' for Active; 'I' for Inactive)
REMARK    1  A    between atoms: O_2  and  C_3
REMARK    2  A    between atoms: C_6  and  C_7
REMARK    3  A    between atoms: C_7  and  C_8
REMARK    4  A    between atoms: N_10  and  C_11
REMARK    5  A    between atoms: C_13  and  C_17
REMARK    6  A    between atoms: C_19  and  C_22
REMARK                            x       y       z     vdW  Elec       q    Type
REMARK                         _______ _______ _______ _____ _____    ______ ____
ROOT
ATOM     11  C   UNL     1      -4.474   3.163  25.456  0.00  0.00    +0.113 C 
ATOM     12  C   UNL     1      -4.251   2.465  25.077  0.00  0.00    +0.049 C 
ATOM     13  C   UNL     1      -4.856   1.915  25.181  0.00  0.00    +0.139 C 
ATOM     14  N   UNL     1      -5.453   2.272  25.625  0.00  0.00    -0.264 NA
ATOM     15  C   UNL     1      -6.162   1.919  25.857  0.00  0.00    +0.090 C 
ATOM     16  C   UNL     1      -5.217   3.044  25.794  0.00  0.00    +0.094 C 
ENDROOT
BRANCH  13  17
ATOM     17  C   UNL     1      -4.863   1.141  24.892  0.00  0.00    +0.251 A 
ATOM     18  N   UNL     1      -4.242   0.600  24.940  0.00  0.00    -0.190 NA
ATOM     19  C   UNL     1      -4.488  -0.102  24.582  0.00  0.00    +0.203 A 
ATOM     20  N   UNL     1      -5.261   0.006  24.313  0.00  0.00    -0.056 NA
ATOM     21  O   UNL     1      -5.493   0.775  24.505  0.00  0.00    -0.336 OA
BRANCH  19  22
ATOM     22  C   UNL     1      -4.039  -0.790  24.507  0.00  0.00    +0.039 A 
ATOM     23  C   UNL     1      -3.246  -0.792  24.732  0.00  0.00    +0.003 A 
ATOM     24  C   UNL     1      -2.798  -1.480  24.657  0.00  0.00    +0.000 A 
ATOM     25  C   UNL     1      -2.004  -1.483  24.882  0.00  0.00    +0.000 A 
ATOM     26  C   UNL     1      -1.556  -2.171  24.807  0.00  0.00    +0.000 A 
ATOM     27  C   UNL     1      -1.902  -2.858  24.506  0.00  0.00    +0.000 A 
ATOM     28  C   UNL     1      -2.695  -2.856  24.281  0.00  0.00    +0.000 A 
ATOM     29  C   UNL     1      -3.144  -2.167  24.356  0.00  0.00    +0.000 A 
ATOM     30  C   UNL     1      -3.937  -2.165  24.131  0.00  0.00    +0.000 A 
ATOM     31  C   UNL     1      -4.385  -1.477  24.206  0.00  0.00    +0.003 A 
ENDBRANCH  19  22
ENDBRANCH  13  17
BRANCH  11  10
ATOM      8  C   UNL     1      -3.374   3.906  25.986  0.00  0.00    +0.246 C 
ATOM      9  O   UNL     1      -3.158   3.256  26.447  0.00  0.00    -0.273 OA
ATOM     10  N   UNL     1      -4.032   3.859  25.491  0.00  0.00    -0.205 NA
BRANCH   8   7
ATOM      7  C   UNL     1      -2.932   4.602  26.020  0.00  0.00    +0.113 C 
BRANCH   7   6
ATOM      3  C   UNL     1      -0.759   4.748  24.843  0.00  0.00    +0.139 A 
ATOM      4  C   UNL     1      -0.941   4.081  25.295  0.00  0.00    +0.037 A 
ATOM      5  C   UNL     1      -1.665   4.032  25.687  0.00  0.00    -0.001 A 
ATOM      6  C   UNL     1      -2.208   4.650  25.628  0.00  0.00    -0.013 A 
ATOM     32  C   UNL     1      -2.027   5.317  25.177  0.00  0.00    -0.001 A 
ATOM     33  C   UNL     1      -1.303   5.365  24.785  0.00  0.00    +0.037 A 
BRANCH   3   2
ATOM      1  C   UNL     1       0.143   4.263  23.848  0.00  0.00    +0.252 C 
ATOM      2  O   UNL     1      -0.035   4.796  24.451  0.00  0.00    -0.471 OA
ENDBRANCH   3   2
ENDBRANCH   7   6
ENDBRANCH   8   7
ENDBRANCH  11  10
TORSDOF 6
ENDMDL
MODEL 4
REMARK VINA RESULT:     -11.3      1.993      6.366
REMARK  Name = 
REMARK  6 active torsions:
REMARK  status: ('A' for Active; 'I' for Inactive)
REMARK    1  A    between atoms: O_2  and  C_3
REMARK    2  A    between atoms: C_6  and  C_7
REMARK    3  A    between atoms: C_7  and  C_8
REMARK    4  A    between atoms: N_10  and  C_11
REMARK    5  A    between atoms: C_13  and  C_17
REMARK    6  A    between atoms: C_19  and  C_22
REMARK                            x       y       z     vdW  Elec       q    Type
REMARK                         _______ _______ _______ _____ _____    ______ ____
ROOT
ATOM     11  C   UNL     1      -4.922   0.379  24.979  0.00  0.00    +0.113 C 
ATOM     12  C   UNL     1      -4.383   0.969  25.186  0.00  0.00    +0.049 C 
ATOM     13  C   UNL     1      -4.786   1.688  25.199  0.00  0.00    +0.139 C 
ATOM     14  N   UNL     1      -5.574   1.545  25.001  0.00  0.00    -0.264 NA
ATOM     15  C   UNL     1      -6.172   2.110  24.948  0.00  0.00    +0.090 C 
ATOM     16  C   UNL     1      -5.658   0.735  24.865  0.00  0.00    +0.094 C 
ENDROOT
BRANCH  13  17
ATOM     17  C   UNL     1      -4.458   2.424  25.379  0.00  0.00    +0.251 A 
ATOM     18  N   UNL     1      -3.713   2.693  25.146  0.00  0.00    -0.190 NA
ATOM     19  C   UNL     1      -3.612   3.455  25.447  0.00  0.00    +0.203 A 
ATOM     20  N   UNL     1      -4.294   3.657  25.866  0.00  0.00    -0.056 NA
ATOM     21  O   UNL     1      -4.817   3.019  25.823  0.00  0.00    -0.336 OA
BRANCH  19  22
ATOM     22  C   UNL     1      -2.946   3.931  25.346  0.00  0.00    +0.039 A 
ATOM     23  C   UNL     1      -2.247   3.606  25.054  0.00  0.00    +0.003 A 
ATOM     24  C   UNL     1      -1.581   4.082  24.953  0.00  0.00    +0.000 A 
ATOM     25  C   UNL     1      -0.881   3.757  24.661  0.00  0.00    +0.000 A 
ATOM     26  C   UNL     1      -0.215   4.233  24.560  0.00  0.00    +0.000 A 
ATOM     27  C   UNL     1      -0.249   5.035  24.752  0.00  0.00    +0.000 A 
ATOM     28  C   UNL     1      -0.948   5.360  25.045  0.00  0.00    +0.000 A 
ATOM     29  C   UNL     1      -1.614   4.884  25.145  0.00  0.00    +0.000 A 
ATOM     30  C   UNL     1      -2.313   5.209  25.438  0.00  0.00    +0.000 A 
ATOM     31  C   UNL     1      -2.979   4.733  25.538  0.00  0.00    +0.003 A 
ENDBRANCH  19  22
ENDBRANCH  13  17
BRANCH  11  10
ATOM      8  C   UNL     1      -4.338  -0.698  24.244  0.00  0.00    +0.246 C 
ATOM      9  O   UNL     1      -4.085  -0.166  23.666  0.00  0.00    -0.273 OA
ATOM     10  N   UNL     1      -4.756  -0.425  24.901  0.00  0.00    -0.205 NA
BRANCH   8   7
ATOM      7  C   UNL     1      -4.171  -1.502  24.167  0.00  0.00    +0.113 C 
BRANCH   7   6
ATOM      3  C   UNL     1      -1.920  -2.361  24.734  0.00  0.00    +0.139 A 
ATOM      4  C   UNL     1      -2.009  -1.797  24.138  0.00  0.00    +0.037 A 
ATOM      5  C   UNL     1      -2.759  -1.511  23.949  0.00  0.00    -0.001 A 
ATOM      6  C   UNL     1      -3.421  -1.788  24.356  0.00  0.00    -0.013 A 
ATOM     32  C   UNL     1      -3.333  -2.352  24.951  0.00  0.00    -0.001 A 
ATOM     33  C   UNL     1      -2.582  -2.638  25.140  0.00  0.00    +0.037 A 
BRANCH   3   2
ATOM      1  C   UNL     1      -0.591  -2.131  25.202  0.00  0.00    +0.252 C 
ATOM      2  O   UNL     1      -1.170  -2.647  24.923  0.00  0.00    -0.471 OA
ENDBRANCH   3   2
ENDBRANCH   7   6
ENDBRANCH   8   7
ENDBRANCH  11  10
TORSDOF 6
ENDMDL
MODEL 5
REMARK VINA RESULT:     -10.9      2.273      6.493
REMARK  Name = 
REMARK  6 active torsions:
REMARK  status: ('A' for Active; 'I' for Inactive)
REMARK    1  A    between atoms: O_2  and  C_3
REMARK    2  A    between atoms: C_6  and  C_7
REMARK    3  A    between atoms: C_7  and  C_8
REMARK    4  A    between atoms: N_10  and  C_11
REMARK    5  A    between atoms: C_13  and  C_17
REMARK    6  A    between atoms: C_19  and  C_22
REMARK                            x       y       z     vdW  Elec       q    Type
REMARK                         _______ _______ _______ _____ _____    ______ ____
ROOT
ATOM     11  C   UNL     1       0.434  -0.263  23.416  0.00  0.00    +0.113 C 
ATOM     12  C   UNL     1      -0.059   0.398  23.458  0.00  0.00    +0.049 C 
ATOM     13  C   UNL     1      -0.611   0.265  24.057  0.00  0.00    +0.139 C 
ATOM     14  N   UNL     1      -0.460  -0.476  24.385  0.00  0.00    -0.264 NA
ATOM     15  C   UNL     1      -0.881  -0.829  25.001  0.00  0.00    +0.090 C 
ATOM     16  C   UNL     1       0.186  -0.803  23.989  0.00  0.00    +0.094 C 
ENDROOT
BRANCH  13  17
ATOM     17  C   UNL     1      -1.210   0.785  24.287  0.00  0.00    +0.251 A 
ATOM     18  N   UNL     1      -1.115   1.584  24.469  0.00  0.00    -0.190 NA
ATOM     19  C   UNL     1      -1.855   1.889  24.670  0.00  0.00    +0.203 A 
ATOM     20  N   UNL     1      -2.408   1.278  24.611  0.00  0.00    -0.056 NA
ATOM     21  O   UNL     1      -2.008   0.595  24.375  0.00  0.00    -0.336 OA
BRANCH  19  22
ATOM     22  C   UNL     1      -2.015   2.668  24.890  0.00  0.00    +0.039 A 
ATOM     23  C   UNL     1      -1.456   3.258  24.754  0.00  0.00    +0.003 A 
ATOM     24  C   UNL     1      -1.616   4.036  24.974  0.00  0.00    +0.000 A 
ATOM     25  C   UNL     1      -1.056   4.628  24.838  0.00  0.00    +0.000 A 
ATOM     26  C   UNL     1      -1.216   5.406  25.058  0.00  0.00    +0.000 A 
ATOM     27  C   UNL     1      -1.936   5.594  25.415  0.00  0.00    +0.000 A 
ATOM     28  C   UNL     1      -2.495   5.004  25.552  0.00  0.00    +0.000 A 
ATOM     29  C   UNL     1      -2.336   4.225  25.331  0.00  0.00    +0.000 A 
ATOM     30  C   UNL     1      -2.895   3.634  25.468  0.00  0.00    +0.000 A 
ATOM     31  C   UNL     1      -2.735   2.856  25.248  0.00  0.00    +0.003 A 
ENDBRANCH  19  22
ENDBRANCH  13  17
BRANCH  11  10
ATOM      8  C   UNL     1       1.714   0.140  22.926  0.00  0.00    +0.246 C 
ATOM      9  O   UNL     1       1.735   0.751  23.481  0.00  0.00    -0.273 OA
ATOM     10  N   UNL     1       1.063  -0.366  22.894  0.00  0.00    -0.205 NA
BRANCH   8   7
ATOM      7  C   UNL     1       2.343   0.036  22.403  0.00  0.00    +0.113 C 
BRANCH   7   6
ATOM      3  C   UNL     1       4.669   0.363  23.186  0.00  0.00    +0.139 A 
ATOM      4  C   UNL     1       4.271  -0.340  23.355  0.00  0.00    +0.037 A 
ATOM      5  C   UNL     1       3.496  -0.449  23.094  0.00  0.00    -0.001 A 
ATOM      6  C   UNL     1       3.118   0.145  22.664  0.00  0.00    -0.013 A 
ATOM     32  C   UNL     1       3.516   0.849  22.495  0.00  0.00    -0.001 A 
ATOM     33  C   UNL     1       4.291   0.957  22.756  0.00  0.00    +0.037 A 
BRANCH   3   2
ATOM      1  C   UNL     1       5.798  -0.092  23.933  0.00  0.00    +0.252 C 
ATOM      2  O   UNL     1       5.444   0.472  23.447  0.00  0.00    -0.471 OA
ENDBRANCH   3   2
ENDBRANCH   7   6
ENDBRANCH   8   7
ENDBRANCH  11  10
TORSDOF 6
ENDMDL
MODEL 6
REMARK VINA RESULT:     -10.7      2.473      4.698
REMARK  Name = 
REMARK  6 active torsions:
REMARK  status: ('A' for Active; 'I' for Inactive)
REMARK    1  A    between atoms: O_2  and  C_3
REMARK    2  A    between atoms: C_6  and  C_7
REMARK    3  A    between atoms: C_7  and  C_8
REMARK    4  A    between atoms: N_10  and  C_11
REMARK    5  A    between atoms: C_13  and  C_17
REMARK    6  A    between atoms: C_19  and  C_22
REMARK                            x       y       z     vdW  Elec       q    Type
REMARK                         _______ _______ _______ _____ _____    ______ ____
ROOT
ATOM     11  C   UNL     1      -0.888   1.358  24.247  0.00  0.00    +0.113 C 
ATOM     12  C   UNL     1      -0.184   1.391  23.819  0.00  0.00    +0.049 C 
ATOM     13  C   UNL     1       0.089   0.619  23.718  0.00  0.00    +0.139 C 
ATOM     14  N   UNL     1      -0.446   0.108  24.083  0.00  0.00    -0.264 NA
ATOM     15  C   UNL     1      -0.388  -0.714  24.115  0.00  0.00    +0.090 C 
ATOM     16  C   UNL     1      -1.051   0.565  24.410  0.00  0.00    +0.094 C 
ENDROOT
BRANCH  13  17
ATOM     17  C   UNL     1       0.777   0.397  23.320  0.00  0.00    +0.251 A 
ATOM     18  N   UNL     1       1.550   0.561  23.559  0.00  0.00    -0.190 NA
ATOM     19  C   UNL     1       2.063   0.237  23.000  0.00  0.00    +0.203 A 
ATOM     20  N   UNL     1       1.608  -0.128  22.416  0.00  0.00    -0.056 NA
ATOM     21  O   UNL     1       0.813  -0.029  22.614  0.00  0.00    -0.336 OA
BRANCH  19  22
ATOM     22  C   UNL     1       2.888   0.271  23.023  0.00  0.00    +0.039 A 
ATOM     23  C   UNL     1       3.315  -0.318  23.410  0.00  0.00    +0.003 A 
ATOM     24  C   UNL     1       4.139  -0.283  23.432  0.00  0.00    +0.000 A 
ATOM     25  C   UNL     1       4.567  -0.872  23.819  0.00  0.00    +0.000 A 
ATOM     26  C   UNL     1       5.390  -0.837  23.841  0.00  0.00    +0.000 A 
ATOM     27  C   UNL     1       5.787  -0.212  23.475  0.00  0.00    +0.000 A 
ATOM     28  C   UNL     1       5.359   0.377  23.088  0.00  0.00    +0.000 A 
ATOM     29  C   UNL     1       4.535   0.343  23.066  0.00  0.00    +0.000 A 
ATOM     30  C   UNL     1       4.107   0.931  22.678  0.00  0.00    +0.000 A 
ATOM     31  C   UNL     1       3.284   0.896  22.656  0.00  0.00    +0.003 A 
ENDBRANCH  19  22
ENDBRANCH  13  17
BRANCH  11  10
ATOM      8  C   UNL     1      -1.940   2.285  23.970  0.00  0.00    +0.246 C 
ATOM      9  O   UNL     1      -2.069   1.921  23.241  0.00  0.00    -0.273 OA
ATOM     10  N   UNL     1      -1.350   2.003  24.473  0.00  0.00    -0.205 NA
BRANCH   8   7
ATOM      7  C   UNL     1      -2.401   2.930  24.197  0.00  0.00    +0.113 C 
BRANCH   7   6
ATOM      3  C   UNL     1      -4.795   2.610  24.737  0.00  0.00    +0.139 A 
ATOM      4  C   UNL     1      -4.262   2.816  25.332  0.00  0.00    +0.037 A 
ATOM      5  C   UNL     1      -3.464   2.922  25.152  0.00  0.00    -0.001 A 
ATOM      6  C   UNL     1      -3.199   2.823  24.377  0.00  0.00    -0.013 A 
ATOM     32  C   UNL     1      -3.733   2.618  23.782  0.00  0.00    -0.001 A 
ATOM     33  C   UNL     1      -4.530   2.511  23.962  0.00  0.00    +0.037 A 
BRANCH   3   2
ATOM      1  C   UNL     1      -5.847   1.800  25.264  0.00  0.00    +0.252 C 
ATOM      2  O   UNL     1      -5.593   2.503  24.918  0.00  0.00    -0.471 OA
ENDBRANCH   3   2
ENDBRANCH   7   6
ENDBRANCH   8   7
ENDBRANCH  11  10
TORSDOF 6
ENDMDL
