REMARK  Name = 
REMARK  5 active torsions:
REMARK  status: ('A' for Active; 'I' for Inactive)
REMARK    1  A    between atoms: C_2  and  N_4
REMARK    2  A    between atoms: N_4  and  C_5
REMARK    3  A    between atoms: C_8  and  C_9
REMARK    4  A    between atoms: C_9  and  N_10
REMARK    5  A    between atoms: N_10  and  S_11
REMARK                            x       y       z     vdW  Elec       q    Type
REMARK                         _______ _______ _______ _____ _____    ______ ____
ROOT
ATOM      5  C   UNL     1       0.568   1.114   0.000  0.00  0.00    +0.135 C 
ATOM      6  C   UNL     1       1.235   0.629   0.000  0.00  0.00    +0.162 C 
ATOM      7  O   UNL     1       0.980  -0.155   0.000  0.00  0.00    -0.350 OA
ATOM      8  C   UNL     1       0.155  -0.155   0.000  0.00  0.00    +0.166 C 
ATOM     15  C   UNL     1      -0.100   0.629   0.000  0.00  0.00    +0.199 C 
ATOM     16  O   UNL     1      -0.884   0.884   0.000  0.00  0.00    -0.219 OA
ENDROOT
BRANCH   5   4
ATOM      4  N   UNL     1       0.568   1.939   0.000  0.00  0.00    -0.216 NA
BRANCH   4   2
ATOM      1  C   UNL     1       1.282   3.177   0.000  0.00  0.00    +0.019 C 
ATOM      2  C   UNL     1       1.282   2.352   0.000  0.00  0.00    +0.073 C 
ATOM      3  C   UNL     1       1.997   1.939   0.000  0.00  0.00    +0.019 C 
ENDBRANCH   4   2
ENDBRANCH   5   4
BRANCH   8   9
ATOM      9  C   UNL     1      -0.330  -0.823   0.000  0.00  0.00    +0.147 C 
BRANCH   9  10
ATOM     10  N   UNL     1      -1.150  -0.737   0.000  0.00  0.00    -0.079 NA
BRANCH  10  11
ATOM     11  S   UNL     1      -1.635  -1.404   0.000  0.00  0.00    +0.059 S 
ATOM     12  C   UNL     1      -2.120  -2.071   0.000  0.00  0.00    +0.197 C 
ATOM     13  O   UNL     1      -2.303  -0.919   0.000  0.00  0.00    -0.156 OA
ATOM     14  O   UNL     1      -0.968  -1.889   0.000  0.00  0.00    -0.156 OA
ENDBRANCH  10  11
ENDBRANCH   9  10
ENDBRANCH   8   9
TORSDOF 5
