MODEL 1
REMARK VINA RESULT:     -11.5      0.000      0.000
REMARK  Name = 
REMARK  7 active torsions:
REMARK  status: ('A' for Active; 'I' for Inactive)
REMARK    1  A    between atoms: N_2  and  C_4
REMARK    2  A    between atoms: C_7  and  C_8
REMARK    3  A    between atoms: C_8  and  N_9
REMARK    4  A    between atoms: N_9  and  C_10
REMARK    5  A    between atoms: C_15  and  C_16
REMARK    6  A    between atoms: C_16  and  C_17
REMARK    7  A    between atoms: C_17  and  C_18
REMARK                            x       y       z     vdW  Elec       q    Type
REMARK                         _______ _______ _______ _____ _____    ______ ____
ROOT
ATOM     10  C   UNL     1      -4.720   1.432  24.872  0.00  0.00    +0.091 C 
ATOM     11  C   UNL     1      -5.381   1.766  25.234  0.00  0.00    +0.044 C 
ATOM     12  C   UNL     1      -5.224   2.564  25.365  0.00  0.00    +0.138 C 
ATOM     13  N   UNL     1      -4.465   2.725  25.084  0.00  0.00    -0.265 NA
ATOM     14  C   UNL     1      -4.153   2.025  24.779  0.00  0.00    +0.090 C 
ATOM     15  C   UNL     1      -4.157   3.488  25.142  0.00  0.00    +0.080 C 
ATOM     27  C   UNL     1      -4.607   4.090  25.481  0.00  0.00    +0.131 C 
ATOM     28  N   UNL     1      -5.366   3.930  25.762  0.00  0.00    -0.203 NA
ATOM     29  C   UNL     1      -5.675   3.167  25.704  0.00  0.00    +0.256 C 
ATOM     30  O   UNL     1      -6.434   3.007  25.986  0.00  0.00    -0.272 OA
ENDROOT
BRANCH  10   9
ATOM      9  N   UNL     1      -4.638   0.644  24.642  0.00  0.00    -0.213 NA
BRANCH   9   8
ATOM      8  C   UNL     1      -4.526   0.058  25.212  0.00  0.00    +0.115 C 
BRANCH   8   7
ATOM      4  C   UNL     1      -3.312  -2.019  24.630  0.00  0.00    +0.048 A 
ATOM      5  C   UNL     1      -3.870  -1.707  24.109  0.00  0.00    +0.014 A 
ATOM      6  C   UNL     1      -4.275  -1.015  24.303  0.00  0.00    -0.002 A 
ATOM      7  C   UNL     1      -4.121  -0.635  25.018  0.00  0.00    -0.005 A 
ATOM     31  C   UNL     1      -3.563  -0.946  25.540  0.00  0.00    -0.002 A 
ATOM     32  C   UNL     1      -3.158  -1.638  25.346  0.00  0.00    +0.014 A 
BRANCH   4   2
ATOM      1  C   UNL     1      -2.087  -2.698  24.346  0.00  0.00    +0.112 C 
ATOM      2  N   UNL     1      -2.907  -2.712  24.436  0.00  0.00    -0.304 N 
ATOM      3  C   UNL     1      -3.322  -3.416  24.333  0.00  0.00    +0.112 C 
ENDBRANCH   4   2
ENDBRANCH   8   7
ENDBRANCH   9   8
ENDBRANCH  10   9
BRANCH  15  16
ATOM     16  C   UNL     1      -3.399   3.649  24.861  0.00  0.00    +0.027 C 
BRANCH  16  17
ATOM     17  C   UNL     1      -2.779   3.772  25.391  0.00  0.00    +0.087 C 
BRANCH  17  18
ATOM     18  C   UNL     1      -2.038   4.004  25.113  0.00  0.00    +0.226 C 
ATOM     19  O   UNL     1      -1.976   4.617  24.565  0.00  0.00    -0.275 OA
ATOM     20  N   UNL     1      -1.359   3.624  25.384  0.00  0.00    -0.279 N 
ATOM     21  C   UNL     1      -0.617   3.856  25.106  0.00  0.00    +0.096 C 
ATOM     22  C   UNL     1       0.063   3.475  25.377  0.00  0.00    +0.054 C 
ATOM     23  C   UNL     1       0.001   2.862  25.925  0.00  0.00    +0.155 C 
ATOM     24  O   UNL     1       0.682   2.480  26.196  0.00  0.00    -0.223 OA
ATOM     25  C   UNL     1      -0.740   2.629  26.203  0.00  0.00    +0.054 C 
ATOM     26  C   UNL     1      -1.419   3.010  25.932  0.00  0.00    +0.096 C 
ENDBRANCH  17  18
ENDBRANCH  16  17
ENDBRANCH  15  16
TORSDOF 7
ENDMDL
MODEL 2
REMARK VINA RESULT:     -10.0      1.659      4.019
REMARK  Name = 
REMARK  7 active torsions:
REMARK  status: ('A' for Active; 'I' for Inactive)
REMARK    1  A    between atoms: N_2  and  C_4
REMARK    2  A    between atoms: C_7  and  C_8
REMARK    3  A    between atoms: C_8  and  N_9
REMARK    4  A    between atoms: N_9  and  C_10
REMARK    5  A    between atoms: C_15  and  C_16
REMARK    6  A    between atoms: C_16  and  C_17
REMARK    7  A    between atoms: C_17  and  C_18
REMARK                            x       y       z     vdW  Elec       q    Type
REMARK                         _______ _______ _______ _____ _____    ______ ____
ROOT
ATOM     10  C   UNL     1      -0.840   2.631  25.169  0.00  0.00    +0.091 C 
ATOM     11  C   UNL     1      -0.458   3.306  24.890  0.00  0.00    +0.044 C 
ATOM     12  C   UNL     1      -0.945   3.954  25.039  0.00  0.00    +0.138 C 
ATOM     13  N   UNL     1      -1.629   3.680  25.411  0.00  0.00    -0.265 NA
ATOM     14  C   UNL     1      -1.564   2.862  25.492  0.00  0.00    +0.090 C 
ATOM     15  C   UNL     1      -2.221   4.211  25.628  0.00  0.00    +0.080 C 
ATOM     27  C   UNL     1      -2.131   5.016  25.473  0.00  0.00    +0.131 C 
ATOM     28  N   UNL     1      -1.448   5.291  25.101  0.00  0.00    -0.203 NA
ATOM     29  C   UNL     1      -0.855   4.760  24.884  0.00  0.00    +0.256 C 
ATOM     30  O   UNL     1      -0.171   5.035  24.512  0.00  0.00    -0.272 OA
ENDROOT
BRANCH  10   9
ATOM      9  N   UNL     1      -0.550   1.859  25.133  0.00  0.00    -0.213 NA
BRANCH   9   8
ATOM      8  C   UNL     1      -0.780   1.360  24.519  0.00  0.00    +0.115 C 
BRANCH   8   7
ATOM      4  C   UNL     1      -0.807  -1.092  24.858  0.00  0.00    +0.048 A 
ATOM      5  C   UNL     1      -0.282  -0.755  24.318  0.00  0.00    +0.014 A 
ATOM      6  C   UNL     1      -0.273   0.062  24.205  0.00  0.00    -0.002 A 
ATOM      7  C   UNL     1      -0.789   0.543  24.632  0.00  0.00    -0.005 A 
ATOM     31  C   UNL     1      -1.315   0.207  25.172  0.00  0.00    -0.002 A 
ATOM     32  C   UNL     1      -1.324  -0.610  25.285  0.00  0.00    +0.014 A 
BRANCH   4   2
ATOM      1  C   UNL     1      -1.449  -2.357  24.688  0.00  0.00    +0.112 C 
ATOM      2  N   UNL     1      -0.816  -1.909  24.971  0.00  0.00    -0.304 N 
ATOM      3  C   UNL     1      -0.193  -2.277  25.366  0.00  0.00    +0.112 C 
ENDBRANCH   4   2
ENDBRANCH   8   7
ENDBRANCH   9   8
ENDBRANCH  10   9
BRANCH  15  16
ATOM     16  C   UNL     1      -2.905   3.937  26.000  0.00  0.00    +0.027 C 
BRANCH  16  17
ATOM     17  C   UNL     1      -3.595   3.821  25.563  0.00  0.00    +0.087 C 
BRANCH  17  18
ATOM     18  C   UNL     1      -4.303   3.644  25.948  0.00  0.00    +0.226 C 
ATOM     19  O   UNL     1      -4.484   4.008  26.665  0.00  0.00    -0.275 OA
ATOM     20  N   UNL     1      -4.829   3.104  25.615  0.00  0.00    -0.279 N 
ATOM     21  C   UNL     1      -5.537   2.928  26.000  0.00  0.00    +0.096 C 
ATOM     22  C   UNL     1      -6.064   2.387  25.667  0.00  0.00    +0.054 C 
ATOM     23  C   UNL     1      -5.882   2.023  24.949  0.00  0.00    +0.155 C 
ATOM     24  O   UNL     1      -6.410   1.482  24.616  0.00  0.00    -0.223 OA
ATOM     25  C   UNL     1      -5.175   2.200  24.564  0.00  0.00    +0.054 C 
ATOM     26  C   UNL     1      -4.648   2.740  24.897  0.00  0.00    +0.096 C 
ENDBRANCH  17  18
ENDBRANCH  16  17
ENDBRANCH  15  16
TORSDOF 7
ENDMDL
MODEL 3
REMARK VINA RESULT:     -10.0      1.331      3.753
REMARK  Name = 
REMARK  7 active torsions:
REMARK  status: ('A' for Active; 'I' for Inactive)
REMARK    1  A    between atoms: N_2  and  C_4
REMARK    2  A    between atoms: C_7  and  C_8
REMARK    3  A    between atoms: C_8  and  N_9
REMARK    4  A    between atoms: N_9  and  C_10
REMARK    5  A    between atoms: C_15  and  C_16
REMARK    6  A    between atoms: C_16  and  C_17
REMARK    7  A    between atoms: C_17  and  C_18
REMARK                            x       y       z     vdW  Elec       q    Type
REMARK                         _______ _______ _______ _____ _____    ______ ____
ROOT
ATOM     10  C   UNL     1      -0.889   0.775  25.101  0.00  0.00    +0.091 C 
ATOM     11  C   UNL     1      -0.233   1.114  24.732  0.00  0.00    +0.044 C 
ATOM     12  C   UNL     1      -0.313   1.934  24.773  0.00  0.00    +0.138 C 
ATOM     13  N   UNL     1      -1.018   2.102  25.167  0.00  0.00    -0.265 NA
ATOM     14  C   UNL     1      -1.374   1.387  25.370  0.00  0.00    +0.090 C 
ATOM     15  C   UNL     1      -1.244   2.886  25.290  0.00  0.00    +0.080 C 
ATOM     27  C   UNL     1      -0.766   3.501  25.020  0.00  0.00    +0.131 C 
ATOM     28  N   UNL     1      -0.061   3.332  24.626  0.00  0.00    -0.203 NA
ATOM     29  C   UNL     1       0.166   2.549  24.503  0.00  0.00    +0.256 C 
ATOM     30  O   UNL     1       0.871   2.381  24.109  0.00  0.00    -0.272 OA
ENDROOT
BRANCH  10   9
ATOM      9  N   UNL     1      -1.034  -0.032  25.186  0.00  0.00    -0.213 NA
BRANCH   9   8
ATOM      8  C   UNL     1      -1.688  -0.291  25.616  0.00  0.00    +0.115 C 
BRANCH   8   7
ATOM      4  C   UNL     1      -3.126  -2.096  24.722  0.00  0.00    +0.048 A 
ATOM      5  C   UNL     1      -2.308  -2.136  24.629  0.00  0.00    +0.014 A 
ATOM      6  C   UNL     1      -1.828  -1.534  24.927  0.00  0.00    -0.002 A 
ATOM      7  C   UNL     1      -2.168  -0.893  25.318  0.00  0.00    -0.005 A 
ATOM     31  C   UNL     1      -2.987  -0.852  25.412  0.00  0.00    -0.002 A 
ATOM     32  C   UNL     1      -3.466  -1.453  25.113  0.00  0.00    +0.014 A 
BRANCH   4   2
ATOM      1  C   UNL     1      -4.216  -2.516  23.899  0.00  0.00    +0.112 C 
ATOM      2  N   UNL     1      -3.605  -2.698  24.423  0.00  0.00    -0.304 N 
ATOM      3  C   UNL     1      -3.474  -3.479  24.650  0.00  0.00    +0.112 C 
ENDBRANCH   4   2
ENDBRANCH   8   7
ENDBRANCH   9   8
ENDBRANCH  10   9
BRANCH  15  16
ATOM     16  C   UNL     1      -1.949   3.054  25.684  0.00  0.00    +0.027 C 
BRANCH  16  17
ATOM     17  C   UNL     1      -2.615   3.287  25.257  0.00  0.00    +0.087 C 
BRANCH  17  18
ATOM     18  C   UNL     1      -3.298   3.527  25.654  0.00  0.00    +0.226 C 
ATOM     19  O   UNL     1      -3.247   4.082  26.261  0.00  0.00    -0.275 OA
ATOM     20  N   UNL     1      -4.029   3.212  25.443  0.00  0.00    -0.279 N 
ATOM     21  C   UNL     1      -4.712   3.452  25.840  0.00  0.00    +0.096 C 
ATOM     22  C   UNL     1      -5.445   3.136  25.629  0.00  0.00    +0.054 C 
ATOM     23  C   UNL     1      -5.495   2.581  25.022  0.00  0.00    +0.155 C 
ATOM     24  O   UNL     1      -6.228   2.265  24.811  0.00  0.00    -0.223 OA
ATOM     25  C   UNL     1      -4.813   2.340  24.625  0.00  0.00    +0.054 C 
ATOM     26  C   UNL     1      -4.081   2.656  24.835  0.00  0.00    +0.096 C 
ENDBRANCH  17  18
ENDBRANCH  16  17
ENDBRANCH  15  16
TORSDOF 7
ENDMDL
MODEL 4
REMARK VINA RESULT:      -9.9      2.568      4.961
REMARK  Name = 
REMARK  7 active torsions:
REMARK  status: ('A' for Active; 'I' for Inactive)
REMARK    1  A    between atoms: N_2  and  C_4
REMARK    2  A    between atoms: C_7  and  C_8
REMARK    3  A    between atoms: C_8  and  N_9
REMARK    4  A    between atoms: N_9  and  C_10
REMARK    5  A    between atoms: C_15  and  C_16
REMARK    6  A    between atoms: C_16  and  C_17
REMARK    7  A    between atoms: C_17  and  C_18
REMARK                            x       y       z     vdW  Elec       q    Type
REMARK                         _______ _______ _______ _____ _____    ______ ____
ROOT
ATOM     10  C   UNL     1      -3.781  -0.506  25.053  0.00  0.00    +0.091 C 
ATOM     11  C   UNL     1      -3.925  -1.304  24.905  0.00  0.00    +0.044 C 
ATOM     12  C   UNL     1      -3.199  -1.675  24.781  0.00  0.00    +0.138 C 
ATOM     13  N   UNL     1      -2.606  -1.106  24.852  0.00  0.00    -0.265 NA
ATOM     14  C   UNL     1      -2.965  -0.383  25.020  0.00  0.00    +0.090 C 
ATOM     15  C   UNL     1      -1.815  -1.321  24.754  0.00  0.00    +0.080 C 
ATOM     27  C   UNL     1      -1.618  -2.103  24.586  0.00  0.00    +0.131 C 
ATOM     28  N   UNL     1      -2.211  -2.672  24.515  0.00  0.00    -0.203 NA
ATOM     29  C   UNL     1      -3.002  -2.459  24.612  0.00  0.00    +0.256 C 
ATOM     30  O   UNL     1      -3.595  -3.028  24.541  0.00  0.00    -0.272 OA
ENDROOT
BRANCH  10   9
ATOM      9  N   UNL     1      -4.352   0.070  25.207  0.00  0.00    -0.213 NA
BRANCH   9   8
ATOM      8  C   UNL     1      -4.557   0.615  24.623  0.00  0.00    +0.115 C 
BRANCH   8   7
ATOM      4  C   UNL     1      -5.051   2.961  25.234  0.00  0.00    +0.048 A 
ATOM      5  C   UNL     1      -5.470   2.345  25.589  0.00  0.00    +0.014 A 
ATOM      6  C   UNL     1      -5.305   1.563  25.385  0.00  0.00    -0.002 A 
ATOM      7  C   UNL     1      -4.721   1.397  24.826  0.00  0.00    -0.005 A 
ATOM     31  C   UNL     1      -4.302   2.012  24.471  0.00  0.00    -0.002 A 
ATOM     32  C   UNL     1      -4.466   2.795  24.675  0.00  0.00    +0.014 A 
BRANCH   4   2
ATOM      1  C   UNL     1      -4.628   4.319  25.374  0.00  0.00    +0.112 C 
ATOM      2  N   UNL     1      -5.216   3.744  25.438  0.00  0.00    -0.304 N 
ATOM      3  C   UNL     1      -5.967   3.950  25.707  0.00  0.00    +0.112 C 
ENDBRANCH   4   2
ENDBRANCH   8   7
ENDBRANCH   9   8
ENDBRANCH  10   9
BRANCH  15  16
ATOM     16  C   UNL     1      -1.222  -0.752  24.826  0.00  0.00    +0.027 C 
BRANCH  16  17
ATOM     17  C   UNL     1      -0.625  -0.705  24.259  0.00  0.00    +0.087 C 
BRANCH  17  18
ATOM     18  C   UNL     1      -0.117  -0.055  24.246  0.00  0.00    +0.226 C 
ATOM     19  O   UNL     1      -0.220   0.558  24.788  0.00  0.00    -0.275 OA
ATOM     20  N   UNL     1       0.491  -0.018  23.692  0.00  0.00    -0.279 N 
ATOM     21  C   UNL     1       0.999   0.633  23.679  0.00  0.00    +0.096 C 
ATOM     22  C   UNL     1       1.609   0.670  23.124  0.00  0.00    +0.054 C 
ATOM     23  C   UNL     1       1.710   0.056  22.582  0.00  0.00    +0.155 C 
ATOM     24  O   UNL     1       2.320   0.094  22.026  0.00  0.00    -0.223 OA
ATOM     25  C   UNL     1       1.203  -0.594  22.594  0.00  0.00    +0.054 C 
ATOM     26  C   UNL     1       0.594  -0.631  23.149  0.00  0.00    +0.096 C 
ENDBRANCH  17  18
ENDBRANCH  16  17
ENDBRANCH  15  16
TORSDOF 7
ENDMDL
MODEL 5
REMARK VINA RESULT:      -9.9      2.228      5.799
REMARK  Name = 
REMARK  7 active torsions:
REMARK  status: ('A' for Active; 'I' for Inactive)
REMARK    1  A    between atoms: N_2  and  C_4
REMARK    2  A    between atoms: C_7  and  C_8
REMARK    3  A    between atoms: C_8  and  N_9
REMARK    4  A    between atoms: N_9  and  C_10
REMARK    5  A    between atoms: C_15  and  C_16
REMARK    6  A    between atoms: C_16  and  C_17
REMARK    7  A    between atoms: C_17  and  C_18
REMARK                            x       y       z     vdW  Elec       q    Type
REMARK                         _______ _______ _______ _____ _____    ______ ____
ROOT
ATOM     10  C   UNL     1      -1.254   1.977  25.014  0.00  0.00    +0.091 C 
ATOM     11  C   UNL     1      -0.559   2.123  24.594  0.00  0.00    +0.044 C 
ATOM     12  C   UNL     1      -0.218   1.396  24.406  0.00  0.00    +0.138 C 
ATOM     13  N   UNL     1      -0.703   0.801  24.709  0.00  0.00    -0.265 NA
ATOM     14  C   UNL     1      -1.343   1.159  25.084  0.00  0.00    +0.090 C 
ATOM     15  C   UNL     1      -0.497   0.009  24.603  0.00  0.00    +0.080 C 
ATOM     27  C   UNL     1       0.192  -0.188  24.195  0.00  0.00    +0.131 C 
ATOM     28  N   UNL     1       0.676   0.407  23.892  0.00  0.00    -0.203 NA
ATOM     29  C   UNL     1       0.471   1.200  23.997  0.00  0.00    +0.256 C 
ATOM     30  O   UNL     1       0.956   1.795  23.694  0.00  0.00    -0.272 OA
ENDROOT
BRANCH  10   9
ATOM      9  N   UNL     1      -1.771   2.548  25.311  0.00  0.00    -0.213 NA
BRANCH   9   8
ATOM      8  C   UNL     1      -2.250   2.979  24.796  0.00  0.00    +0.115 C 
BRANCH   8   7
ATOM      4  C   UNL     1      -4.614   3.420  25.381  0.00  0.00    +0.048 A 
ATOM      5  C   UNL     1      -4.431   2.975  24.711  0.00  0.00    +0.014 A 
ATOM      6  C   UNL     1      -3.643   2.828  24.516  0.00  0.00    -0.002 A 
ATOM      7  C   UNL     1      -3.038   3.126  24.991  0.00  0.00    -0.005 A 
ATOM     31  C   UNL     1      -3.220   3.571  25.661  0.00  0.00    -0.002 A 
ATOM     32  C   UNL     1      -4.008   3.718  25.857  0.00  0.00    +0.014 A 
BRANCH   4   2
ATOM      1  C   UNL     1      -5.890   2.947  25.817  0.00  0.00    +0.112 C 
ATOM      2  N   UNL     1      -5.402   3.567  25.576  0.00  0.00    -0.304 N 
ATOM      3  C   UNL     1      -5.702   4.334  25.530  0.00  0.00    +0.112 C 
ENDBRANCH   4   2
ENDBRANCH   8   7
ENDBRANCH   9   8
ENDBRANCH  10   9
BRANCH  15  16
ATOM     16  C   UNL     1      -0.981  -0.587  24.906  0.00  0.00    +0.027 C 
BRANCH  16  17
ATOM     17  C   UNL     1      -1.438  -1.047  24.396  0.00  0.00    +0.087 C 
BRANCH  17  18
ATOM     18  C   UNL     1      -1.777  -1.749  24.665  0.00  0.00    +0.226 C 
ATOM     19  O   UNL     1      -1.344  -2.256  25.150  0.00  0.00    -0.275 OA
ATOM     20  N   UNL     1      -2.549  -1.942  24.450  0.00  0.00    -0.279 N 
ATOM     21  C   UNL     1      -2.888  -2.644  24.720  0.00  0.00    +0.096 C 
ATOM     22  C   UNL     1      -3.662  -2.839  24.504  0.00  0.00    +0.054 C 
ATOM     23  C   UNL     1      -4.094  -2.330  24.020  0.00  0.00    +0.155 C 
ATOM     24  O   UNL     1      -4.867  -2.525  23.804  0.00  0.00    -0.223 OA
ATOM     25  C   UNL     1      -3.755  -1.628  23.750  0.00  0.00    +0.054 C 
ATOM     26  C   UNL     1      -2.983  -1.435  23.965  0.00  0.00    +0.096 C 
ENDBRANCH  17  18
ENDBRANCH  16  17
ENDBRANCH  15  16
TORSDOF 7
ENDMDL
MODEL 6
REMARK VINA RESULT:      -9.5      3.237      5.316
REMARK  Name = 
REMARK  7 active torsions:
REMARK  status: ('A' for Active; 'I' for Inactive)
REMARK    1  A    between atoms: N_2  and  C_4
REMARK    2  A    between atoms: C_7  and  C_8
REMARK    3  A    between atoms: C_8  and  N_9
REMARK    4  A    between atoms: N_9  and  C_10
REMARK    5  A    between atoms: C_15  and  C_16
REMARK    6  A    between atoms: C_16  and  C_17
REMARK    7  A    between atoms: C_17  and  C_18
REMARK                            x       y       z     vdW  Elec       q    Type
REMARK                         _______ _______ _______ _____ _____    ______ ____
ROOT
ATOM     10  C   UNL     1      -0.617  -0.498  24.183  0.00  0.00    +0.091 C 
ATOM     11  C   UNL     1      -0.998  -1.189  24.424  0.00  0.00    +0.044 C 
ATOM     12  C   UNL     1      -1.773  -0.996  24.628  0.00  0.00    +0.138 C 
ATOM     13  N   UNL     1      -1.872  -0.185  24.513  0.00  0.00    -0.265 NA
ATOM     14  C   UNL     1      -1.158   0.123  24.238  0.00  0.00    +0.090 C 
ATOM     15  C   UNL     1      -2.600   0.168  24.673  0.00  0.00    +0.080 C 
ATOM     27  C   UNL     1      -3.229  -0.289  24.948  0.00  0.00    +0.131 C 
ATOM     28  N   UNL     1      -3.130  -1.100  25.064  0.00  0.00    -0.203 NA
ATOM     29  C   UNL     1      -2.402  -1.454  24.904  0.00  0.00    +0.256 C 
ATOM     30  O   UNL     1      -2.303  -2.264  25.019  0.00  0.00    -0.272 OA
ENDROOT
BRANCH  10   9
ATOM      9  N   UNL     1       0.166  -0.438  23.932  0.00  0.00    -0.213 NA
BRANCH   9   8
ATOM      8  C   UNL     1       0.371   0.104  23.345  0.00  0.00    +0.115 C 
BRANCH   8   7
ATOM      4  C   UNL     1       2.745   0.413  22.718  0.00  0.00    +0.048 A 
ATOM      5  C   UNL     1       2.395   0.916  23.269  0.00  0.00    +0.014 A 
ATOM      6  C   UNL     1       1.603   0.813  23.478  0.00  0.00    -0.002 A 
ATOM      7  C   UNL     1       1.162   0.207  23.136  0.00  0.00    -0.005 A 
ATOM     31  C   UNL     1       1.512  -0.297  22.584  0.00  0.00    -0.002 A 
ATOM     32  C   UNL     1       2.303  -0.194  22.375  0.00  0.00    +0.014 A 
BRANCH   4   2
ATOM      1  C   UNL     1       3.759   0.492  21.714  0.00  0.00    +0.112 C 
ATOM      2  N   UNL     1       3.536   0.516  22.508  0.00  0.00    -0.304 N 
ATOM      3  C   UNL     1       4.104   0.643  23.093  0.00  0.00    +0.112 C 
ENDBRANCH   4   2
ENDBRANCH   8   7
ENDBRANCH   9   8
ENDBRANCH  10   9
BRANCH  15  16
ATOM     16  C   UNL     1      -2.700   0.979  24.558  0.00  0.00    +0.027 C 
BRANCH  16  17
ATOM     17  C   UNL     1      -3.384   1.354  24.826  0.00  0.00    +0.087 C 
BRANCH  17  18
ATOM     18  C   UNL     1      -3.441   2.176  24.802  0.00  0.00    +0.226 C 
ATOM     19  O   UNL     1      -2.809   2.625  24.520  0.00  0.00    -0.275 OA
ATOM     20  N   UNL     1      -4.129   2.549  25.059  0.00  0.00    -0.279 N 
ATOM     21  C   UNL     1      -4.186   3.372  25.034  0.00  0.00    +0.096 C 
ATOM     22  C   UNL     1      -4.876   3.746  25.292  0.00  0.00    +0.054 C 
ATOM     23  C   UNL     1      -5.507   3.297  25.574  0.00  0.00    +0.155 C 
ATOM     24  O   UNL     1      -6.197   3.671  25.832  0.00  0.00    -0.223 OA
ATOM     25  C   UNL     1      -5.450   2.474  25.599  0.00  0.00    +0.054 C 
ATOM     26  C   UNL     1      -4.762   2.101  25.341  0.00  0.00    +0.096 C 
ENDBRANCH  17  18
ENDBRANCH  16  17
ENDBRANCH  15  16
TORSDOF 7
ENDMDL
MODEL 7
REMARK VINA RESULT:      -9.0      2.644      4.583
REMARK  Name = 
REMARK  7 active torsions:
REMARK  status: ('A' for Active; 'I' for Inactive)
REMARK    1  A    between atoms: N_2  and  C_4
REMARK    2  A    between atoms: C_7  and  C_8
REMARK    3  A    between atoms: C_8  and  N_9
REMARK    4  A    between atoms: N_9  and  C_10
REMARK    5  A    between atoms: C_15  and  C_16
REMARK    6  A    between atoms: C_16  and  C_17
REMARK    7  A    between atoms: C_17  and  C_18
REMARK                            x       y       z     vdW  Elec       q    Type
REMARK                         _______ _______ _______ _____ _____    ______ ____
ROOT
ATOM     10  C   UNL     1      -1.493   2.499  24.621  0.00  0.00    +0.091 C 
ATOM     11  C   UNL     1      -1.693   3.137  25.105  0.00  0.00    +0.044 C 
ATOM     12  C   UNL     1      -2.505   3.107  25.243  0.00  0.00    +0.138 C 
ATOM     13  N   UNL     1      -2.808   2.451  24.844  0.00  0.00    -0.265 NA
ATOM     14  C   UNL     1      -2.182   2.075  24.460  0.00  0.00    +0.090 C 
ATOM     15  C   UNL     1      -3.614   2.281  24.883  0.00  0.00    +0.080 C 
ATOM     27  C   UNL     1      -4.118   2.766  25.320  0.00  0.00    +0.131 C 
ATOM     28  N   UNL     1      -3.815   3.422  25.718  0.00  0.00    -0.203 NA
ATOM     29  C   UNL     1      -3.009   3.593  25.680  0.00  0.00    +0.256 C 
ATOM     30  O   UNL     1      -2.707   4.249  26.079  0.00  0.00    -0.272 OA
ENDROOT
BRANCH  10   9
ATOM      9  N   UNL     1      -0.736   2.318  24.347  0.00  0.00    -0.213 NA
BRANCH   9   8
ATOM      8  C   UNL     1      -0.356   1.634  24.607  0.00  0.00    +0.115 C 
BRANCH   8   7
ATOM      4  C   UNL     1       1.285   0.495  23.146  0.00  0.00    +0.048 A 
ATOM      5  C   UNL     1       0.573   0.125  23.334  0.00  0.00    +0.014 A 
ATOM      6  C   UNL     1       0.026   0.504  23.821  0.00  0.00    -0.002 A 
ATOM      7  C   UNL     1       0.191   1.254  24.120  0.00  0.00    -0.005 A 
ATOM     31  C   UNL     1       0.904   1.626  23.933  0.00  0.00    -0.002 A 
ATOM     32  C   UNL     1       1.451   1.246  23.446  0.00  0.00    +0.014 A 
BRANCH   4   2
ATOM      1  C   UNL     1       1.571  -0.338  22.021  0.00  0.00    +0.112 C 
ATOM      2  N   UNL     1       1.832   0.115  22.659  0.00  0.00    -0.304 N 
ATOM      3  C   UNL     1       2.639   0.189  22.810  0.00  0.00    +0.112 C 
ENDBRANCH   4   2
ENDBRANCH   8   7
ENDBRANCH   9   8
ENDBRANCH  10   9
BRANCH  15  16
ATOM     16  C   UNL     1      -3.917   1.625  24.484  0.00  0.00    +0.027 C 
BRANCH  16  17
ATOM     17  C   UNL     1      -4.039   0.916  24.888  0.00  0.00    +0.087 C 
BRANCH  17  18
ATOM     18  C   UNL     1      -4.317   0.253  24.484  0.00  0.00    +0.226 C 
ATOM     19  O   UNL     1      -4.846   0.344  23.858  0.00  0.00    -0.275 OA
ATOM     20  N   UNL     1      -4.066  -0.500  24.707  0.00  0.00    -0.279 N 
ATOM     21  C   UNL     1      -4.344  -1.163  24.303  0.00  0.00    +0.096 C 
ATOM     22  C   UNL     1      -4.093  -1.918  24.525  0.00  0.00    +0.054 C 
ATOM     23  C   UNL     1      -3.564  -2.008  25.152  0.00  0.00    +0.155 C 
ATOM     24  O   UNL     1      -3.313  -2.762  25.374  0.00  0.00    -0.223 OA
ATOM     25  C   UNL     1      -3.286  -1.344  25.556  0.00  0.00    +0.054 C 
ATOM     26  C   UNL     1      -3.537  -0.591  25.333  0.00  0.00    +0.096 C 
ENDBRANCH  17  18
ENDBRANCH  16  17
ENDBRANCH  15  16
TORSDOF 7
ENDMDL
MODEL 8
REMARK VINA RESULT:      -8.8      1.790      5.643
REMARK  Name = 
REMARK  7 active torsions:
REMARK  status: ('A' for Active; 'I' for Inactive)
REMARK    1  A    between atoms: N_2  and  C_4
REMARK    2  A    between atoms: C_7  and  C_8
REMARK    3  A    between atoms: C_8  and  N_9
REMARK    4  A    between atoms: N_9  and  C_10
REMARK    5  A    between atoms: C_15  and  C_16
REMARK    6  A    between atoms: C_16  and  C_17
REMARK    7  A    between atoms: C_17  and  C_18
REMARK                            x       y       z     vdW  Elec       q    Type
REMARK                         _______ _______ _______ _____ _____    ______ ____
ROOT
ATOM     10  C   UNL     1      -0.871   0.458  24.572  0.00  0.00    +0.091 C 
ATOM     11  C   UNL     1      -0.571  -0.268  24.823  0.00  0.00    +0.044 C 
ATOM     12  C   UNL     1      -1.193  -0.809  24.840  0.00  0.00    +0.138 C 
ATOM     13  N   UNL     1      -1.878  -0.417  24.599  0.00  0.00    -0.265 NA
ATOM     14  C   UNL     1      -1.680   0.365  24.434  0.00  0.00    +0.090 C 
ATOM     15  C   UNL     1      -2.595  -0.825  24.563  0.00  0.00    +0.080 C 
ATOM     27  C   UNL     1      -2.626  -1.624  24.766  0.00  0.00    +0.131 C 
ATOM     28  N   UNL     1      -1.941  -2.015  25.007  0.00  0.00    -0.203 NA
ATOM     29  C   UNL     1      -1.224  -1.608  25.044  0.00  0.00    +0.256 C 
ATOM     30  O   UNL     1      -0.539  -2.000  25.285  0.00  0.00    -0.272 OA
ENDROOT
BRANCH  10   9
ATOM      9  N   UNL     1      -0.440   1.154  24.476  0.00  0.00    -0.213 NA
BRANCH   9   8
ATOM      8  C   UNL     1      -0.290   1.641  25.125  0.00  0.00    +0.115 C 
BRANCH   8   7
ATOM      4  C   UNL     1      -0.889   4.041  25.040  0.00  0.00    +0.048 A 
ATOM      5  C   UNL     1      -1.056   3.597  25.715  0.00  0.00    +0.014 A 
ATOM      6  C   UNL     1      -0.857   2.797  25.743  0.00  0.00    -0.002 A 
ATOM      7  C   UNL     1      -0.489   2.441  25.096  0.00  0.00    -0.005 A 
ATOM     31  C   UNL     1      -0.321   2.884  24.421  0.00  0.00    -0.002 A 
ATOM     32  C   UNL     1      -0.521   3.684  24.393  0.00  0.00    +0.014 A 
BRANCH   4   2
ATOM      1  C   UNL     1      -1.823   5.092  25.290  0.00  0.00    +0.112 C 
ATOM      2  N   UNL     1      -1.088   4.841  25.012  0.00  0.00    -0.304 N 
ATOM      3  C   UNL     1      -0.553   5.388  24.705  0.00  0.00    +0.112 C 
ENDBRANCH   4   2
ENDBRANCH   8   7
ENDBRANCH   9   8
ENDBRANCH  10   9
BRANCH  15  16
ATOM     16  C   UNL     1      -3.280  -0.434  24.322  0.00  0.00    +0.027 C 
BRANCH  16  17
ATOM     17  C   UNL     1      -3.731  -0.015  24.871  0.00  0.00    +0.087 C 
BRANCH  17  18
ATOM     18  C   UNL     1      -4.506   0.202  24.690  0.00  0.00    +0.226 C 
ATOM     19  O   UNL     1      -4.999  -0.326  24.291  0.00  0.00    -0.275 OA
ATOM     20  N   UNL     1      -4.787   0.945  24.907  0.00  0.00    -0.279 N 
ATOM     21  C   UNL     1      -5.562   1.162  24.725  0.00  0.00    +0.096 C 
ATOM     22  C   UNL     1      -5.844   1.907  24.943  0.00  0.00    +0.054 C 
ATOM     23  C   UNL     1      -5.351   2.434  25.342  0.00  0.00    +0.155 C 
ATOM     24  O   UNL     1      -5.633   3.179  25.560  0.00  0.00    -0.223 OA
ATOM     25  C   UNL     1      -4.576   2.217  25.523  0.00  0.00    +0.054 C 
ATOM     26  C   UNL     1      -4.294   1.473  25.306  0.00  0.00    +0.096 C 
ENDBRANCH  17  18
ENDBRANCH  16  17
ENDBRANCH  15  16
TORSDOF 7
ENDMDL
MODEL 9
REMARK VINA RESULT:      -8.7      3.444      5.385
REMARK  Name = 
REMARK  7 active torsions:
REMARK  status: ('A' for Active; 'I' for Inactive)
REMARK    1  A    between atoms: N_2  and  C_4
REMARK    2  A    between atoms: C_7  and  C_8
REMARK    3  A    between atoms: C_8  and  N_9
REMARK    4  A    between atoms: N_9  and  C_10
REMARK    5  A    between atoms: C_15  and  C_16
REMARK    6  A    between atoms: C_16  and  C_17
REMARK    7  A    between atoms: C_17  and  C_18
REMARK                            x       y       z     vdW  Elec       q    Type
REMARK                         _______ _______ _______ _____ _____    ______ ____
ROOT
ATOM     10  C   UNL     1      -1.762   0.755  24.687  0.00  0.00    +0.091 C 
ATOM     11  C   UNL     1      -1.769   0.122  25.216  0.00  0.00    +0.044 C 
ATOM     12  C   UNL     1      -1.158  -0.391  25.008  0.00  0.00    +0.138 C 
ATOM     13  N   UNL     1      -0.773  -0.076  24.349  0.00  0.00    -0.265 NA
ATOM     14  C   UNL     1      -1.146   0.632  24.151  0.00  0.00    +0.090 C 
ATOM     15  C   UNL     1      -0.133  -0.476  24.016  0.00  0.00    +0.080 C 
ATOM     27  C   UNL     1       0.123  -1.190  24.341  0.00  0.00    +0.131 C 
ATOM     28  N   UNL     1      -0.262  -1.504  24.999  0.00  0.00    -0.203 NA
ATOM     29  C   UNL     1      -0.903  -1.106  25.333  0.00  0.00    +0.256 C 
ATOM     30  O   UNL     1      -1.287  -1.420  25.991  0.00  0.00    -0.272 OA
ENDROOT
BRANCH  10   9
ATOM      9  N   UNL     1      -2.279   1.397  24.691  0.00  0.00    -0.213 NA
BRANCH   9   8
ATOM      8  C   UNL     1      -3.025   1.330  24.346  0.00  0.00    +0.115 C 
BRANCH   8   7
ATOM      4  C   UNL     1      -4.906   2.705  25.181  0.00  0.00    +0.048 A 
ATOM      5  C   UNL     1      -4.983   1.885  25.133  0.00  0.00    +0.014 A 
ATOM      6  C   UNL     1      -4.356   1.427  24.855  0.00  0.00    -0.002 A 
ATOM      7  C   UNL     1      -3.652   1.788  24.624  0.00  0.00    -0.005 A 
ATOM     31  C   UNL     1      -3.574   2.608  24.671  0.00  0.00    -0.002 A 
ATOM     32  C   UNL     1      -4.201   3.067  24.949  0.00  0.00    +0.014 A 
BRANCH   4   2
ATOM      1  C   UNL     1      -5.467   3.985  25.475  0.00  0.00    +0.112 C 
ATOM      2  N   UNL     1      -5.533   3.163  25.459  0.00  0.00    -0.304 N 
ATOM      3  C   UNL     1      -6.225   2.799  25.721  0.00  0.00    +0.112 C 
ENDBRANCH   4   2
ENDBRANCH   8   7
ENDBRANCH   9   8
ENDBRANCH  10   9
BRANCH  15  16
ATOM     16  C   UNL     1       0.252  -0.161  23.358  0.00  0.00    +0.027 C 
BRANCH  16  17
ATOM     17  C   UNL     1       1.076  -0.125  23.339  0.00  0.00    +0.087 C 
BRANCH  17  18
ATOM     18  C   UNL     1       1.472  -0.092  22.616  0.00  0.00    +0.226 C 
ATOM     19  O   UNL     1       1.073  -0.279  21.920  0.00  0.00    -0.275 OA
ATOM     20  N   UNL     1       2.266   0.129  22.591  0.00  0.00    -0.279 N 
ATOM     21  C   UNL     1       2.661   0.163  21.868  0.00  0.00    +0.096 C 
ATOM     22  C   UNL     1       3.456   0.384  21.842  0.00  0.00    +0.054 C 
ATOM     23  C   UNL     1       3.854   0.572  22.540  0.00  0.00    +0.155 C 
ATOM     24  O   UNL     1       4.649   0.793  22.514  0.00  0.00    -0.223 OA
ATOM     25  C   UNL     1       3.459   0.538  23.263  0.00  0.00    +0.054 C 
ATOM     26  C   UNL     1       2.665   0.317  23.288  0.00  0.00    +0.096 C 
ENDBRANCH  17  18
ENDBRANCH  16  17
ENDBRANCH  15  16
TORSDOF 7
ENDMDL
MODEL 10
REMARK VINA RESULT:      -8.2      2.509      4.718
REMARK  Name = 
REMARK  7 active torsions:
REMARK  status: ('A' for Active; 'I' for Inactive)
REMARK    1  A    between atoms: N_2  and  C_4
REMARK    2  A    between atoms: C_7  and  C_8
REMARK    3  A    between atoms: C_8  and  N_9
REMARK    4  A    between atoms: N_9  and  C_10
REMARK    5  A    between atoms: C_15  and  C_16
REMARK    6  A    between atoms: C_16  and  C_17
REMARK    7  A    between atoms: C_17  and  C_18
REMARK                            x       y       z     vdW  Elec       q    Type
REMARK                         _______ _______ _______ _____ _____    ______ ____
ROOT
ATOM     10  C   UNL     1      -0.537   2.958  24.977  0.00  0.00    +0.091 C 
ATOM     11  C   UNL     1      -0.319   3.734  24.805  0.00  0.00    +0.044 C 
ATOM     12  C   UNL     1      -0.944   4.228  25.020  0.00  0.00    +0.138 C 
ATOM     13  N   UNL     1      -1.548   3.756  25.325  0.00  0.00    -0.265 NA
ATOM     14  C   UNL     1      -1.297   2.971  25.299  0.00  0.00    +0.090 C 
ATOM     15  C   UNL     1      -2.249   4.104  25.587  0.00  0.00    +0.080 C 
ATOM     27  C   UNL     1      -2.346   4.921  25.544  0.00  0.00    +0.131 C 
ATOM     28  N   UNL     1      -1.742   5.393  25.239  0.00  0.00    -0.203 NA
ATOM     29  C   UNL     1      -1.040   5.047  24.977  0.00  0.00    +0.256 C 
ATOM     30  O   UNL     1      -0.436   5.518  24.672  0.00  0.00    -0.272 OA
ENDROOT
BRANCH  10   9
ATOM      9  N   UNL     1      -0.076   2.285  24.850  0.00  0.00    -0.213 NA
BRANCH   9   8
ATOM      8  C   UNL     1      -0.358   1.675  24.372  0.00  0.00    +0.115 C 
BRANCH   8   7
ATOM      4  C   UNL     1       1.228   0.262  23.101  0.00  0.00    +0.048 A 
ATOM      5  C   UNL     1       1.449   1.020  23.339  0.00  0.00    +0.014 A 
ATOM      6  C   UNL     1       0.921   1.491  23.763  0.00  0.00    -0.002 A 
ATOM      7  C   UNL     1       0.170   1.204  23.948  0.00  0.00    -0.005 A 
ATOM     31  C   UNL     1      -0.053   0.446  23.710  0.00  0.00    -0.002 A 
ATOM     32  C   UNL     1       0.476  -0.025  23.287  0.00  0.00    +0.014 A 
BRANCH   4   2
ATOM      1  C   UNL     1       2.486  -0.408  23.007  0.00  0.00    +0.112 C 
ATOM      2  N   UNL     1       1.756  -0.209  22.677  0.00  0.00    -0.304 N 
ATOM      3  C   UNL     1       1.555  -0.480  21.925  0.00  0.00    +0.112 C 
ENDBRANCH   4   2
ENDBRANCH   8   7
ENDBRANCH   9   8
ENDBRANCH  10   9
BRANCH  15  16
ATOM     16  C   UNL     1      -2.853   3.632  25.892  0.00  0.00    +0.027 C 
BRANCH  16  17
ATOM     17  C   UNL     1      -3.598   3.634  25.537  0.00  0.00    +0.087 C 
BRANCH  17  18
ATOM     18  C   UNL     1      -4.263   3.410  25.971  0.00  0.00    +0.226 C 
ATOM     19  O   UNL     1      -4.354   3.667  26.749  0.00  0.00    -0.275 OA
ATOM     20  N   UNL     1      -4.836   2.927  25.626  0.00  0.00    -0.279 N 
ATOM     21  C   UNL     1      -5.501   2.703  26.060  0.00  0.00    +0.096 C 
ATOM     22  C   UNL     1      -6.075   2.220  25.715  0.00  0.00    +0.054 C 
ATOM     23  C   UNL     1      -5.983   1.963  24.937  0.00  0.00    +0.155 C 
ATOM     24  O   UNL     1      -6.557   1.480  24.592  0.00  0.00    -0.223 OA
ATOM     25  C   UNL     1      -5.318   2.188  24.503  0.00  0.00    +0.054 C 
ATOM     26  C   UNL     1      -4.745   2.670  24.848  0.00  0.00    +0.096 C 
ENDBRANCH  17  18
ENDBRANCH  16  17
ENDBRANCH  15  16
TORSDOF 7
ENDMDL
