MODEL 1
REMARK VINA RESULT:     -12.8      0.000      0.000
REMARK  Name = 
REMARK  3 active torsions:
REMARK  status: ('A' for Active; 'I' for Inactive)
REMARK    1  A    between atoms: C_2  and  C_5
REMARK    2  A    between atoms: N_18  and  C_19
REMARK    3  A    between atoms: C_19  and  C_20
REMARK                            x       y       z     vdW  Elec       q    Type
REMARK                         _______ _______ _______ _____ _____    ______ ____
ROOT
ATOM      5  C   UNL     1      -3.124  -1.795  24.845  0.00  0.00    +0.157 A 
ATOM      6  N   UNL     1      -3.579  -1.109  24.912  0.00  0.00    -0.210 NA
ATOM      7  C   UNL     1      -3.251  -0.376  24.722  0.00  0.00    +0.220 A 
ATOM      8  N   UNL     1      -2.468  -0.329  24.465  0.00  0.00    -0.212 NA
ATOM      9  C   UNL     1      -2.014  -1.014  24.399  0.00  0.00    +0.103 A 
ATOM     10  C   UNL     1      -2.341  -1.746  24.588  0.00  0.00    +0.044 A 
ATOM     11  N   UNL     1      -3.706   0.309  24.789  0.00  0.00    -0.274 N 
ATOM     12  C   UNL     1      -4.492   0.347  25.037  0.00  0.00    +0.125 C 
ATOM     13  C   UNL     1      -4.726   1.138  25.021  0.00  0.00    +0.155 C 
ATOM     14  O   UNL     1      -5.440   1.506  25.207  0.00  0.00    -0.343 OA
ATOM     15  C   UNL     1      -5.513   2.324  25.136  0.00  0.00    +0.227 C 
ATOM     16  C   UNL     1      -4.872   2.775  24.878  0.00  0.00    +0.256 C 
ATOM     17  O   UNL     1      -4.945   3.594  24.807  0.00  0.00    -0.272 OA
ATOM     18  N   UNL     1      -4.158   2.408  24.691  0.00  0.00    -0.271 N 
ATOM     26  C   UNL     1      -4.085   1.588  24.763  0.00  0.00    +0.124 C 
ATOM     27  C   UNL     1      -3.454   1.076  24.619  0.00  0.00    +0.116 C 
ENDROOT
BRANCH   5   2
ATOM      1  F   UNL     1      -3.780  -3.260  25.225  0.00  0.00    -0.164 F 
ATOM      2  C   UNL     1      -3.452  -2.527  25.035  0.00  0.00    +0.435 C 
ATOM      3  F   UNL     1      -3.581  -2.677  24.234  0.00  0.00    -0.164 F 
ATOM      4  F   UNL     1      -3.323  -2.377  25.836  0.00  0.00    -0.164 F 
ENDBRANCH   5   2
BRANCH  18  19
ATOM     19  C   UNL     1      -3.517   2.858  24.433  0.00  0.00    +0.120 C 
BRANCH  19  20
ATOM     20  C   UNL     1      -3.012   3.210  24.984  0.00  0.00    -0.002 A 
ATOM     21  C   UNL     1      -2.209   3.021  24.986  0.00  0.00    -0.003 A 
ATOM     22  C   UNL     1      -1.704   3.373  25.536  0.00  0.00    -0.000 A 
ATOM     23  C   UNL     1      -2.003   3.913  26.084  0.00  0.00    -0.000 A 
ATOM     24  C   UNL     1      -2.806   4.102  26.081  0.00  0.00    -0.000 A 
ATOM     25  C   UNL     1      -3.311   3.750  25.531  0.00  0.00    -0.003 A 
ENDBRANCH  19  20
ENDBRANCH  18  19
TORSDOF 3
ENDMDL
MODEL 2
REMARK VINA RESULT:     -12.6      3.218      5.273
REMARK  Name = 
REMARK  3 active torsions:
REMARK  status: ('A' for Active; 'I' for Inactive)
REMARK    1  A    between atoms: C_2  and  C_5
REMARK    2  A    between atoms: N_18  and  C_19
REMARK    3  A    between atoms: C_19  and  C_20
REMARK                            x       y       z     vdW  Elec       q    Type
REMARK                         _______ _______ _______ _____ _____    ______ ____
ROOT
ATOM      5  C   UNL     1      -1.548   3.678  25.122  0.00  0.00    +0.157 A 
ATOM      6  N   UNL     1      -1.324   2.888  25.045  0.00  0.00    -0.210 NA
ATOM      7  C   UNL     1      -1.858   2.287  25.231  0.00  0.00    +0.220 A 
ATOM      8  N   UNL     1      -2.616   2.477  25.494  0.00  0.00    -0.212 NA
ATOM      9  C   UNL     1      -2.841   3.268  25.571  0.00  0.00    +0.103 A 
ATOM     10  C   UNL     1      -2.307   3.868  25.385  0.00  0.00    +0.044 A 
ATOM     11  N   UNL     1      -1.634   1.497  25.154  0.00  0.00    -0.274 N 
ATOM     12  C   UNL     1      -0.898   1.224  24.899  0.00  0.00    +0.125 C 
ATOM     13  C   UNL     1      -0.915   0.400  24.906  0.00  0.00    +0.155 C 
ATOM     14  O   UNL     1      -0.348  -0.166  24.710  0.00  0.00    -0.343 OA
ATOM     15  C   UNL     1      -0.527  -0.968  24.772  0.00  0.00    +0.227 C 
ATOM     16  C   UNL     1      -1.273  -1.206  25.032  0.00  0.00    +0.256 C 
ATOM     17  O   UNL     1      -1.452  -2.009  25.095  0.00  0.00    -0.272 OA
ATOM     18  N   UNL     1      -1.841  -0.640  25.228  0.00  0.00    -0.271 N 
ATOM     26  C   UNL     1      -1.662   0.163  25.165  0.00  0.00    +0.124 C 
ATOM     27  C   UNL     1      -2.105   0.841  25.318  0.00  0.00    +0.116 C 
ENDROOT
BRANCH   5   2
ATOM      1  F   UNL     1      -0.479   4.879  24.749  0.00  0.00    -0.164 F 
ATOM      2  C   UNL     1      -1.014   4.278  24.936  0.00  0.00    +0.435 C 
ATOM      3  F   UNL     1      -1.314   4.308  24.167  0.00  0.00    -0.164 F 
ATOM      4  F   UNL     1      -0.714   4.249  25.703  0.00  0.00    -0.164 F 
ENDBRANCH   5   2
BRANCH  18  19
ATOM     19  C   UNL     1      -2.587  -0.878  25.487  0.00  0.00    +0.120 C 
BRANCH  19  20
ATOM     20  C   UNL     1      -3.132  -1.185  24.949  0.00  0.00    -0.002 A 
ATOM     21  C   UNL     1      -3.200  -2.002  24.854  0.00  0.00    -0.003 A 
ATOM     22  C   UNL     1      -3.744  -2.311  24.316  0.00  0.00    -0.000 A 
ATOM     23  C   UNL     1      -4.220  -1.802  23.873  0.00  0.00    -0.000 A 
ATOM     24  C   UNL     1      -4.152  -0.985  23.969  0.00  0.00    -0.000 A 
ATOM     25  C   UNL     1      -3.607  -0.678  24.507  0.00  0.00    -0.003 A 
ENDBRANCH  19  20
ENDBRANCH  18  19
TORSDOF 3
ENDMDL
MODEL 3
REMARK VINA RESULT:     -12.6      1.670      2.376
REMARK  Name = 
REMARK  3 active torsions:
REMARK  status: ('A' for Active; 'I' for Inactive)
REMARK    1  A    between atoms: C_2  and  C_5
REMARK    2  A    between atoms: N_18  and  C_19
REMARK    3  A    between atoms: C_19  and  C_20
REMARK                            x       y       z     vdW  Elec       q    Type
REMARK                         _______ _______ _______ _____ _____    ______ ____
ROOT
ATOM      5  C   UNL     1      -3.489  -1.674  24.710  0.00  0.00    +0.157 A 
ATOM      6  N   UNL     1      -2.910  -1.115  24.893  0.00  0.00    -0.210 NA
ATOM      7  C   UNL     1      -3.012  -0.326  24.669  0.00  0.00    +0.220 A 
ATOM      8  N   UNL     1      -3.692  -0.098  24.263  0.00  0.00    -0.212 NA
ATOM      9  C   UNL     1      -4.271  -0.657  24.080  0.00  0.00    +0.103 A 
ATOM     10  C   UNL     1      -4.169  -1.444  24.304  0.00  0.00    +0.044 A 
ATOM     11  N   UNL     1      -2.433   0.232  24.852  0.00  0.00    -0.274 N 
ATOM     12  C   UNL     1      -1.727   0.086  25.253  0.00  0.00    +0.125 C 
ATOM     13  C   UNL     1      -1.316   0.798  25.315  0.00  0.00    +0.155 C 
ATOM     14  O   UNL     1      -0.589   0.990  25.654  0.00  0.00    -0.343 OA
ATOM     15  C   UNL     1      -0.314   1.766  25.631  0.00  0.00    +0.227 C 
ATOM     16  C   UNL     1      -0.766   2.353  25.267  0.00  0.00    +0.256 C 
ATOM     17  O   UNL     1      -0.490   3.131  25.244  0.00  0.00    -0.272 OA
ATOM     18  N   UNL     1      -1.493   2.163  24.927  0.00  0.00    -0.271 N 
ATOM     26  C   UNL     1      -1.768   1.385  24.951  0.00  0.00    +0.124 C 
ATOM     27  C   UNL     1      -2.458   1.035  24.665  0.00  0.00    +0.116 C 
ENDROOT
BRANCH   5   2
ATOM      1  F   UNL     1      -3.284  -3.249  25.158  0.00  0.00    -0.164 F 
ATOM      2  C   UNL     1      -3.387  -2.460  24.934  0.00  0.00    +0.435 C 
ATOM      3  F   UNL     1      -3.727  -2.297  25.667  0.00  0.00    -0.164 F 
ATOM      4  F   UNL     1      -3.046  -2.625  24.201  0.00  0.00    -0.164 F 
ENDBRANCH   5   2
BRANCH  18  19
ATOM     19  C   UNL     1      -1.945   2.750  24.564  0.00  0.00    +0.120 C 
BRANCH  19  20
ATOM     20  C   UNL     1      -2.470   3.203  25.011  0.00  0.00    -0.002 A 
ATOM     21  C   UNL     1      -3.274   3.200  24.830  0.00  0.00    -0.003 A 
ATOM     22  C   UNL     1      -3.800   3.652  25.277  0.00  0.00    -0.000 A 
ATOM     23  C   UNL     1      -3.520   4.107  25.906  0.00  0.00    -0.000 A 
ATOM     24  C   UNL     1      -2.715   4.109  26.088  0.00  0.00    -0.000 A 
ATOM     25  C   UNL     1      -2.191   3.657  25.640  0.00  0.00    -0.003 A 
ENDBRANCH  19  20
ENDBRANCH  18  19
TORSDOF 3
ENDMDL
MODEL 4
REMARK VINA RESULT:     -12.5      1.264      2.127
REMARK  Name = 
REMARK  3 active torsions:
REMARK  status: ('A' for Active; 'I' for Inactive)
REMARK    1  A    between atoms: C_2  and  C_5
REMARK    2  A    between atoms: N_18  and  C_19
REMARK    3  A    between atoms: C_19  and  C_20
REMARK                            x       y       z     vdW  Elec       q    Type
REMARK                         _______ _______ _______ _____ _____    ______ ____
ROOT
ATOM      5  C   UNL     1      -3.055  -2.032  24.441  0.00  0.00    +0.157 A 
ATOM      6  N   UNL     1      -2.798  -1.254  24.540  0.00  0.00    -0.210 NA
ATOM      7  C   UNL     1      -3.296  -0.626  24.343  0.00  0.00    +0.220 A 
ATOM      8  N   UNL     1      -4.051  -0.776  24.046  0.00  0.00    -0.212 NA
ATOM      9  C   UNL     1      -4.308  -1.554  23.946  0.00  0.00    +0.103 A 
ATOM     10  C   UNL     1      -3.810  -2.181  24.144  0.00  0.00    +0.044 A 
ATOM     11  N   UNL     1      -3.039   0.152  24.442  0.00  0.00    -0.274 N 
ATOM     12  C   UNL     1      -2.302   0.385  24.732  0.00  0.00    +0.125 C 
ATOM     13  C   UNL     1      -2.281   1.209  24.738  0.00  0.00    +0.155 C 
ATOM     14  O   UNL     1      -1.697   1.746  24.967  0.00  0.00    -0.343 OA
ATOM     15  C   UNL     1      -1.835   2.556  24.910  0.00  0.00    +0.227 C 
ATOM     16  C   UNL     1      -2.558   2.832  24.625  0.00  0.00    +0.256 C 
ATOM     17  O   UNL     1      -2.697   3.644  24.568  0.00  0.00    -0.272 OA
ATOM     18  N   UNL     1      -3.143   2.297  24.396  0.00  0.00    -0.271 N 
ATOM     26  C   UNL     1      -3.004   1.485  24.452  0.00  0.00    +0.124 C 
ATOM     27  C   UNL     1      -3.472   0.832  24.270  0.00  0.00    +0.116 C 
ENDROOT
BRANCH   5   2
ATOM      1  F   UNL     1      -2.059  -3.287  24.836  0.00  0.00    -0.164 F 
ATOM      2  C   UNL     1      -2.558  -2.659  24.638  0.00  0.00    +0.435 C 
ATOM      3  F   UNL     1      -2.141  -2.550  23.935  0.00  0.00    -0.164 F 
ATOM      4  F   UNL     1      -2.974  -2.768  25.341  0.00  0.00    -0.164 F 
ENDBRANCH   5   2
BRANCH  18  19
ATOM     19  C   UNL     1      -3.866   2.573  24.110  0.00  0.00    +0.120 C 
BRANCH  19  20
ATOM     20  C   UNL     1      -4.473   2.759  24.637  0.00  0.00    -0.002 A 
ATOM     21  C   UNL     1      -5.153   2.292  24.664  0.00  0.00    -0.003 A 
ATOM     22  C   UNL     1      -5.760   2.477  25.190  0.00  0.00    -0.000 A 
ATOM     23  C   UNL     1      -5.688   3.130  25.690  0.00  0.00    -0.000 A 
ATOM     24  C   UNL     1      -5.009   3.597  25.663  0.00  0.00    -0.000 A 
ATOM     25  C   UNL     1      -4.401   3.411  25.136  0.00  0.00    -0.003 A 
ENDBRANCH  19  20
ENDBRANCH  18  19
TORSDOF 3
ENDMDL
MODEL 5
REMARK VINA RESULT:     -12.2      2.895      4.722
REMARK  Name = 
REMARK  3 active torsions:
REMARK  status: ('A' for Active; 'I' for Inactive)
REMARK    1  A    between atoms: C_2  and  C_5
REMARK    2  A    between atoms: N_18  and  C_19
REMARK    3  A    between atoms: C_19  and  C_20
REMARK                            x       y       z     vdW  Elec       q    Type
REMARK                         _______ _______ _______ _____ _____    ______ ____
ROOT
ATOM      5  C   UNL     1      -1.323   4.210  24.913  0.00  0.00    +0.157 A 
ATOM      6  N   UNL     1      -2.025   3.778  24.930  0.00  0.00    -0.210 NA
ATOM      7  C   UNL     1      -2.033   2.991  24.681  0.00  0.00    +0.220 A 
ATOM      8  N   UNL     1      -1.337   2.637  24.416  0.00  0.00    -0.212 NA
ATOM      9  C   UNL     1      -0.634   3.069  24.398  0.00  0.00    +0.103 A 
ATOM     10  C   UNL     1      -0.627   3.854  24.647  0.00  0.00    +0.044 A 
ATOM     11  N   UNL     1      -2.735   2.559  24.699  0.00  0.00    -0.274 N 
ATOM     12  C   UNL     1      -3.470   2.839  24.949  0.00  0.00    +0.125 C 
ATOM     13  C   UNL     1      -4.015   2.225  24.874  0.00  0.00    +0.155 C 
ATOM     14  O   UNL     1      -4.823   2.179  25.037  0.00  0.00    -0.343 OA
ATOM     15  C   UNL     1      -5.233   1.477  24.904  0.00  0.00    +0.227 C 
ATOM     16  C   UNL     1      -4.835   0.818  24.607  0.00  0.00    +0.256 C 
ATOM     17  O   UNL     1      -5.245   0.114  24.473  0.00  0.00    -0.272 OA
ATOM     18  N   UNL     1      -4.028   0.862  24.443  0.00  0.00    -0.271 N 
ATOM     26  C   UNL     1      -3.618   1.566  24.577  0.00  0.00    +0.124 C 
ATOM     27  C   UNL     1      -2.827   1.772  24.468  0.00  0.00    +0.116 C 
ENDROOT
BRANCH   5   2
ATOM      1  F   UNL     1      -1.309   5.783  25.411  0.00  0.00    -0.164 F 
ATOM      2  C   UNL     1      -1.316   4.996  25.162  0.00  0.00    +0.435 C 
ATOM      3  F   UNL     1      -0.949   5.216  24.457  0.00  0.00    -0.164 F 
ATOM      4  F   UNL     1      -1.683   4.776  25.867  0.00  0.00    -0.164 F 
ENDBRANCH   5   2
BRANCH  18  19
ATOM     19  C   UNL     1      -3.630   0.203  24.146  0.00  0.00    +0.120 C 
BRANCH  19  20
ATOM     20  C   UNL     1      -3.515  -0.460  24.624  0.00  0.00    -0.002 A 
ATOM     21  C   UNL     1      -3.864  -1.179  24.422  0.00  0.00    -0.003 A 
ATOM     22  C   UNL     1      -3.749  -1.842  24.900  0.00  0.00    -0.000 A 
ATOM     23  C   UNL     1      -3.285  -1.785  25.581  0.00  0.00    -0.000 A 
ATOM     24  C   UNL     1      -2.936  -1.065  25.782  0.00  0.00    -0.000 A 
ATOM     25  C   UNL     1      -3.051  -0.402  25.304  0.00  0.00    -0.003 A 
ENDBRANCH  19  20
ENDBRANCH  18  19
TORSDOF 3
ENDMDL
