MODEL 1
REMARK VINA RESULT:     -11.2      0.000      0.000
REMARK  Name = 
REMARK  4 active torsions:
REMARK  status: ('A' for Active; 'I' for Inactive)
REMARK    1  A    between atoms: C_3  and  C_12
REMARK    2  A    between atoms: N_4  and  C_6
REMARK    3  A    between atoms: C_14  and  C_17
REMARK    4  A    between atoms: C_20  and  N_23
REMARK                            x       y       z     vdW  Elec       q    Type
REMARK                         _______ _______ _______ _____ _____    ______ ____
ROOT
ATOM     12  C   UNL     1      -3.241   2.765  24.917  0.00  0.00    +0.251 A 
ATOM     13  N   UNL     1      -3.328   1.978  25.149  0.00  0.00    -0.190 NA
ATOM     14  C   UNL     1      -3.347   1.512  24.469  0.00  0.00    +0.205 A 
ATOM     15  N   UNL     1      -3.271   2.010  23.817  0.00  0.00    -0.056 NA
ATOM     16  O   UNL     1      -3.206   2.784  24.093  0.00  0.00    -0.336 OA
ENDROOT
BRANCH  14  17
ATOM     17  C   UNL     1      -3.428   0.691  24.446  0.00  0.00    +0.058 A 
ATOM     18  C   UNL     1      -4.155   0.343  24.620  0.00  0.00    +0.008 A 
ATOM     19  C   UNL     1      -4.235  -0.478  24.596  0.00  0.00    +0.038 A 
ATOM     20  C   UNL     1      -3.589  -0.950  24.399  0.00  0.00    +0.149 A 
ATOM     21  N   UNL     1      -2.861  -0.603  24.225  0.00  0.00    -0.226 NA
ATOM     22  C   UNL     1      -2.781   0.219  24.248  0.00  0.00    +0.104 A 
BRANCH  20  23
ATOM     23  N   UNL     1      -3.669  -1.771  24.375  0.00  0.00    -0.271 N 
ATOM     24  C   UNL     1      -3.306  -2.309  24.886  0.00  0.00    +0.104 A 
ATOM     25  C   UNL     1      -3.539  -3.069  24.664  0.00  0.00    +0.120 A 
ATOM     26  N   UNL     1      -4.046  -3.001  24.016  0.00  0.00    -0.222 NA
ATOM     27  C   UNL     1      -4.126  -2.198  23.838  0.00  0.00    +0.184 A 
ENDBRANCH  20  23
ENDBRANCH  14  17
BRANCH  12   3
ATOM      1  C   UNL     1      -3.540   4.438  26.208  0.00  0.00    +0.019 C 
ATOM      2  C   UNL     1      -3.837   3.829  25.738  0.00  0.00    +0.027 C 
ATOM      3  C   UNL     1      -3.197   3.417  25.420  0.00  0.00    +0.138 C 
ATOM      4  N   UNL     1      -2.505   3.771  25.694  0.00  0.00    -0.268 NA
ATOM      5  C   UNL     1      -2.716   4.403  26.181  0.00  0.00    +0.072 C 
BRANCH   4   6
ATOM      6  C   UNL     1      -1.735   3.536  25.513  0.00  0.00    +0.058 C 
ATOM      7  C   UNL     1      -1.363   3.828  24.837  0.00  0.00    +0.016 C 
ATOM      8  C   UNL     1      -0.593   3.593  24.656  0.00  0.00    +0.001 C 
ATOM      9  C   UNL     1      -0.196   3.066  25.151  0.00  0.00    +0.000 C 
ATOM     10  C   UNL     1      -0.568   2.773  25.827  0.00  0.00    +0.001 C 
ATOM     11  C   UNL     1      -1.338   3.008  26.008  0.00  0.00    +0.016 C 
ENDBRANCH   4   6
ENDBRANCH  12   3
TORSDOF 4
ENDMDL
MODEL 2
REMARK VINA RESULT:     -11.0      0.841      1.910
REMARK  Name = 
REMARK  4 active torsions:
REMARK  status: ('A' for Active; 'I' for Inactive)
REMARK    1  A    between atoms: C_3  and  C_12
REMARK    2  A    between atoms: N_4  and  C_6
REMARK    3  A    between atoms: C_14  and  C_17
REMARK    4  A    between atoms: C_20  and  N_23
REMARK                            x       y       z     vdW  Elec       q    Type
REMARK                         _______ _______ _______ _____ _____    ______ ____
ROOT
ATOM     12  C   UNL     1      -2.136   2.627  24.313  0.00  0.00    +0.251 A 
ATOM     13  N   UNL     1      -2.281   1.898  24.673  0.00  0.00    -0.190 NA
ATOM     14  C   UNL     1      -2.535   1.372  24.090  0.00  0.00    +0.205 A 
ATOM     15  N   UNL     1      -2.547   1.775  23.371  0.00  0.00    -0.056 NA
ATOM     16  O   UNL     1      -2.301   2.549  23.509  0.00  0.00    -0.336 OA
ENDROOT
BRANCH  14  17
ATOM     17  C   UNL     1      -2.741   0.582  24.207  0.00  0.00    +0.058 A 
ATOM     18  C   UNL     1      -3.516   0.333  24.071  0.00  0.00    +0.008 A 
ATOM     19  C   UNL     1      -3.722  -0.457  24.188  0.00  0.00    +0.038 A 
ATOM     20  C   UNL     1      -3.153  -0.999  24.441  0.00  0.00    +0.149 A 
ATOM     21  N   UNL     1      -2.378  -0.750  24.577  0.00  0.00    -0.226 NA
ATOM     22  C   UNL     1      -2.172   0.040  24.460  0.00  0.00    +0.104 A 
BRANCH  20  23
ATOM     23  N   UNL     1      -3.359  -1.789  24.558  0.00  0.00    -0.271 N 
ATOM     24  C   UNL     1      -3.734  -2.279  24.009  0.00  0.00    +0.104 A 
ATOM     25  C   UNL     1      -3.833  -3.021  24.356  0.00  0.00    +0.120 A 
ATOM     26  N   UNL     1      -3.519  -2.990  25.119  0.00  0.00    -0.222 NA
ATOM     27  C   UNL     1      -3.226  -2.228  25.243  0.00  0.00    +0.184 A 
ENDBRANCH  20  23
ENDBRANCH  14  17
BRANCH  12   3
ATOM      1  C   UNL     1      -1.079   4.267  25.177  0.00  0.00    +0.019 C 
ATOM      2  C   UNL     1      -1.088   3.557  24.757  0.00  0.00    +0.027 C 
ATOM      3  C   UNL     1      -1.873   3.310  24.691  0.00  0.00    +0.138 C 
ATOM      4  N   UNL     1      -2.348   3.867  25.070  0.00  0.00    -0.268 NA
ATOM      5  C   UNL     1      -1.858   4.459  25.371  0.00  0.00    +0.072 C 
BRANCH   4   6
ATOM      6  C   UNL     1      -3.169   3.839  25.138  0.00  0.00    +0.058 C 
ATOM      7  C   UNL     1      -3.644   4.095  24.514  0.00  0.00    +0.016 C 
ATOM      8  C   UNL     1      -4.466   4.066  24.581  0.00  0.00    +0.001 C 
ATOM      9  C   UNL     1      -4.813   3.781  25.272  0.00  0.00    +0.000 C 
ATOM     10  C   UNL     1      -4.339   3.525  25.897  0.00  0.00    +0.001 C 
ATOM     11  C   UNL     1      -3.517   3.553  25.830  0.00  0.00    +0.016 C 
ENDBRANCH   4   6
ENDBRANCH  12   3
TORSDOF 4
ENDMDL
MODEL 3
REMARK VINA RESULT:     -10.7      2.746      4.845
REMARK  Name = 
REMARK  4 active torsions:
REMARK  status: ('A' for Active; 'I' for Inactive)
REMARK    1  A    between atoms: C_3  and  C_12
REMARK    2  A    between atoms: N_4  and  C_6
REMARK    3  A    between atoms: C_14  and  C_17
REMARK    4  A    between atoms: C_20  and  N_23
REMARK                            x       y       z     vdW  Elec       q    Type
REMARK                         _______ _______ _______ _____ _____    ______ ____
ROOT
ATOM     12  C   UNL     1      -2.547   0.333  24.940  0.00  0.00    +0.251 A 
ATOM     13  N   UNL     1      -2.018   0.359  24.307  0.00  0.00    -0.190 NA
ATOM     14  C   UNL     1      -1.263   0.200  24.598  0.00  0.00    +0.205 A 
ATOM     15  N   UNL     1      -1.325   0.077  25.411  0.00  0.00    -0.056 NA
ATOM     16  O   UNL     1      -2.117   0.159  25.622  0.00  0.00    -0.336 OA
ENDROOT
BRANCH  14  17
ATOM     17  C   UNL     1      -0.568   0.170  24.154  0.00  0.00    +0.058 A 
ATOM     18  C   UNL     1      -0.219  -0.557  23.985  0.00  0.00    +0.008 A 
ATOM     19  C   UNL     1       0.476  -0.587  23.540  0.00  0.00    +0.038 A 
ATOM     20  C   UNL     1       0.821   0.110  23.266  0.00  0.00    +0.149 A 
ATOM     21  N   UNL     1       0.471   0.838  23.436  0.00  0.00    -0.226 NA
ATOM     22  C   UNL     1      -0.224   0.868  23.880  0.00  0.00    +0.104 A 
BRANCH  20  23
ATOM     23  N   UNL     1       1.516   0.081  22.822  0.00  0.00    -0.271 N 
ATOM     24  C   UNL     1       2.259   0.343  23.066  0.00  0.00    +0.104 A 
ATOM     25  C   UNL     1       2.792   0.208  22.451  0.00  0.00    +0.120 A 
ATOM     26  N   UNL     1       2.378  -0.138  21.826  0.00  0.00    -0.222 NA
ATOM     27  C   UNL     1       1.589  -0.217  22.056  0.00  0.00    +0.184 A 
ENDBRANCH  20  23
ENDBRANCH  14  17
BRANCH  12   3
ATOM      1  C   UNL     1      -4.551   1.062  24.858  0.00  0.00    +0.019 C 
ATOM      2  C   UNL     1      -3.739   1.193  24.914  0.00  0.00    +0.027 C 
ATOM      3  C   UNL     1      -3.360   0.460  24.898  0.00  0.00    +0.138 C 
ATOM      4  N   UNL     1      -3.939  -0.123  24.833  0.00  0.00    -0.268 NA
ATOM      5  C   UNL     1      -4.675   0.248  24.808  0.00  0.00    +0.072 C 
BRANCH   4   6
ATOM      6  C   UNL     1      -3.805  -0.937  24.798  0.00  0.00    +0.058 C 
ATOM      7  C   UNL     1      -3.662  -1.361  25.491  0.00  0.00    +0.016 C 
ATOM      8  C   UNL     1      -3.528  -2.175  25.456  0.00  0.00    +0.001 C 
ATOM      9  C   UNL     1      -3.537  -2.563  24.729  0.00  0.00    +0.000 C 
ATOM     10  C   UNL     1      -3.680  -2.140  24.036  0.00  0.00    +0.001 C 
ATOM     11  C   UNL     1      -3.814  -1.326  24.070  0.00  0.00    +0.016 C 
ENDBRANCH   4   6
ENDBRANCH  12   3
TORSDOF 4
ENDMDL
MODEL 4
REMARK VINA RESULT:     -10.3      2.076      4.883
REMARK  Name = 
REMARK  4 active torsions:
REMARK  status: ('A' for Active; 'I' for Inactive)
REMARK    1  A    between atoms: C_3  and  C_12
REMARK    2  A    between atoms: N_4  and  C_6
REMARK    3  A    between atoms: C_14  and  C_17
REMARK    4  A    between atoms: C_20  and  N_23
REMARK                            x       y       z     vdW  Elec       q    Type
REMARK                         _______ _______ _______ _____ _____    ______ ____
ROOT
ATOM     12  C   UNL     1      -3.558  -1.031  24.156  0.00  0.00    +0.251 A 
ATOM     13  N   UNL     1      -3.879  -0.448  24.645  0.00  0.00    -0.190 NA
ATOM     14  C   UNL     1      -3.924   0.252  24.212  0.00  0.00    +0.205 A 
ATOM     15  N   UNL     1      -3.632   0.103  23.455  0.00  0.00    -0.056 NA
ATOM     16  O   UNL     1      -3.406  -0.689  23.421  0.00  0.00    -0.336 OA
ENDROOT
BRANCH  14  17
ATOM     17  C   UNL     1      -4.212   0.975  24.487  0.00  0.00    +0.058 A 
ATOM     18  C   UNL     1      -4.851   0.992  25.009  0.00  0.00    +0.008 A 
ATOM     19  C   UNL     1      -5.138   1.715  25.284  0.00  0.00    +0.038 A 
ATOM     20  C   UNL     1      -4.787   2.420  25.038  0.00  0.00    +0.149 A 
ATOM     21  N   UNL     1      -4.148   2.402  24.517  0.00  0.00    -0.226 NA
ATOM     22  C   UNL     1      -3.860   1.679  24.241  0.00  0.00    +0.104 A 
BRANCH  20  23
ATOM     23  N   UNL     1      -5.074   3.143  25.314  0.00  0.00    -0.271 N 
ATOM     24  C   UNL     1      -4.646   3.846  25.370  0.00  0.00    +0.104 A 
ATOM     25  C   UNL     1      -5.147   4.427  25.672  0.00  0.00    +0.120 A 
ATOM     26  N   UNL     1      -5.886   4.083  25.803  0.00  0.00    -0.222 NA
ATOM     27  C   UNL     1      -5.840   3.289  25.582  0.00  0.00    +0.184 A 
ENDBRANCH  20  23
ENDBRANCH  14  17
BRANCH  12   3
ATOM      1  C   UNL     1      -3.575  -3.126  24.562  0.00  0.00    +0.019 C 
ATOM      2  C   UNL     1      -3.945  -2.443  24.285  0.00  0.00    +0.027 C 
ATOM      3  C   UNL     1      -3.415  -1.815  24.365  0.00  0.00    +0.138 C 
ATOM      4  N   UNL     1      -2.718  -2.111  24.691  0.00  0.00    -0.268 NA
ATOM      5  C   UNL     1      -2.816  -2.921  24.814  0.00  0.00    +0.072 C 
BRANCH   4   6
ATOM      6  C   UNL     1      -2.041  -1.673  24.865  0.00  0.00    +0.058 C 
ATOM      7  C   UNL     1      -1.444  -1.594  24.302  0.00  0.00    +0.016 C 
ATOM      8  C   UNL     1      -0.767  -1.156  24.476  0.00  0.00    +0.001 C 
ATOM      9  C   UNL     1      -0.687  -0.797  25.213  0.00  0.00    +0.000 C 
ATOM     10  C   UNL     1      -1.283  -0.875  25.778  0.00  0.00    +0.001 C 
ATOM     11  C   UNL     1      -1.960  -1.313  25.604  0.00  0.00    +0.016 C 
ENDBRANCH   4   6
ENDBRANCH  12   3
TORSDOF 4
ENDMDL
MODEL 5
REMARK VINA RESULT:      -9.9      1.812      5.549
REMARK  Name = 
REMARK  4 active torsions:
REMARK  status: ('A' for Active; 'I' for Inactive)
REMARK    1  A    between atoms: C_3  and  C_12
REMARK    2  A    between atoms: N_4  and  C_6
REMARK    3  A    between atoms: C_14  and  C_17
REMARK    4  A    between atoms: C_20  and  N_23
REMARK                            x       y       z     vdW  Elec       q    Type
REMARK                         _______ _______ _______ _____ _____    ______ ____
ROOT
ATOM     12  C   UNL     1      -1.289  -0.543  25.263  0.00  0.00    +0.251 A 
ATOM     13  N   UNL     1      -1.251   0.202  24.909  0.00  0.00    -0.190 NA
ATOM     14  C   UNL     1      -1.240   0.768  25.509  0.00  0.00    +0.205 A 
ATOM     15  N   UNL     1      -1.272   0.374  26.232  0.00  0.00    -0.056 NA
ATOM     16  O   UNL     1      -1.302  -0.435  26.080  0.00  0.00    -0.336 OA
ENDROOT
BRANCH  14  17
ATOM     17  C   UNL     1      -1.204   1.586  25.403  0.00  0.00    +0.058 A 
ATOM     18  C   UNL     1      -1.891   2.009  25.228  0.00  0.00    +0.008 A 
ATOM     19  C   UNL     1      -1.855   2.827  25.122  0.00  0.00    +0.038 A 
ATOM     20  C   UNL     1      -1.133   3.221  25.191  0.00  0.00    +0.149 A 
ATOM     21  N   UNL     1      -0.447   2.798  25.366  0.00  0.00    -0.226 NA
ATOM     22  C   UNL     1      -0.483   1.980  25.471  0.00  0.00    +0.104 A 
BRANCH  20  23
ATOM     23  N   UNL     1      -1.097   4.039  25.085  0.00  0.00    -0.271 N 
ATOM     24  C   UNL     1      -1.672   4.583  25.316  0.00  0.00    +0.104 A 
ATOM     25  C   UNL     1      -1.411   5.336  25.104  0.00  0.00    +0.120 A 
ATOM     26  N   UNL     1      -0.674   5.257  24.740  0.00  0.00    -0.222 NA
ATOM     27  C   UNL     1      -0.480   4.454  24.729  0.00  0.00    +0.184 A 
ENDBRANCH  20  23
ENDBRANCH  14  17
BRANCH  12   3
ATOM      1  C   UNL     1      -0.931  -2.397  24.268  0.00  0.00    +0.019 C 
ATOM      2  C   UNL     1      -0.656  -1.720  24.650  0.00  0.00    +0.027 C 
ATOM      3  C   UNL     1      -1.310  -1.266  24.868  0.00  0.00    +0.138 C 
ATOM      4  N   UNL     1      -1.989  -1.663  24.620  0.00  0.00    -0.268 NA
ATOM      5  C   UNL     1      -1.756  -2.363  24.250  0.00  0.00    +0.072 C 
BRANCH   4   6
ATOM      6  C   UNL     1      -2.766  -1.407  24.725  0.00  0.00    +0.058 C 
ATOM      7  C   UNL     1      -3.151  -1.538  25.442  0.00  0.00    +0.016 C 
ATOM      8  C   UNL     1      -3.928  -1.281  25.547  0.00  0.00    +0.001 C 
ATOM      9  C   UNL     1      -4.320  -0.893  24.934  0.00  0.00    +0.000 C 
ATOM     10  C   UNL     1      -3.936  -0.762  24.216  0.00  0.00    +0.001 C 
ATOM     11  C   UNL     1      -3.158  -1.018  24.111  0.00  0.00    +0.016 C 
ENDBRANCH   4   6
ENDBRANCH  12   3
TORSDOF 4
ENDMDL
MODEL 6
REMARK VINA RESULT:      -9.6      2.708      4.324
REMARK  Name = 
REMARK  4 active torsions:
REMARK  status: ('A' for Active; 'I' for Inactive)
REMARK    1  A    between atoms: C_3  and  C_12
REMARK    2  A    between atoms: N_4  and  C_6
REMARK    3  A    between atoms: C_14  and  C_17
REMARK    4  A    between atoms: C_20  and  N_23
REMARK                            x       y       z     vdW  Elec       q    Type
REMARK                         _______ _______ _______ _____ _____    ______ ____
ROOT
ATOM     12  C   UNL     1      -2.485   0.423  24.926  0.00  0.00    +0.251 A 
ATOM     13  N   UNL     1      -1.952   0.255  24.319  0.00  0.00    -0.190 NA
ATOM     14  C   UNL     1      -1.197   0.462  24.578  0.00  0.00    +0.205 A 
ATOM     15  N   UNL     1      -1.263   0.758  25.345  0.00  0.00    -0.056 NA
ATOM     16  O   UNL     1      -2.058   0.733  25.560  0.00  0.00    -0.336 OA
ENDROOT
BRANCH  14  17
ATOM     17  C   UNL     1      -0.498   0.387  24.146  0.00  0.00    +0.058 A 
ATOM     18  C   UNL     1      -0.085   1.061  23.910  0.00  0.00    +0.008 A 
ATOM     19  C   UNL     1       0.614   0.986  23.478  0.00  0.00    +0.038 A 
ATOM     20  C   UNL     1       0.899   0.237  23.281  0.00  0.00    +0.149 A 
ATOM     21  N   UNL     1       0.486  -0.437  23.517  0.00  0.00    -0.226 NA
ATOM     22  C   UNL     1      -0.213  -0.362  23.950  0.00  0.00    +0.104 A 
BRANCH  20  23
ATOM     23  N   UNL     1       1.598   0.162  22.849  0.00  0.00    -0.271 N 
ATOM     24  C   UNL     1       2.348   0.408  23.091  0.00  0.00    +0.104 A 
ATOM     25  C   UNL     1       2.883   0.226  22.491  0.00  0.00    +0.120 A 
ATOM     26  N   UNL     1       2.464  -0.134  21.877  0.00  0.00    -0.222 NA
ATOM     27  C   UNL     1       1.670  -0.173  22.099  0.00  0.00    +0.184 A 
ENDBRANCH  20  23
ENDBRANCH  14  17
BRANCH  12   3
ATOM      1  C   UNL     1      -4.500  -0.280  24.979  0.00  0.00    +0.019 C 
ATOM      2  C   UNL     1      -3.690  -0.407  25.070  0.00  0.00    +0.027 C 
ATOM      3  C   UNL     1      -3.300   0.301  24.903  0.00  0.00    +0.138 C 
ATOM      4  N   UNL     1      -3.869   0.864  24.708  0.00  0.00    -0.268 NA
ATOM      5  C   UNL     1      -4.611   0.507  24.755  0.00  0.00    +0.072 C 
BRANCH   4   6
ATOM      6  C   UNL     1      -3.722   1.650  24.503  0.00  0.00    +0.058 C 
ATOM      7  C   UNL     1      -3.682   2.229  25.088  0.00  0.00    +0.016 C 
ATOM      8  C   UNL     1      -3.535   3.015  24.883  0.00  0.00    +0.001 C 
ATOM      9  C   UNL     1      -3.429   3.221  24.091  0.00  0.00    +0.000 C 
ATOM     10  C   UNL     1      -3.470   2.642  23.505  0.00  0.00    +0.001 C 
ATOM     11  C   UNL     1      -3.617   1.856  23.710  0.00  0.00    +0.016 C 
ENDBRANCH   4   6
ENDBRANCH  12   3
TORSDOF 4
ENDMDL
MODEL 7
REMARK VINA RESULT:      -8.6     16.761     19.147
REMARK  Name = 
REMARK  4 active torsions:
REMARK  status: ('A' for Active; 'I' for Inactive)
REMARK    1  A    between atoms: C_3  and  C_12
REMARK    2  A    between atoms: N_4  and  C_6
REMARK    3  A    between atoms: C_14  and  C_17
REMARK    4  A    between atoms: C_20  and  N_23
REMARK                            x       y       z     vdW  Elec       q    Type
REMARK                         _______ _______ _______ _____ _____    ______ ____
ROOT
ATOM     12  C   UNL     1      15.477   6.892  19.305  0.00  0.00    +0.251 A 
ATOM     13  N   UNL     1      14.838   6.607  19.743  0.00  0.00    -0.190 NA
ATOM     14  C   UNL     1      14.277   7.210  19.797  0.00  0.00    +0.205 A 
ATOM     15  N   UNL     1      14.569   7.866  19.393  0.00  0.00    -0.056 NA
ATOM     16  O   UNL     1      15.309   7.671  19.089  0.00  0.00    -0.336 OA
ENDROOT
BRANCH  14  17
ATOM     17  C   UNL     1      13.551   7.163  20.187  0.00  0.00    +0.058 A 
ATOM     18  C   UNL     1      13.520   7.233  21.008  0.00  0.00    +0.008 A 
ATOM     19  C   UNL     1      12.794   7.186  21.398  0.00  0.00    +0.038 A 
ATOM     20  C   UNL     1      12.100   7.069  20.967  0.00  0.00    +0.149 A 
ATOM     21  N   UNL     1      12.132   6.999  20.145  0.00  0.00    -0.226 NA
ATOM     22  C   UNL     1      12.858   7.046  19.755  0.00  0.00    +0.104 A 
BRANCH  20  23
ATOM     23  N   UNL     1      11.374   7.022  21.357  0.00  0.00    -0.271 N 
ATOM     24  C   UNL     1      10.896   7.660  21.569  0.00  0.00    +0.104 A 
ATOM     25  C   UNL     1      10.226   7.362  21.947  0.00  0.00    +0.120 A 
ATOM     26  N   UNL     1      10.290   6.539  21.967  0.00  0.00    -0.222 NA
ATOM     27  C   UNL     1      11.000   6.330  21.602  0.00  0.00    +0.184 A 
ENDBRANCH  20  23
ENDBRANCH  14  17
BRANCH  12   3
ATOM      1  C   UNL     1      17.026   5.666  18.498  0.00  0.00    +0.019 C 
ATOM      2  C   UNL     1      16.258   5.966  18.473  0.00  0.00    +0.027 C 
ATOM      3  C   UNL     1      16.161   6.473  19.117  0.00  0.00    +0.138 C 
ATOM      4  N   UNL     1      16.869   6.486  19.539  0.00  0.00    -0.268 NA
ATOM      5  C   UNL     1      17.404   5.988  19.157  0.00  0.00    +0.072 C 
BRANCH   4   6
ATOM      6  C   UNL     1      17.017   6.921  20.224  0.00  0.00    +0.058 C 
ATOM      7  C   UNL     1      17.219   7.719  20.170  0.00  0.00    +0.016 C 
ATOM      8  C   UNL     1      17.367   8.155  20.855  0.00  0.00    +0.001 C 
ATOM      9  C   UNL     1      17.312   7.792  21.594  0.00  0.00    +0.000 C 
ATOM     10  C   UNL     1      17.110   6.994  21.649  0.00  0.00    +0.001 C 
ATOM     11  C   UNL     1      16.962   6.559  20.964  0.00  0.00    +0.016 C 
ENDBRANCH   4   6
ENDBRANCH  12   3
TORSDOF 4
ENDMDL
MODEL 8
REMARK VINA RESULT:      -8.4     17.528     18.745
REMARK  Name = 
REMARK  4 active torsions:
REMARK  status: ('A' for Active; 'I' for Inactive)
REMARK    1  A    between atoms: C_3  and  C_12
REMARK    2  A    between atoms: N_4  and  C_6
REMARK    3  A    between atoms: C_14  and  C_17
REMARK    4  A    between atoms: C_20  and  N_23
REMARK                            x       y       z     vdW  Elec       q    Type
REMARK                         _______ _______ _______ _____ _____    ______ ____
ROOT
ATOM     12  C   UNL     1      13.708   7.703  20.707  0.00  0.00    +0.251 A 
ATOM     13  N   UNL     1      13.455   8.139  20.053  0.00  0.00    -0.190 NA
ATOM     14  C   UNL     1      12.923   7.675  19.627  0.00  0.00    +0.205 A 
ATOM     15  N   UNL     1      12.847   6.952  20.016  0.00  0.00    -0.056 NA
ATOM     16  O   UNL     1      13.332   6.969  20.682  0.00  0.00    -0.336 OA
ENDROOT
BRANCH  14  17
ATOM     17  C   UNL     1      12.535   7.895  18.933  0.00  0.00    +0.058 A 
ATOM     18  C   UNL     1      11.966   8.493  18.951  0.00  0.00    +0.008 A 
ATOM     19  C   UNL     1      11.578   8.714  18.257  0.00  0.00    +0.038 A 
ATOM     20  C   UNL     1      11.758   8.337  17.546  0.00  0.00    +0.149 A 
ATOM     21  N   UNL     1      12.327   7.739  17.528  0.00  0.00    -0.226 NA
ATOM     22  C   UNL     1      12.715   7.519  18.222  0.00  0.00    +0.104 A 
BRANCH  20  23
ATOM     23  N   UNL     1      11.370   8.557  16.852  0.00  0.00    -0.271 N 
ATOM     24  C   UNL     1      11.691   9.006  16.238  0.00  0.00    +0.104 A 
ATOM     25  C   UNL     1      11.112   9.094  15.657  0.00  0.00    +0.120 A 
ATOM     26  N   UNL     1      10.433   8.700  15.912  0.00  0.00    -0.222 NA
ATOM     27  C   UNL     1      10.593   8.368  16.650  0.00  0.00    +0.184 A 
ENDBRANCH  20  23
ENDBRANCH  14  17
BRANCH  12   3
ATOM      1  C   UNL     1      14.760   8.535  22.367  0.00  0.00    +0.019 C 
ATOM      2  C   UNL     1      14.062   8.411  21.945  0.00  0.00    +0.027 C 
ATOM      3  C   UNL     1      14.243   7.956  21.281  0.00  0.00    +0.138 C 
ATOM      4  N   UNL     1      15.051   7.798  21.293  0.00  0.00    -0.268 NA
ATOM      5  C   UNL     1      15.372   8.156  21.964  0.00  0.00    +0.072 C 
BRANCH   4   6
ATOM      6  C   UNL     1      15.468   7.360  20.732  0.00  0.00    +0.058 C 
ATOM      7  C   UNL     1      15.526   6.541  20.809  0.00  0.00    +0.016 C 
ATOM      8  C   UNL     1      15.943   6.102  20.248  0.00  0.00    +0.001 C 
ATOM      9  C   UNL     1      16.302   6.483  19.611  0.00  0.00    +0.000 C 
ATOM     10  C   UNL     1      16.245   7.302  19.533  0.00  0.00    +0.001 C 
ATOM     11  C   UNL     1      15.828   7.741  20.094  0.00  0.00    +0.016 C 
ENDBRANCH   4   6
ENDBRANCH  12   3
TORSDOF 4
ENDMDL
MODEL 9
REMARK VINA RESULT:      -7.6     15.889     18.242
REMARK  Name = 
REMARK  4 active torsions:
REMARK  status: ('A' for Active; 'I' for Inactive)
REMARK    1  A    between atoms: C_3  and  C_12
REMARK    2  A    between atoms: N_4  and  C_6
REMARK    3  A    between atoms: C_14  and  C_17
REMARK    4  A    between atoms: C_20  and  N_23
REMARK                            x       y       z     vdW  Elec       q    Type
REMARK                         _______ _______ _______ _____ _____    ______ ____
ROOT
ATOM     12  C   UNL     1      11.770   7.623  20.359  0.00  0.00    +0.251 A 
ATOM     13  N   UNL     1      12.018   8.115  19.743  0.00  0.00    -0.190 NA
ATOM     14  C   UNL     1      12.303   7.637  19.135  0.00  0.00    +0.205 A 
ATOM     15  N   UNL     1      12.232   6.851  19.373  0.00  0.00    -0.056 NA
ATOM     16  O   UNL     1      11.903   6.843  20.129  0.00  0.00    -0.336 OA
ENDROOT
BRANCH  14  17
ATOM     17  C   UNL     1      12.606   7.900  18.413  0.00  0.00    +0.058 A 
ATOM     18  C   UNL     1      12.248   8.532  18.022  0.00  0.00    +0.008 A 
ATOM     19  C   UNL     1      12.552   8.795  17.301  0.00  0.00    +0.038 A 
ATOM     20  C   UNL     1      13.212   8.426  16.972  0.00  0.00    +0.149 A 
ATOM     21  N   UNL     1      13.569   7.794  17.363  0.00  0.00    -0.226 NA
ATOM     22  C   UNL     1      13.266   7.531  18.084  0.00  0.00    +0.104 A 
BRANCH  20  23
ATOM     23  N   UNL     1      13.515   8.689  16.250  0.00  0.00    -0.271 N 
ATOM     24  C   UNL     1      14.309   8.844  16.086  0.00  0.00    +0.104 A 
ATOM     25  C   UNL     1      14.362   9.094  15.301  0.00  0.00    +0.120 A 
ATOM     26  N   UNL     1      13.601   9.092  14.981  0.00  0.00    -0.222 NA
ATOM     27  C   UNL     1      13.078   8.842  15.568  0.00  0.00    +0.184 A 
ENDBRANCH  20  23
ENDBRANCH  14  17
BRANCH  12   3
ATOM      1  C   UNL     1      10.572   8.174  22.037  0.00  0.00    +0.019 C 
ATOM      2  C   UNL     1      10.645   7.892  21.265  0.00  0.00    +0.027 C 
ATOM      3  C   UNL     1      11.448   7.870  21.076  0.00  0.00    +0.138 C 
ATOM      4  N   UNL     1      11.870   8.138  21.731  0.00  0.00    -0.268 NA
ATOM      5  C   UNL     1      11.330   8.326  22.325  0.00  0.00    +0.072 C 
BRANCH   4   6
ATOM      6  C   UNL     1      12.691   8.206  21.784  0.00  0.00    +0.058 C 
ATOM      7  C   UNL     1      13.150   7.543  21.956  0.00  0.00    +0.016 C 
ATOM      8  C   UNL     1      13.971   7.611  22.009  0.00  0.00    +0.001 C 
ATOM      9  C   UNL     1      14.332   8.342  21.888  0.00  0.00    +0.000 C 
ATOM     10  C   UNL     1      13.873   9.007  21.716  0.00  0.00    +0.001 C 
ATOM     11  C   UNL     1      13.053   8.938  21.663  0.00  0.00    +0.016 C 
ENDBRANCH   4   6
ENDBRANCH  12   3
TORSDOF 4
ENDMDL
MODEL 10
REMARK VINA RESULT:      -7.3     16.459     18.026
REMARK  Name = 
REMARK  4 active torsions:
REMARK  status: ('A' for Active; 'I' for Inactive)
REMARK    1  A    between atoms: C_3  and  C_12
REMARK    2  A    between atoms: N_4  and  C_6
REMARK    3  A    between atoms: C_14  and  C_17
REMARK    4  A    between atoms: C_20  and  N_23
REMARK                            x       y       z     vdW  Elec       q    Type
REMARK                         _______ _______ _______ _____ _____    ______ ____
ROOT
ATOM     12  C   UNL     1      13.450   7.566  20.488  0.00  0.00    +0.251 A 
ATOM     13  N   UNL     1      13.212   8.060  19.871  0.00  0.00    -0.190 NA
ATOM     14  C   UNL     1      12.838   7.596  19.302  0.00  0.00    +0.205 A 
ATOM     15  N   UNL     1      12.844   6.815  19.566  0.00  0.00    -0.056 NA
ATOM     16  O   UNL     1      13.222   6.796  20.298  0.00  0.00    -0.336 OA
ENDROOT
BRANCH  14  17
ATOM     17  C   UNL     1      12.514   7.866  18.592  0.00  0.00    +0.058 A 
ATOM     18  C   UNL     1      12.362   8.670  18.488  0.00  0.00    +0.008 A 
ATOM     19  C   UNL     1      12.038   8.940  17.778  0.00  0.00    +0.038 A 
ATOM     20  C   UNL     1      11.867   8.405  17.173  0.00  0.00    +0.149 A 
ATOM     21  N   UNL     1      12.020   7.601  17.277  0.00  0.00    -0.226 NA
ATOM     22  C   UNL     1      12.343   7.331  17.987  0.00  0.00    +0.104 A 
BRANCH  20  23
ATOM     23  N   UNL     1      11.544   8.675  16.464  0.00  0.00    -0.271 N 
ATOM     24  C   UNL     1      10.745   8.828  16.322  0.00  0.00    +0.104 A 
ATOM     25  C   UNL     1      10.670   9.087  15.542  0.00  0.00    +0.120 A 
ATOM     26  N   UNL     1      11.422   9.094  15.202  0.00  0.00    -0.222 NA
ATOM     27  C   UNL     1      11.962   8.839  15.772  0.00  0.00    +0.184 A 
ENDBRANCH  20  23
ENDBRANCH  14  17
BRANCH  12   3
ATOM      1  C   UNL     1      14.814   8.061  22.053  0.00  0.00    +0.019 C 
ATOM      2  C   UNL     1      14.661   7.777  21.294  0.00  0.00    +0.027 C 
ATOM      3  C   UNL     1      13.845   7.800  21.172  0.00  0.00    +0.138 C 
ATOM      4  N   UNL     1      13.494   8.099  21.856  0.00  0.00    -0.268 NA
ATOM      5  C   UNL     1      14.092   8.261  22.401  0.00  0.00    +0.072 C 
BRANCH   4   6
ATOM      6  C   UNL     1      12.687   8.216  21.975  0.00  0.00    +0.058 C 
ATOM      7  C   UNL     1      12.196   7.574  22.141  0.00  0.00    +0.016 C 
ATOM      8  C   UNL     1      11.388   7.691  22.260  0.00  0.00    +0.001 C 
ATOM      9  C   UNL     1      11.071   8.450  22.213  0.00  0.00    +0.000 C 
ATOM     10  C   UNL     1      11.560   9.094  22.047  0.00  0.00    +0.001 C 
ATOM     11  C   UNL     1      12.368   8.977  21.928  0.00  0.00    +0.016 C 
ENDBRANCH   4   6
ENDBRANCH  12   3
TORSDOF 4
ENDMDL
