REMARK  Name = 
REMARK  8 active torsions:
REMARK  status: ('A' for Active; 'I' for Inactive)
REMARK    1  A    between atoms: O_2  and  C_3
REMARK    2  A    between atoms: C_5  and  C_6
REMARK    3  A    between atoms: C_6  and  N_7
REMARK    4  A    between atoms: C_11  and  C_12
REMARK    5  A    between atoms: C_14  and  C_17
REMARK    6  A    between atoms: C_20  and  N_23
REMARK    7  A    between atoms: C_27  and  O_28
REMARK    8  A    between atoms: C_30  and  O_31
REMARK                            x       y       z     vdW  Elec       q    Type
REMARK                         _______ _______ _______ _____ _____    ______ ____
ROOT
ATOM      7  N   UNL     1      -0.596  -3.041   0.000  0.00  0.00    -0.263 NA
ATOM      8  C   UNL     1       0.072  -3.525   0.000  0.00  0.00    +0.073 C 
ATOM      9  C   UNL     1      -0.183  -4.310   0.000  0.00  0.00    +0.019 C 
ATOM     10  C   UNL     1      -1.008  -4.310   0.000  0.00  0.00    +0.027 C 
ATOM     11  C   UNL     1      -1.263  -3.525   0.000  0.00  0.00    +0.138 C 
ENDROOT
BRANCH  11  12
ATOM     12  C   UNL     1      -2.047  -3.270   0.000  0.00  0.00    +0.251 A 
ATOM     13  N   UNL     1      -2.715  -3.755   0.000  0.00  0.00    -0.190 NA
ATOM     14  C   UNL     1      -3.382  -3.270   0.000  0.00  0.00    +0.205 A 
ATOM     15  N   UNL     1      -3.127  -2.486   0.000  0.00  0.00    -0.056 NA
ATOM     16  O   UNL     1      -2.303  -2.486   0.000  0.00  0.00    -0.336 OA
BRANCH  14  17
ATOM     17  C   UNL     1      -4.167  -3.525   0.000  0.00  0.00    +0.058 A 
ATOM     18  C   UNL     1      -4.338  -4.332   0.000  0.00  0.00    +0.008 A 
ATOM     19  C   UNL     1      -5.123  -4.587   0.000  0.00  0.00    +0.034 A 
ATOM     20  C   UNL     1      -5.736  -4.035   0.000  0.00  0.00    +0.132 A 
ATOM     21  N   UNL     1      -5.565  -3.228   0.000  0.00  0.00    -0.229 NA
ATOM     22  C   UNL     1      -4.780  -2.973   0.000  0.00  0.00    +0.103 A 
BRANCH  20  23
ATOM     23  N   UNL     1      -6.521  -4.290   0.000  0.00  0.00    -0.290 N 
ATOM     24  C   UNL     1      -7.134  -3.738   0.000  0.00  0.00    +0.114 C 
ATOM     25  C   UNL     1      -6.692  -5.097   0.000  0.00  0.00    +0.114 C 
ENDBRANCH  20  23
ENDBRANCH  14  17
ENDBRANCH  11  12
BRANCH   7   6
ATOM      6  C   UNL     1      -0.596  -2.216   0.000  0.00  0.00    +0.100 C 
BRANCH   6   5
ATOM      3  C   UNL     1       1.548  -1.803   0.000  0.00  0.00    +0.175 A 
ATOM      4  C   UNL     1       0.834  -2.216   0.000  0.00  0.00    +0.037 A 
ATOM      5  C   UNL     1       0.119  -1.803   0.000  0.00  0.00    +0.000 A 
ATOM     26  C   UNL     1       0.119  -0.978   0.000  0.00  0.00    +0.037 A 
ATOM     27  C   UNL     1       0.834  -0.566   0.000  0.00  0.00    +0.175 A 
ATOM     30  C   UNL     1       1.548  -0.978   0.000  0.00  0.00    +0.206 A 
BRANCH   3   2
ATOM      1  C   UNL     1       2.977  -1.803   0.000  0.00  0.00    +0.253 C 
ATOM      2  O   UNL     1       2.262  -2.216   0.000  0.00  0.00    -0.468 OA
ENDBRANCH   3   2
BRANCH  27  28
ATOM     28  O   UNL     1       0.834   0.260   0.000  0.00  0.00    -0.468 OA
ATOM     29  C   UNL     1       1.548   0.672   0.000  0.00  0.00    +0.253 C 
ENDBRANCH  27  28
BRANCH  30  31
ATOM     31  O   UNL     1       2.262  -0.566   0.000  0.00  0.00    -0.465 OA
ATOM     32  C   UNL     1       2.262   0.260   0.000  0.00  0.00    +0.253 C 
ENDBRANCH  30  31
ENDBRANCH   6   5
ENDBRANCH   7   6
TORSDOF 8
