MODEL 1
REMARK VINA RESULT:     -12.7      0.000      0.000
REMARK  Name = 
REMARK  3 active torsions:
REMARK  status: ('A' for Active; 'I' for Inactive)
REMARK    1  A    between atoms: C_7  and  C_8
REMARK    2  A    between atoms: C_8  and  N_9
REMARK    3  A    between atoms: C_12  and  C_14
REMARK                            x       y       z     vdW  Elec       q    Type
REMARK                         _______ _______ _______ _____ _____    ______ ____
ROOT
ATOM      9  N   UNL     1      -4.312   2.370  24.575  0.00  0.00    -0.268 NA
ATOM     10  C   UNL     1      -5.070   2.195  24.849  0.00  0.00    +0.073 C 
ATOM     11  C   UNL     1      -5.123   1.378  24.948  0.00  0.00    +0.028 C 
ATOM     12  C   UNL     1      -4.397   1.047  24.734  0.00  0.00    +0.094 C 
ATOM     13  C   UNL     1      -3.896   1.660  24.504  0.00  0.00    +0.082 C 
ENDROOT
BRANCH  12  14
ATOM     14  C   UNL     1      -4.207   0.245  24.749  0.00  0.00    +0.207 A 
ATOM     15  N   UNL     1      -4.366  -0.302  24.153  0.00  0.00    -0.212 NA
ATOM     16  C   UNL     1      -4.081  -1.036  24.398  0.00  0.00    +0.119 A 
ATOM     17  C   UNL     1      -3.746  -0.943  25.146  0.00  0.00    +0.164 A 
ATOM     18  O   UNL     1      -3.824  -0.152  25.364  0.00  0.00    -0.438 OA
ATOM     19  C   UNL     1      -3.414  -1.592  25.533  0.00  0.00    +0.040 A 
ATOM     20  C   UNL     1      -3.417  -2.333  25.172  0.00  0.00    +0.015 A 
ATOM     21  C   UNL     1      -3.751  -2.426  24.423  0.00  0.00    +0.059 A 
ATOM     22 CL   UNL     1      -3.754  -3.168  24.061  0.00  0.00    -0.082 Cl
ATOM     23  C   UNL     1      -4.084  -1.778  24.036  0.00  0.00    +0.034 A 
ENDBRANCH  12  14
BRANCH   9   8
ATOM      8  C   UNL     1      -4.020   3.122  24.401  0.00  0.00    +0.101 C 
BRANCH   8   7
ATOM      1  F   UNL     1      -2.487   3.542  23.958  0.00  0.00    -0.204 F 
ATOM      2  C   UNL     1      -2.760   3.716  24.716  0.00  0.00    +0.137 A 
ATOM      3  C   UNL     1      -2.266   4.102  25.254  0.00  0.00    +0.029 A 
ATOM      4  C   UNL     1      -2.538   4.276  26.012  0.00  0.00    +0.002 A 
ATOM      5  C   UNL     1      -3.304   4.067  26.234  0.00  0.00    -0.000 A 
ATOM      6  C   UNL     1      -3.799   3.682  25.697  0.00  0.00    -0.001 A 
ATOM      7  C   UNL     1      -3.526   3.507  24.938  0.00  0.00    +0.021 A 
ENDBRANCH   8   7
ENDBRANCH   9   8
TORSDOF 3
ENDMDL
MODEL 2
REMARK VINA RESULT:     -12.6      2.444      5.034
REMARK  Name = 
REMARK  3 active torsions:
REMARK  status: ('A' for Active; 'I' for Inactive)
REMARK    1  A    between atoms: C_7  and  C_8
REMARK    2  A    between atoms: C_8  and  N_9
REMARK    3  A    between atoms: C_12  and  C_14
REMARK                            x       y       z     vdW  Elec       q    Type
REMARK                         _______ _______ _______ _____ _____    ______ ____
ROOT
ATOM      9  N   UNL     1      -4.015   0.451  25.051  0.00  0.00    -0.268 NA
ATOM     10  C   UNL     1      -4.388   0.823  24.417  0.00  0.00    +0.073 C 
ATOM     11  C   UNL     1      -4.000   1.538  24.276  0.00  0.00    +0.028 C 
ATOM     12  C   UNL     1      -3.387   1.607  24.824  0.00  0.00    +0.094 C 
ATOM     13  C   UNL     1      -3.396   0.936  25.303  0.00  0.00    +0.082 C 
ENDROOT
BRANCH  12  14
ATOM     14  C   UNL     1      -2.858   2.237  24.882  0.00  0.00    +0.207 A 
ATOM     15  N   UNL     1      -3.058   3.034  24.953  0.00  0.00    -0.212 NA
ATOM     16  C   UNL     1      -2.360   3.470  24.994  0.00  0.00    +0.119 A 
ATOM     17  C   UNL     1      -1.727   2.943  24.948  0.00  0.00    +0.164 A 
ATOM     18  O   UNL     1      -2.034   2.181  24.879  0.00  0.00    -0.438 OA
ATOM     19  C   UNL     1      -0.952   3.226  24.976  0.00  0.00    +0.040 A 
ATOM     20  C   UNL     1      -0.810   4.035  25.049  0.00  0.00    +0.015 A 
ATOM     21  C   UNL     1      -1.443   4.562  25.095  0.00  0.00    +0.059 A 
ATOM     22 CL   UNL     1      -1.302   5.371  25.168  0.00  0.00    -0.082 Cl
ATOM     23  C   UNL     1      -2.218   4.280  25.067  0.00  0.00    +0.034 A 
ENDBRANCH  12  14
BRANCH   9   8
ATOM      8  C   UNL     1      -4.223  -0.277  25.378  0.00  0.00    +0.101 C 
BRANCH   8   7
ATOM      1  F   UNL     1      -3.350  -1.410  26.200  0.00  0.00    -0.204 F 
ATOM      2  C   UNL     1      -3.562  -1.543  25.414  0.00  0.00    +0.137 A 
ATOM      3  C   UNL     1      -3.337  -2.243  25.039  0.00  0.00    +0.029 A 
ATOM      4  C   UNL     1      -3.548  -2.375  24.253  0.00  0.00    +0.002 A 
ATOM      5  C   UNL     1      -3.984  -1.809  23.842  0.00  0.00    -0.000 A 
ATOM      6  C   UNL     1      -4.210  -1.109  24.216  0.00  0.00    -0.001 A 
ATOM      7  C   UNL     1      -3.998  -0.977  25.003  0.00  0.00    +0.021 A 
ENDBRANCH   8   7
ENDBRANCH   9   8
TORSDOF 3
ENDMDL
MODEL 3
REMARK VINA RESULT:     -12.2      0.975      1.424
REMARK  Name = 
REMARK  3 active torsions:
REMARK  status: ('A' for Active; 'I' for Inactive)
REMARK    1  A    between atoms: C_7  and  C_8
REMARK    2  A    between atoms: C_8  and  N_9
REMARK    3  A    between atoms: C_12  and  C_14
REMARK                            x       y       z     vdW  Elec       q    Type
REMARK                         _______ _______ _______ _____ _____    ______ ____
ROOT
ATOM      9  N   UNL     1      -3.598   2.399  24.096  0.00  0.00    -0.268 NA
ATOM     10  C   UNL     1      -3.170   2.248  23.407  0.00  0.00    +0.073 C 
ATOM     11  C   UNL     1      -3.098   1.430  23.326  0.00  0.00    +0.028 C 
ATOM     12  C   UNL     1      -3.481   1.076  23.966  0.00  0.00    +0.094 C 
ATOM     13  C   UNL     1      -3.790   1.675  24.441  0.00  0.00    +0.082 C 
ENDROOT
BRANCH  12  14
ATOM     14  C   UNL     1      -3.543   0.265  24.105  0.00  0.00    +0.207 A 
ATOM     15  N   UNL     1      -3.157  -0.156  24.699  0.00  0.00    -0.212 NA
ATOM     16  C   UNL     1      -3.378  -0.948  24.635  0.00  0.00    +0.119 A 
ATOM     17  C   UNL     1      -3.902  -1.016  24.001  0.00  0.00    +0.164 A 
ATOM     18  O   UNL     1      -4.004  -0.267  23.673  0.00  0.00    -0.438 OA
ATOM     19  C   UNL     1      -4.217  -1.753  23.805  0.00  0.00    +0.040 A 
ATOM     20  C   UNL     1      -4.010  -2.421  24.242  0.00  0.00    +0.015 A 
ATOM     21  C   UNL     1      -3.487  -2.352  24.876  0.00  0.00    +0.059 A 
ATOM     22 CL   UNL     1      -3.279  -3.020  25.313  0.00  0.00    -0.082 Cl
ATOM     23  C   UNL     1      -3.171  -1.617  25.073  0.00  0.00    +0.034 A 
ENDBRANCH  12  14
BRANCH   9   8
ATOM      8  C   UNL     1      -3.799   3.144  24.389  0.00  0.00    +0.101 C 
BRANCH   8   7
ATOM      1  F   UNL     1      -4.387   3.644  25.847  0.00  0.00    -0.204 F 
ATOM      2  C   UNL     1      -3.596   3.774  25.655  0.00  0.00    +0.137 A 
ATOM      3  C   UNL     1      -3.097   4.154  26.192  0.00  0.00    +0.029 A 
ATOM      4  C   UNL     1      -2.306   4.284  26.000  0.00  0.00    +0.002 A 
ATOM      5  C   UNL     1      -2.012   4.034  25.271  0.00  0.00    -0.000 A 
ATOM      6  C   UNL     1      -2.509   3.654  24.734  0.00  0.00    -0.001 A 
ATOM      7  C   UNL     1      -3.302   3.524  24.926  0.00  0.00    +0.021 A 
ENDBRANCH   8   7
ENDBRANCH   9   8
TORSDOF 3
ENDMDL
MODEL 4
REMARK VINA RESULT:     -11.0      2.452      4.725
REMARK  Name = 
REMARK  3 active torsions:
REMARK  status: ('A' for Active; 'I' for Inactive)
REMARK    1  A    between atoms: C_7  and  C_8
REMARK    2  A    between atoms: C_8  and  N_9
REMARK    3  A    between atoms: C_12  and  C_14
REMARK                            x       y       z     vdW  Elec       q    Type
REMARK                         _______ _______ _______ _____ _____    ______ ____
ROOT
ATOM      9  N   UNL     1      -3.609  -1.188  24.824  0.00  0.00    -0.268 NA
ATOM     10  C   UNL     1      -4.016  -1.162  24.107  0.00  0.00    +0.073 C 
ATOM     11  C   UNL     1      -4.398  -0.433  24.057  0.00  0.00    +0.028 C 
ATOM     12  C   UNL     1      -4.227  -0.007  24.744  0.00  0.00    +0.094 C 
ATOM     13  C   UNL     1      -3.739  -0.474  25.217  0.00  0.00    +0.082 C 
ENDROOT
BRANCH  12  14
ATOM     14  C   UNL     1      -4.496   0.751  24.924  0.00  0.00    +0.207 A 
ATOM     15  N   UNL     1      -4.097   1.457  24.771  0.00  0.00    -0.212 NA
ATOM     16  C   UNL     1      -4.567   2.079  25.041  0.00  0.00    +0.119 A 
ATOM     17  C   UNL     1      -5.256   1.758  25.361  0.00  0.00    +0.164 A 
ATOM     18  O   UNL     1      -5.213   0.938  25.289  0.00  0.00    -0.438 OA
ATOM     19  C   UNL     1      -5.834   2.255  25.677  0.00  0.00    +0.040 A 
ATOM     20  C   UNL     1      -5.723   3.072  25.673  0.00  0.00    +0.015 A 
ATOM     21  C   UNL     1      -5.033   3.393  25.353  0.00  0.00    +0.059 A 
ATOM     22 CL   UNL     1      -4.921   4.210  25.349  0.00  0.00    -0.082 Cl
ATOM     23  C   UNL     1      -4.455   2.897  25.037  0.00  0.00    +0.034 A 
ENDBRANCH  12  14
BRANCH   9   8
ATOM      8  C   UNL     1      -3.151  -1.816  25.100  0.00  0.00    +0.101 C 
BRANCH   8   7
ATOM      1  F   UNL     1      -2.317  -2.924  24.206  0.00  0.00    -0.204 F 
ATOM      2  C   UNL     1      -1.912  -2.331  24.611  0.00  0.00    +0.137 A 
ATOM      3  C   UNL     1      -1.088  -2.292  24.569  0.00  0.00    +0.029 A 
ATOM      4  C   UNL     1      -0.683  -1.699  24.973  0.00  0.00    +0.002 A 
ATOM      5  C   UNL     1      -1.099  -1.145  25.421  0.00  0.00    -0.000 A 
ATOM      6  C   UNL     1      -1.922  -1.184  25.463  0.00  0.00    -0.001 A 
ATOM      7  C   UNL     1      -2.328  -1.778  25.058  0.00  0.00    +0.021 A 
ENDBRANCH   8   7
ENDBRANCH   9   8
TORSDOF 3
ENDMDL
MODEL 5
REMARK VINA RESULT:     -10.2      2.687      3.332
REMARK  Name = 
REMARK  3 active torsions:
REMARK  status: ('A' for Active; 'I' for Inactive)
REMARK    1  A    between atoms: C_7  and  C_8
REMARK    2  A    between atoms: C_8  and  N_9
REMARK    3  A    between atoms: C_12  and  C_14
REMARK                            x       y       z     vdW  Elec       q    Type
REMARK                         _______ _______ _______ _____ _____    ______ ____
ROOT
ATOM      9  N   UNL     1      -3.188   2.929  24.745  0.00  0.00    -0.268 NA
ATOM     10  C   UNL     1      -2.662   3.196  25.322  0.00  0.00    +0.073 C 
ATOM     11  C   UNL     1      -1.987   2.722  25.290  0.00  0.00    +0.028 C 
ATOM     12  C   UNL     1      -2.097   2.162  24.694  0.00  0.00    +0.094 C 
ATOM     13  C   UNL     1      -2.839   2.290  24.358  0.00  0.00    +0.082 C 
ENDROOT
BRANCH  12  14
ATOM     14  C   UNL     1      -1.559   1.576  24.474  0.00  0.00    +0.207 A 
ATOM     15  N   UNL     1      -0.949   1.660  23.926  0.00  0.00    -0.212 NA
ATOM     16  C   UNL     1      -0.550   0.940  23.876  0.00  0.00    +0.119 A 
ATOM     17  C   UNL     1      -0.914   0.411  24.394  0.00  0.00    +0.164 A 
ATOM     18  O   UNL     1      -1.538   0.803  24.763  0.00  0.00    -0.438 OA
ATOM     19  C   UNL     1      -0.630  -0.361  24.462  0.00  0.00    +0.040 A 
ATOM     20  C   UNL     1       0.018  -0.603  24.012  0.00  0.00    +0.015 A 
ATOM     21  C   UNL     1       0.382  -0.074  23.495  0.00  0.00    +0.059 A 
ATOM     22 CL   UNL     1       1.029  -0.316  23.045  0.00  0.00    -0.082 Cl
ATOM     23  C   UNL     1       0.098   0.698  23.426  0.00  0.00    +0.034 A 
ENDBRANCH  12  14
BRANCH   9   8
ATOM      8  C   UNL     1      -3.933   3.246  24.585  0.00  0.00    +0.101 C 
BRANCH   8   7
ATOM      1  F   UNL     1      -4.922   4.092  25.598  0.00  0.00    -0.204 F 
ATOM      2  C   UNL     1      -5.103   3.312  25.402  0.00  0.00    +0.137 A 
ATOM      3  C   UNL     1      -5.779   2.954  25.712  0.00  0.00    +0.029 A 
ATOM      4  C   UNL     1      -5.960   2.174  25.515  0.00  0.00    +0.002 A 
ATOM      5  C   UNL     1      -5.466   1.751  25.008  0.00  0.00    -0.000 A 
ATOM      6  C   UNL     1      -4.790   2.108  24.698  0.00  0.00    -0.001 A 
ATOM      7  C   UNL     1      -4.609   2.889  24.895  0.00  0.00    +0.021 A 
ENDBRANCH   8   7
ENDBRANCH   9   8
TORSDOF 3
ENDMDL
