REMARK  Name = 
REMARK  4 active torsions:
REMARK  status: ('A' for Active; 'I' for Inactive)
REMARK    1  A    between atoms: O_2  and  C_3
REMARK    2  A    between atoms: C_6  and  O_7
REMARK    3  A    between atoms: O_7  and  C_8
REMARK    4  A    between atoms: C_15  and  C_17
REMARK                            x       y       z     vdW  Elec       q    Type
REMARK                         _______ _______ _______ _____ _____    ______ ____
ROOT
ATOM      8  C   UNL     1       4.653   5.058   0.000  0.00  0.00    +0.215 C 
ATOM      9  C   UNL     1       5.469   4.935   0.000  0.00  0.00    +0.187 C 
ATOM     10  O   UNL     1       5.881   4.220   0.000  0.00  0.00    -0.348 OA
ATOM     11  C   UNL     1       5.580   3.453   0.000  0.00  0.00    +0.164 C 
ATOM     12  C   UNL     1       4.792   3.209   0.000  0.00  0.00    +0.126 C 
ATOM     13  N   UNL     1       4.110   3.674   0.000  0.00  0.00    -0.268 N 
ATOM     14  C   UNL     1       4.048   4.497   0.000  0.00  0.00    +0.140 C 
ATOM     15  C   UNL     1       3.396   3.261   0.000  0.00  0.00    +0.270 C 
ATOM     16  O   UNL     1       2.681   3.674   0.000  0.00  0.00    -0.268 OA
ENDROOT
BRANCH  15  17
ATOM     17  C   UNL     1       3.396   2.437   0.000  0.00  0.00    +0.176 A 
ATOM     18  N   UNL     1       4.063   1.952   0.000  0.00  0.00    -0.073 NA
ATOM     19  O   UNL     1       3.808   1.167   0.000  0.00  0.00    -0.358 OA
ATOM     20  C   UNL     1       2.983   1.167   0.000  0.00  0.00    +0.155 A 
ATOM     21  C   UNL     1       2.498   0.499   0.000  0.00  0.00    +0.075 C 
ATOM     22  C   UNL     1       2.728   1.952   0.000  0.00  0.00    +0.063 A 
ENDBRANCH  15  17
BRANCH   8   7
ATOM      7  O   UNL     1       4.410   5.846   0.000  0.00  0.00    -0.475 OA
BRANCH   7   6
ATOM      3  C   UNL     1       6.093   7.660   0.000  0.00  0.00    +0.139 A 
ATOM      4  C   UNL     1       6.337   6.872   0.000  0.00  0.00    +0.040 A 
ATOM      5  C   UNL     1       5.776   6.267   0.000  0.00  0.00    +0.040 A 
ATOM      6  C   UNL     1       4.971   6.451   0.000  0.00  0.00    +0.139 A 
ATOM     23  C   UNL     1       4.728   7.239   0.000  0.00  0.00    +0.040 A 
ATOM     24  C   UNL     1       5.289   7.844   0.000  0.00  0.00    +0.040 A 
BRANCH   3   2
ATOM      1  C   UNL     1       6.412   9.054   0.000  0.00  0.00    +0.252 C 
ATOM      2  O   UNL     1       6.655   8.265   0.000  0.00  0.00    -0.471 OA
ENDBRANCH   3   2
ENDBRANCH   7   6
ENDBRANCH   8   7
TORSDOF 4
