REMARK  Name = 
REMARK  10 active torsions:
REMARK  status: ('A' for Active; 'I' for Inactive)
REMARK    1  A    between atoms: O_2  and  C_3
REMARK    2  A    between atoms: C_3  and  C_4
REMARK    3  A    between atoms: C_11  and  C_12
REMARK    4  A    between atoms: N_14  and  C_15
REMARK    5  A    between atoms: C_15  and  C_16
REMARK    6  A    between atoms: C_15  and  C_25
REMARK    7  A    between atoms: C_16  and  C_17
REMARK    8  A    between atoms: C_20  and  O_21
REMARK    9  A    between atoms: C_25  and  O_27
REMARK   10  A    between atoms: N_31  and  C_32
REMARK                            x       y       z     vdW  Elec       q    Type
REMARK                         _______ _______ _______ _____ _____    ______ ____
ROOT
ATOM      4  C   UNL     1      -2.143  -3.712   0.000  0.00  0.00    +0.256 C 
ATOM      5  O   UNL     1      -2.858  -4.125   0.000  0.00  0.00    -0.272 OA
ATOM      6  N   UNL     1      -2.143  -2.888   0.000  0.00  0.00    -0.268 N 
ATOM      7  C   UNL     1      -2.858  -2.475   0.000  0.00  0.00    +0.115 C 
ATOM      8  C   UNL     1      -2.858  -1.650   0.000  0.00  0.00    +0.117 C 
ATOM      9  N   UNL     1      -2.143  -1.238   0.000  0.00  0.00    -0.259 N 
ATOM     10  C   UNL     1      -1.429  -1.650   0.000  0.00  0.00    +0.124 C 
ATOM     11  C   UNL     1      -1.429  -2.475   0.000  0.00  0.00    +0.174 C 
ATOM     29  C   UNL     1      -2.143  -0.412   0.000  0.00  0.00    +0.323 C 
ATOM     30  O   UNL     1      -1.429   0.000   0.000  0.00  0.00    -0.251 OA
ATOM     31  N   UNL     1      -2.858   0.000   0.000  0.00  0.00    -0.190 NA
ENDROOT
BRANCH  11  12
ATOM     12  C   UNL     1      -0.715  -2.888   0.000  0.00  0.00    +0.262 C 
ATOM     13  O   UNL     1       0.000  -2.475   0.000  0.00  0.00    -0.271 OA
ATOM     14  N   UNL     1      -0.715  -3.712   0.000  0.00  0.00    -0.194 NA
BRANCH  14  15
ATOM     15  C   UNL     1       0.000  -4.125   0.000  0.00  0.00    +0.198 C 
BRANCH  15  25
ATOM     25  C   UNL     1       0.715  -3.712   0.000  0.00  0.00    +0.337 C 
ATOM     26  O   UNL     1       1.429  -4.125   0.000  0.00  0.00    -0.248 OA
BRANCH  25  27
ATOM     27  O   UNL     1       0.715  -2.888   0.000  0.00  0.00    -0.443 OA
ATOM     28  C   UNL     1       1.429  -2.475   0.000  0.00  0.00    +0.256 C 
ENDBRANCH  25  27
ENDBRANCH  15  25
BRANCH  15  16
ATOM     16  C   UNL     1       0.000  -4.950   0.000  0.00  0.00    +0.059 C 
BRANCH  16  17
ATOM     17  C   UNL     1       0.715  -5.362   0.000  0.00  0.00    -0.020 A 
ATOM     18  C   UNL     1       1.429  -4.950   0.000  0.00  0.00    -0.001 A 
ATOM     19  C   UNL     1       2.143  -5.362   0.000  0.00  0.00    +0.037 A 
ATOM     20  C   UNL     1       2.143  -6.188   0.000  0.00  0.00    +0.139 A 
ATOM     23  C   UNL     1       1.429  -6.600   0.000  0.00  0.00    +0.037 A 
ATOM     24  C   UNL     1       0.715  -6.188   0.000  0.00  0.00    -0.001 A 
BRANCH  20  21
ATOM     21  O   UNL     1       2.858  -6.600   0.000  0.00  0.00    -0.471 OA
ATOM     22  C   UNL     1       2.858  -7.425   0.000  0.00  0.00    +0.252 C 
ENDBRANCH  20  21
ENDBRANCH  16  17
ENDBRANCH  15  16
ENDBRANCH  14  15
ENDBRANCH  11  12
BRANCH  31  32
ATOM     32  C   UNL     1      -2.858   0.825   0.000  0.00  0.00    +0.097 C 
ATOM     33  C   UNL     1      -3.572   1.238   0.000  0.00  0.00    +0.023 C 
ATOM     34  C   UNL     1      -2.143   1.238   0.000  0.00  0.00    +0.023 C 
ENDBRANCH  31  32
BRANCH   4   3
ATOM      3  C   UNL     1      -1.429  -4.125   0.000  0.00  0.00    +0.227 C 
BRANCH   3   2
ATOM      1  C   UNL     1      -0.715  -5.362   0.000  0.00  0.00    +0.175 C 
ATOM      2  O   UNL     1      -1.429  -4.950   0.000  0.00  0.00    -0.342 OA
ENDBRANCH   3   2
ENDBRANCH   4   3
TORSDOF 10
