REMARK  Name = 
REMARK  7 active torsions:
REMARK  status: ('A' for Active; 'I' for Inactive)
REMARK    1  A    between atoms: O_2  and  C_3
REMARK    2  A    between atoms: C_7  and  C_8
REMARK    3  A    between atoms: C_8  and  C_9
REMARK    4  A    between atoms: C_9  and  N_10
REMARK    5  A    between atoms: C_22  and  C_24
REMARK    6  A    between atoms: C_24  and  C_25
REMARK    7  A    between atoms: C_29  and  O_30
REMARK                            x       y       z     vdW  Elec       q    Type
REMARK                         _______ _______ _______ _____ _____    ______ ____
ROOT
ATOM     10  N   UNL     1       3.728   1.944   0.000  0.00  0.00    -0.279 N 
ATOM     11  C   UNL     1       3.370   1.201   0.000  0.00  0.00    +0.093 C 
ATOM     12  C   UNL     1       2.566   1.017   0.000  0.00  0.00    +0.023 C 
ATOM     13  C   UNL     1       1.921   1.532   0.000  0.00  0.00    +0.022 C 
ATOM     14  C   UNL     1       1.206   1.119   0.000  0.00  0.00    +0.093 C 
ATOM     15  N   UNL     1       0.492   1.532   0.000  0.00  0.00    -0.280 N 
ATOM     16  C   UNL     1       0.492   2.357   0.000  0.00  0.00    +0.093 C 
ATOM     17  C   UNL     1       1.206   2.769   0.000  0.00  0.00    +0.022 C 
ATOM     18  C   UNL     1       1.921   2.357   0.000  0.00  0.00    +0.012 C 
ATOM     19  C   UNL     1       2.566   2.871   0.000  0.00  0.00    +0.085 C 
ATOM     20  C   UNL     1       3.370   2.687   0.000  0.00  0.00    +0.226 C 
ATOM     21  O   UNL     1       3.884   3.333   0.000  0.00  0.00    -0.275 OA
ATOM     22  C   UNL     1      -0.223   1.119   0.000  0.00  0.00    +0.226 C 
ATOM     23  O   UNL     1      -0.223   0.294   0.000  0.00  0.00    -0.275 OA
ENDROOT
BRANCH  10   9
ATOM      9  C   UNL     1       4.553   1.944   0.000  0.00  0.00    +0.098 C 
BRANCH   9   8
ATOM      8  C   UNL     1       4.965   2.659   0.000  0.00  0.00    +0.051 C 
BRANCH   8   7
ATOM      3  C   UNL     1       7.028   3.373   0.000  0.00  0.00    +0.172 A 
ATOM      4  C   UNL     1       7.440   2.659   0.000  0.00  0.00    +0.040 A 
ATOM      5  C   UNL     1       7.028   1.944   0.000  0.00  0.00    +0.003 A 
ATOM      6  C   UNL     1       6.203   1.944   0.000  0.00  0.00    -0.001 A 
ATOM      7  C   UNL     1       5.790   2.659   0.000  0.00  0.00    +0.017 A 
ATOM     29  C   UNL     1       6.203   3.373   0.000  0.00  0.00    +0.168 A 
BRANCH   3   2
ATOM      1  C   UNL     1       8.265   4.088   0.000  0.00  0.00    +0.253 C 
ATOM      2  O   UNL     1       7.440   4.088   0.000  0.00  0.00    -0.468 OA
ENDBRANCH   3   2
BRANCH  29  30
ATOM     30  O   UNL     1       5.790   4.088   0.000  0.00  0.00    -0.469 OA
ATOM     31  C   UNL     1       6.203   4.802   0.000  0.00  0.00    +0.253 C 
ENDBRANCH  29  30
ENDBRANCH   8   7
ENDBRANCH   9   8
ENDBRANCH  10   9
BRANCH  22  24
ATOM     24  C   UNL     1      -0.937   1.532   0.000  0.00  0.00    +0.085 C 
BRANCH  24  25
ATOM     25  C   UNL     1      -1.652   1.119   0.000  0.00  0.00    +0.009 C 
ATOM     26  C   UNL     1      -2.366   0.707   0.000  0.00  0.00    +0.000 C 
ATOM     27  C   UNL     1      -2.064   1.834   0.000  0.00  0.00    +0.000 C 
ATOM     28  C   UNL     1      -1.239   0.405   0.000  0.00  0.00    +0.000 C 
ENDBRANCH  24  25
ENDBRANCH  22  24
TORSDOF 7
