MODEL 1
REMARK VINA RESULT:     -12.8      0.000      0.000
REMARK  Name = 
REMARK  4 active torsions:
REMARK  status: ('A' for Active; 'I' for Inactive)
REMARK    1  A    between atoms: C_2  and  C_4
REMARK    2  A    between atoms: C_7  and  C_8
REMARK    3  A    between atoms: C_8  and  N_9
REMARK    4  A    between atoms: C_12  and  C_14
REMARK                            x       y       z     vdW  Elec       q    Type
REMARK                         _______ _______ _______ _____ _____    ______ ____
ROOT
ATOM      9  N   UNL     1      -4.671   2.302  24.852  0.00  0.00    -0.268 NA
ATOM     10  C   UNL     1      -5.263   2.062  25.373  0.00  0.00    +0.073 C 
ATOM     11  C   UNL     1      -5.234   1.239  25.431  0.00  0.00    +0.028 C 
ATOM     12  C   UNL     1      -4.623   0.971  24.945  0.00  0.00    +0.094 C 
ATOM     13  C   UNL     1      -4.276   1.628  24.587  0.00  0.00    +0.082 C 
ENDROOT
BRANCH  12  14
ATOM     14  C   UNL     1      -4.400   0.184  24.836  0.00  0.00    +0.207 A 
ATOM     15  N   UNL     1      -3.978  -0.279  25.372  0.00  0.00    -0.212 NA
ATOM     16  C   UNL     1      -3.877  -1.026  25.040  0.00  0.00    +0.119 A 
ATOM     17  C   UNL     1      -4.237  -1.026  24.297  0.00  0.00    +0.164 A 
ATOM     18  O   UNL     1      -4.560  -0.278  24.171  0.00  0.00    -0.438 OA
ATOM     19  C   UNL     1      -4.223  -1.707  23.832  0.00  0.00    +0.040 A 
ATOM     20  C   UNL     1      -3.850  -2.388  24.109  0.00  0.00    +0.015 A 
ATOM     21  C   UNL     1      -3.490  -2.389  24.851  0.00  0.00    +0.059 A 
ATOM     22 CL   UNL     1      -3.116  -3.070  25.129  0.00  0.00    -0.082 Cl
ATOM     23  C   UNL     1      -3.503  -1.708  25.317  0.00  0.00    +0.034 A 
ENDBRANCH  12  14
BRANCH   9   8
ATOM      8  C   UNL     1      -4.503   3.079  24.633  0.00  0.00    +0.099 C 
BRANCH   8   7
ATOM      4  C   UNL     1      -2.301   4.070  25.172  0.00  0.00    +0.080 A 
ATOM      5  C   UNL     1      -2.427   3.722  24.435  0.00  0.00    +0.006 A 
ATOM      6  C   UNL     1      -3.161   3.392  24.255  0.00  0.00    -0.003 A 
ATOM      7  C   UNL     1      -3.769   3.410  24.813  0.00  0.00    -0.006 A 
ATOM     24  C   UNL     1      -3.643   3.758  25.550  0.00  0.00    -0.003 A 
ATOM     25  C   UNL     1      -2.908   4.088  25.729  0.00  0.00    +0.006 A 
BRANCH   4   2
ATOM      1  O   UNL     1      -1.462   5.219  25.319  0.00  0.00    -0.241 OA
ATOM      2  C   UNL     1      -1.566   4.400  25.351  0.00  0.00    +0.388 C 
ATOM      3  O   UNL     1      -0.935   3.913  25.562  0.00  0.00    -0.241 OA
ENDBRANCH   4   2
ENDBRANCH   8   7
ENDBRANCH   9   8
TORSDOF 4
ENDMDL
MODEL 2
REMARK VINA RESULT:     -12.6      2.179      5.332
REMARK  Name = 
REMARK  4 active torsions:
REMARK  status: ('A' for Active; 'I' for Inactive)
REMARK    1  A    between atoms: C_2  and  C_4
REMARK    2  A    between atoms: C_7  and  C_8
REMARK    3  A    between atoms: C_8  and  N_9
REMARK    4  A    between atoms: C_12  and  C_14
REMARK                            x       y       z     vdW  Elec       q    Type
REMARK                         _______ _______ _______ _____ _____    ______ ____
ROOT
ATOM      9  N   UNL     1      -4.288   0.998  24.977  0.00  0.00    -0.268 NA
ATOM     10  C   UNL     1      -4.630   1.421  24.357  0.00  0.00    +0.073 C 
ATOM     11  C   UNL     1      -4.175   2.098  24.229  0.00  0.00    +0.028 C 
ATOM     12  C   UNL     1      -3.552   2.093  24.771  0.00  0.00    +0.094 C 
ATOM     13  C   UNL     1      -3.622   1.414  25.233  0.00  0.00    +0.082 C 
ENDROOT
BRANCH  12  14
ATOM     14  C   UNL     1      -2.964   2.668  24.838  0.00  0.00    +0.207 A 
ATOM     15  N   UNL     1      -3.084   3.483  24.875  0.00  0.00    -0.212 NA
ATOM     16  C   UNL     1      -2.346   3.846  24.940  0.00  0.00    +0.119 A 
ATOM     17  C   UNL     1      -1.770   3.255  24.941  0.00  0.00    +0.164 A 
ATOM     18  O   UNL     1      -2.152   2.527  24.878  0.00  0.00    -0.438 OA
ATOM     19  C   UNL     1      -0.973   3.458  25.000  0.00  0.00    +0.040 A 
ATOM     20  C   UNL     1      -0.751   4.250  25.057  0.00  0.00    +0.015 A 
ATOM     21  C   UNL     1      -1.327   4.840  25.056  0.00  0.00    +0.059 A 
ATOM     22 CL   UNL     1      -1.106   5.633  25.113  0.00  0.00    -0.082 Cl
ATOM     23  C   UNL     1      -2.125   4.639  24.997  0.00  0.00    +0.034 A 
ENDBRANCH  12  14
BRANCH   9   8
ATOM      8  C   UNL     1      -4.563   0.285  25.288  0.00  0.00    +0.099 C 
BRANCH   8   7
ATOM      4  C   UNL     1      -3.484  -1.846  24.641  0.00  0.00    +0.080 A 
ATOM      5  C   UNL     1      -3.319  -1.506  25.374  0.00  0.00    +0.006 A 
ATOM      6  C   UNL     1      -3.679  -0.796  25.590  0.00  0.00    -0.003 A 
ATOM      7  C   UNL     1      -4.203  -0.425  25.072  0.00  0.00    -0.006 A 
ATOM     24  C   UNL     1      -4.368  -0.765  24.339  0.00  0.00    -0.003 A 
ATOM     25  C   UNL     1      -4.008  -1.475  24.123  0.00  0.00    +0.006 A 
BRANCH   4   2
ATOM      1  O   UNL     1      -2.309  -2.584  24.296  0.00  0.00    -0.241 OA
ATOM      2  C   UNL     1      -3.124  -2.557  24.425  0.00  0.00    +0.388 C 
ATOM      3  O   UNL     1      -3.578  -3.239  24.339  0.00  0.00    -0.241 OA
ENDBRANCH   4   2
ENDBRANCH   8   7
ENDBRANCH   9   8
TORSDOF 4
ENDMDL
MODEL 3
REMARK VINA RESULT:     -12.0      2.715      5.881
REMARK  Name = 
REMARK  4 active torsions:
REMARK  status: ('A' for Active; 'I' for Inactive)
REMARK    1  A    between atoms: C_2  and  C_4
REMARK    2  A    between atoms: C_7  and  C_8
REMARK    3  A    between atoms: C_8  and  N_9
REMARK    4  A    between atoms: C_12  and  C_14
REMARK                            x       y       z     vdW  Elec       q    Type
REMARK                         _______ _______ _______ _____ _____    ______ ____
ROOT
ATOM      9  N   UNL     1      -1.114  -0.085  25.340  0.00  0.00    -0.268 NA
ATOM     10  C   UNL     1      -0.545   0.048  24.758  0.00  0.00    +0.073 C 
ATOM     11  C   UNL     1      -0.512   0.861  24.615  0.00  0.00    +0.028 C 
ATOM     12  C   UNL     1      -1.061   1.229  25.110  0.00  0.00    +0.094 C 
ATOM     13  C   UNL     1      -1.433   0.644  25.557  0.00  0.00    +0.082 C 
ENDROOT
BRANCH  12  14
ATOM     14  C   UNL     1      -1.210   2.039  25.150  0.00  0.00    +0.207 A 
ATOM     15  N   UNL     1      -0.692   2.640  24.925  0.00  0.00    -0.212 NA
ATOM     16  C   UNL     1      -1.066   3.362  25.057  0.00  0.00    +0.119 A 
ATOM     17  C   UNL     1      -1.816   3.209  25.365  0.00  0.00    +0.164 A 
ATOM     18  O   UNL     1      -1.906   2.391  25.422  0.00  0.00    -0.438 OA
ATOM     19  C   UNL     1      -2.321   3.834  25.553  0.00  0.00    +0.040 A 
ATOM     20  C   UNL     1      -2.076   4.612  25.433  0.00  0.00    +0.015 A 
ATOM     21  C   UNL     1      -1.326   4.766  25.126  0.00  0.00    +0.059 A 
ATOM     22 CL   UNL     1      -1.080   5.544  25.006  0.00  0.00    -0.082 Cl
ATOM     23  C   UNL     1      -0.821   4.142  24.938  0.00  0.00    +0.034 A 
ENDBRANCH  12  14
BRANCH   9   8
ATOM      8  C   UNL     1      -1.328  -0.819  25.650  0.00  0.00    +0.099 C 
BRANCH   8   7
ATOM      4  C   UNL     1      -3.171  -2.109  24.620  0.00  0.00    +0.080 A 
ATOM      5  C   UNL     1      -3.336  -1.547  25.200  0.00  0.00    +0.006 A 
ATOM      6  C   UNL     1      -2.721  -1.116  25.544  0.00  0.00    -0.003 A 
ATOM      7  C   UNL     1      -1.942  -1.250  25.306  0.00  0.00    -0.006 A 
ATOM     24  C   UNL     1      -1.778  -1.812  24.726  0.00  0.00    -0.003 A 
ATOM     25  C   UNL     1      -2.393  -2.242  24.383  0.00  0.00    +0.006 A 
BRANCH   4   2
ATOM      1  O   UNL     1      -3.803  -3.362  24.345  0.00  0.00    -0.241 OA
ATOM      2  C   UNL     1      -3.787  -2.539  24.277  0.00  0.00    +0.388 C 
ATOM      3  O   UNL     1      -4.385  -2.148  23.867  0.00  0.00    -0.241 OA
ENDBRANCH   4   2
ENDBRANCH   8   7
ENDBRANCH   9   8
TORSDOF 4
ENDMDL
MODEL 4
REMARK VINA RESULT:     -11.7      2.002      2.635
REMARK  Name = 
REMARK  4 active torsions:
REMARK  status: ('A' for Active; 'I' for Inactive)
REMARK    1  A    between atoms: C_2  and  C_4
REMARK    2  A    between atoms: C_7  and  C_8
REMARK    3  A    between atoms: C_8  and  N_9
REMARK    4  A    between atoms: C_12  and  C_14
REMARK                            x       y       z     vdW  Elec       q    Type
REMARK                         _______ _______ _______ _____ _____    ______ ____
ROOT
ATOM      9  N   UNL     1      -0.626   1.303  25.258  0.00  0.00    -0.268 NA
ATOM     10  C   UNL     1      -0.204   0.992  24.622  0.00  0.00    +0.073 C 
ATOM     11  C   UNL     1      -0.637   0.361  24.313  0.00  0.00    +0.028 C 
ATOM     12  C   UNL     1      -1.327   0.282  24.759  0.00  0.00    +0.094 C 
ATOM     13  C   UNL     1      -1.320   0.865  25.343  0.00  0.00    +0.082 C 
ENDROOT
BRANCH  12  14
ATOM     14  C   UNL     1      -1.919  -0.280  24.641  0.00  0.00    +0.207 A 
ATOM     15  N   UNL     1      -1.848  -1.092  24.764  0.00  0.00    -0.212 NA
ATOM     16  C   UNL     1      -2.571  -1.442  24.579  0.00  0.00    +0.119 A 
ATOM     17  C   UNL     1      -3.090  -0.846  24.342  0.00  0.00    +0.164 A 
ATOM     18  O   UNL     1      -2.688  -0.128  24.380  0.00  0.00    -0.438 OA
ATOM     19  C   UNL     1      -3.863  -1.036  24.121  0.00  0.00    +0.040 A 
ATOM     20  C   UNL     1      -4.116  -1.820  24.138  0.00  0.00    +0.015 A 
ATOM     21  C   UNL     1      -3.597  -2.416  24.375  0.00  0.00    +0.059 A 
ATOM     22 CL   UNL     1      -3.850  -3.201  24.391  0.00  0.00    -0.082 Cl
ATOM     23  C   UNL     1      -2.825  -2.228  24.595  0.00  0.00    +0.034 A 
ENDBRANCH  12  14
BRANCH   9   8
ATOM      8  C   UNL     1      -0.396   1.941  25.728  0.00  0.00    +0.099 C 
BRANCH   8   7
ATOM      4  C   UNL     1      -1.321   4.195  25.296  0.00  0.00    +0.080 A 
ATOM      5  C   UNL     1      -1.675   3.705  25.857  0.00  0.00    +0.006 A 
ATOM      6  C   UNL     1      -1.367   2.953  26.001  0.00  0.00    -0.003 A 
ATOM      7  C   UNL     1      -0.704   2.693  25.583  0.00  0.00    -0.006 A 
ATOM     24  C   UNL     1      -0.350   3.183  25.022  0.00  0.00    -0.003 A 
ATOM     25  C   UNL     1      -0.659   3.935  24.879  0.00  0.00    +0.006 A 
BRANCH   4   2
ATOM      1  O   UNL     1      -2.448   5.058  25.121  0.00  0.00    -0.241 OA
ATOM      2  C   UNL     1      -1.630   4.947  25.152  0.00  0.00    +0.388 C 
ATOM      3  O   UNL     1      -1.123   5.587  25.039  0.00  0.00    -0.241 OA
ENDBRANCH   4   2
ENDBRANCH   8   7
ENDBRANCH   9   8
TORSDOF 4
ENDMDL
MODEL 5
REMARK VINA RESULT:     -10.7      1.935      2.515
REMARK  Name = 
REMARK  4 active torsions:
REMARK  status: ('A' for Active; 'I' for Inactive)
REMARK    1  A    between atoms: C_2  and  C_4
REMARK    2  A    between atoms: C_7  and  C_8
REMARK    3  A    between atoms: C_8  and  N_9
REMARK    4  A    between atoms: C_12  and  C_14
REMARK                            x       y       z     vdW  Elec       q    Type
REMARK                         _______ _______ _______ _____ _____    ______ ____
ROOT
ATOM      9  N   UNL     1      -2.262   2.145  24.642  0.00  0.00    -0.268 NA
ATOM     10  C   UNL     1      -1.540   2.011  25.017  0.00  0.00    +0.073 C 
ATOM     11  C   UNL     1      -1.434   1.195  25.083  0.00  0.00    +0.028 C 
ATOM     12  C   UNL     1      -2.092   0.825  24.749  0.00  0.00    +0.094 C 
ATOM     13  C   UNL     1      -2.604   1.412  24.476  0.00  0.00    +0.082 C 
ENDROOT
BRANCH  12  14
ATOM     14  C   UNL     1      -2.216   0.011  24.698  0.00  0.00    +0.207 A 
ATOM     15  N   UNL     1      -2.949  -0.368  24.682  0.00  0.00    -0.212 NA
ATOM     16  C   UNL     1      -2.815  -1.179  24.627  0.00  0.00    +0.119 A 
ATOM     17  C   UNL     1      -1.999  -1.302  24.609  0.00  0.00    +0.164 A 
ATOM     18  O   UNL     1      -1.629  -0.567  24.652  0.00  0.00    -0.438 OA
ATOM     19  C   UNL     1      -1.699  -2.069  24.555  0.00  0.00    +0.040 A 
ATOM     20  C   UNL     1      -2.214  -2.712  24.519  0.00  0.00    +0.015 A 
ATOM     21  C   UNL     1      -3.029  -2.589  24.538  0.00  0.00    +0.059 A 
ATOM     22 CL   UNL     1      -3.545  -3.232  24.502  0.00  0.00    -0.082 Cl
ATOM     23  C   UNL     1      -3.330  -1.823  24.591  0.00  0.00    +0.034 A 
ENDBRANCH  12  14
BRANCH   9   8
ATOM      8  C   UNL     1      -2.587   2.882  24.463  0.00  0.00    +0.099 C 
BRANCH   8   7
ATOM      4  C   UNL     1      -4.794   3.519  25.383  0.00  0.00    +0.080 A 
ATOM      5  C   UNL     1      -4.742   3.186  24.630  0.00  0.00    +0.006 A 
ATOM      6  C   UNL     1      -4.006   2.973  24.323  0.00  0.00    -0.003 A 
ATOM      7  C   UNL     1      -3.322   3.094  24.770  0.00  0.00    -0.006 A 
ATOM     24  C   UNL     1      -3.375   3.428  25.522  0.00  0.00    -0.003 A 
ATOM     25  C   UNL     1      -4.112   3.640  25.829  0.00  0.00    +0.006 A 
BRANCH   4   2
ATOM      1  O   UNL     1      -5.814   4.500  25.588  0.00  0.00    -0.241 OA
ATOM      2  C   UNL     1      -5.531   3.731  25.689  0.00  0.00    +0.388 C 
ATOM      3  O   UNL     1      -5.984   3.175  26.096  0.00  0.00    -0.241 OA
ENDBRANCH   4   2
ENDBRANCH   8   7
ENDBRANCH   9   8
TORSDOF 4
ENDMDL
MODEL 6
REMARK VINA RESULT:      -9.4      3.059      3.931
REMARK  Name = 
REMARK  4 active torsions:
REMARK  status: ('A' for Active; 'I' for Inactive)
REMARK    1  A    between atoms: C_2  and  C_4
REMARK    2  A    between atoms: C_7  and  C_8
REMARK    3  A    between atoms: C_8  and  N_9
REMARK    4  A    between atoms: C_12  and  C_14
REMARK                            x       y       z     vdW  Elec       q    Type
REMARK                         _______ _______ _______ _____ _____    ______ ____
ROOT
ATOM      9  N   UNL     1      -3.475   0.295  24.608  0.00  0.00    -0.268 NA
ATOM     10  C   UNL     1      -3.209  -0.175  25.232  0.00  0.00    +0.073 C 
ATOM     11  C   UNL     1      -2.387  -0.228  25.178  0.00  0.00    +0.028 C 
ATOM     12  C   UNL     1      -2.146   0.209  24.521  0.00  0.00    +0.094 C 
ATOM     13  C   UNL     1      -2.818   0.532  24.169  0.00  0.00    +0.082 C 
ENDROOT
BRANCH  12  14
ATOM     14  C   UNL     1      -1.368   0.306  24.263  0.00  0.00    +0.207 A 
ATOM     15  N   UNL     1      -0.938  -0.230  23.807  0.00  0.00    -0.212 NA
ATOM     16  C   UNL     1      -0.189   0.089  23.677  0.00  0.00    +0.119 A 
ATOM     17  C   UNL     1      -0.156   0.823  24.053  0.00  0.00    +0.164 A 
ATOM     18  O   UNL     1      -0.884   0.957  24.415  0.00  0.00    -0.438 OA
ATOM     19  C   UNL     1       0.535   1.273  24.017  0.00  0.00    +0.040 A 
ATOM     20  C   UNL     1       1.191   0.991  23.606  0.00  0.00    +0.015 A 
ATOM     21  C   UNL     1       1.157   0.257  23.229  0.00  0.00    +0.059 A 
ATOM     22 CL   UNL     1       1.813  -0.026  22.817  0.00  0.00    -0.082 Cl
ATOM     23  C   UNL     1       0.468  -0.194  23.265  0.00  0.00    +0.034 A 
ENDBRANCH  12  14
BRANCH   9   8
ATOM      8  C   UNL     1      -4.260   0.492  24.450  0.00  0.00    +0.099 C 
BRANCH   8   7
ATOM      4  C   UNL     1      -5.178   2.648  25.245  0.00  0.00    +0.080 A 
ATOM      5  C   UNL     1      -5.330   1.956  25.665  0.00  0.00    +0.006 A 
ATOM      6  C   UNL     1      -5.024   1.236  25.401  0.00  0.00    -0.003 A 
ATOM      7  C   UNL     1      -4.566   1.211  24.714  0.00  0.00    -0.006 A 
ATOM     24  C   UNL     1      -4.414   1.904  24.294  0.00  0.00    -0.003 A 
ATOM     25  C   UNL     1      -4.721   2.623  24.559  0.00  0.00    +0.006 A 
BRANCH   4   2
ATOM      1  O   UNL     1      -5.025   4.052  25.471  0.00  0.00    -0.241 OA
ATOM      2  C   UNL     1      -5.485   3.367  25.510  0.00  0.00    +0.388 C 
ATOM      3  O   UNL     1      -6.250   3.402  25.814  0.00  0.00    -0.241 OA
ENDBRANCH   4   2
ENDBRANCH   8   7
ENDBRANCH   9   8
TORSDOF 4
ENDMDL
