MODEL 1
REMARK VINA RESULT:     -11.0      0.000      0.000
REMARK  Name = 
REMARK  4 active torsions:
REMARK  status: ('A' for Active; 'I' for Inactive)
REMARK    1  A    between atoms: C_3  and  C_4
REMARK    2  A    between atoms: C_6  and  C_11
REMARK    3  A    between atoms: C_14  and  N_15
REMARK    4  A    between atoms: C_16  and  C_18
REMARK                            x       y       z     vdW  Elec       q    Type
REMARK                         _______ _______ _______ _____ _____    ______ ____
ROOT
ATOM     11  C   UNL     1      -2.382   2.093  24.797  0.00  0.00    +0.006 A 
ATOM     12  C   UNL     1      -2.831   1.900  24.133  0.00  0.00    -0.001 A 
ATOM     13  C   UNL     1      -2.996   1.109  23.963  0.00  0.00    +0.016 A 
ATOM     14  C   UNL     1      -2.711   0.513  24.457  0.00  0.00    +0.073 A 
ATOM     23  C   UNL     1      -2.263   0.707  25.122  0.00  0.00    +0.016 A 
ATOM     24  C   UNL     1      -2.098   1.498  25.292  0.00  0.00    -0.001 A 
ENDROOT
BRANCH  11   6
ATOM      1  C   UNL     1      -0.590   4.319  24.727  0.00  0.00    +0.115 C 
ATOM      2  N   UNL     1      -1.322   3.997  24.932  0.00  0.00    -0.272 N 
ATOM      3  C   UNL     1      -1.486   3.207  24.762  0.00  0.00    +0.140 C 
ATOM      6  C   UNL     1      -2.218   2.884  24.968  0.00  0.00    +0.159 C 
ATOM      7  O   UNL     1      -2.784   3.352  25.343  0.00  0.00    -0.341 OA
ATOM      8  C   UNL     1      -2.619   4.142  25.513  0.00  0.00    +0.227 C 
ATOM      9  C   UNL     1      -1.889   4.464  25.308  0.00  0.00    +0.256 C 
ATOM     10  O   UNL     1      -1.724   5.255  25.478  0.00  0.00    -0.272 OA
BRANCH   3   4
ATOM      4  C   UNL     1      -0.919   2.738  24.387  0.00  0.00    +0.205 C 
ATOM      5  O   UNL     1      -0.292   3.093  23.984  0.00  0.00    -0.218 OA
ENDBRANCH   3   4
ENDBRANCH  11   6
BRANCH  14  15
ATOM     15  N   UNL     1      -2.876  -0.278  24.287  0.00  0.00    -0.179 NA
ATOM     16  C   UNL     1      -3.523  -0.649  24.640  0.00  0.00    +0.245 C 
ATOM     17  O   UNL     1      -4.006  -0.231  25.162  0.00  0.00    -0.273 OA
BRANCH  16  18
ATOM     18  C   UNL     1      -3.687  -1.439  24.470  0.00  0.00    +0.079 C 
ATOM     19  C   UNL     1      -4.206  -1.713  23.890  0.00  0.00    +0.009 C 
ATOM     20  C   UNL     1      -4.201  -2.538  23.912  0.00  0.00    +0.001 C 
ATOM     21  C   UNL     1      -3.679  -2.774  24.504  0.00  0.00    +0.001 C 
ATOM     22  C   UNL     1      -3.361  -2.095  24.849  0.00  0.00    +0.009 C 
ENDBRANCH  16  18
ENDBRANCH  14  15
TORSDOF 4
ENDMDL
MODEL 2
REMARK VINA RESULT:     -10.7      1.149      5.143
REMARK  Name = 
REMARK  4 active torsions:
REMARK  status: ('A' for Active; 'I' for Inactive)
REMARK    1  A    between atoms: C_3  and  C_4
REMARK    2  A    between atoms: C_6  and  C_11
REMARK    3  A    between atoms: C_14  and  N_15
REMARK    4  A    between atoms: C_16  and  C_18
REMARK                            x       y       z     vdW  Elec       q    Type
REMARK                         _______ _______ _______ _____ _____    ______ ____
ROOT
ATOM     11  C   UNL     1      -3.151   0.425  24.340  0.00  0.00    +0.006 A 
ATOM     12  C   UNL     1      -2.617   0.743  23.797  0.00  0.00    -0.001 A 
ATOM     13  C   UNL     1      -2.400   1.538  23.850  0.00  0.00    +0.016 A 
ATOM     14  C   UNL     1      -2.718   2.014  24.445  0.00  0.00    +0.073 A 
ATOM     23  C   UNL     1      -3.251   1.694  24.987  0.00  0.00    +0.016 A 
ATOM     24  C   UNL     1      -3.468   0.900  24.934  0.00  0.00    -0.001 A 
ENDROOT
BRANCH  11   6
ATOM      1  C   UNL     1      -2.559  -2.337  24.777  0.00  0.00    +0.115 C 
ATOM      2  N   UNL     1      -3.072  -1.750  24.506  0.00  0.00    -0.272 N 
ATOM      3  C   UNL     1      -2.855  -0.956  24.558  0.00  0.00    +0.140 C 
ATOM      6  C   UNL     1      -3.368  -0.369  24.287  0.00  0.00    +0.159 C 
ATOM      7  O   UNL     1      -4.098  -0.577  23.963  0.00  0.00    -0.341 OA
ATOM      8  C   UNL     1      -4.315  -1.371  23.910  0.00  0.00    +0.227 C 
ATOM      9  C   UNL     1      -3.802  -1.957  24.181  0.00  0.00    +0.256 C 
ATOM     10  O   UNL     1      -4.019  -2.752  24.128  0.00  0.00    -0.272 OA
BRANCH   3   4
ATOM      4  C   UNL     1      -2.125  -0.748  24.883  0.00  0.00    +0.205 C 
ATOM      5  O   UNL     1      -1.767  -1.239  25.440  0.00  0.00    -0.218 OA
ENDBRANCH   3   4
ENDBRANCH  11   6
BRANCH  14  15
ATOM     15  N   UNL     1      -2.501   2.808  24.498  0.00  0.00    -0.179 NA
ATOM     16  C   UNL     1      -1.886   3.035  25.000  0.00  0.00    +0.245 C 
ATOM     17  O   UNL     1      -1.488   2.468  25.449  0.00  0.00    -0.273 OA
BRANCH  16  18
ATOM     18  C   UNL     1      -1.669   3.829  25.053  0.00  0.00    +0.079 C 
ATOM     19  C   UNL     1      -0.938   4.147  24.843  0.00  0.00    +0.009 C 
ATOM     20  C   UNL     1      -0.962   4.959  24.985  0.00  0.00    +0.001 C 
ATOM     21  C   UNL     1      -1.708   5.143  25.283  0.00  0.00    +0.001 C 
ATOM     22  C   UNL     1      -2.145   4.445  25.325  0.00  0.00    +0.009 C 
ENDBRANCH  16  18
ENDBRANCH  14  15
TORSDOF 4
ENDMDL
MODEL 3
REMARK VINA RESULT:      -9.7      2.044      2.450
REMARK  Name = 
REMARK  4 active torsions:
REMARK  status: ('A' for Active; 'I' for Inactive)
REMARK    1  A    between atoms: C_3  and  C_4
REMARK    2  A    between atoms: C_6  and  C_11
REMARK    3  A    between atoms: C_14  and  N_15
REMARK    4  A    between atoms: C_16  and  C_18
REMARK                            x       y       z     vdW  Elec       q    Type
REMARK                         _______ _______ _______ _____ _____    ______ ____
ROOT
ATOM     11  C   UNL     1      -4.376   1.442  24.962  0.00  0.00    +0.006 A 
ATOM     12  C   UNL     1      -4.832   0.890  24.552  0.00  0.00    -0.001 A 
ATOM     13  C   UNL     1      -4.508   0.158  24.348  0.00  0.00    +0.016 A 
ATOM     14  C   UNL     1      -3.729  -0.021  24.555  0.00  0.00    +0.073 A 
ATOM     23  C   UNL     1      -3.275   0.532  24.966  0.00  0.00    +0.016 A 
ATOM     24  C   UNL     1      -3.599   1.264  25.169  0.00  0.00    -0.001 A 
ENDROOT
BRANCH  11   6
ATOM      1  C   UNL     1      -4.523   4.272  24.593  0.00  0.00    +0.115 C 
ATOM      2  N   UNL     1      -4.773   3.589  24.981  0.00  0.00    -0.272 N 
ATOM      3  C   UNL     1      -4.450   2.858  24.777  0.00  0.00    +0.140 C 
ATOM      6  C   UNL     1      -4.700   2.173  25.165  0.00  0.00    +0.159 C 
ATOM      7  O   UNL     1      -5.273   2.221  25.756  0.00  0.00    -0.341 OA
ATOM      8  C   UNL     1      -5.597   2.952  25.960  0.00  0.00    +0.227 C 
ATOM      9  C   UNL     1      -5.347   3.635  25.572  0.00  0.00    +0.256 C 
ATOM     10  O   UNL     1      -5.670   4.367  25.775  0.00  0.00    -0.272 OA
BRANCH   3   4
ATOM      4  C   UNL     1      -3.876   2.810  24.186  0.00  0.00    +0.205 C 
ATOM      5  O   UNL     1      -3.882   3.348  23.560  0.00  0.00    -0.218 OA
ENDBRANCH   3   4
ENDBRANCH  11   6
BRANCH  14  15
ATOM     15  N   UNL     1      -3.406  -0.752  24.352  0.00  0.00    -0.179 NA
ATOM     16  C   UNL     1      -3.406  -1.369  24.900  0.00  0.00    +0.245 C 
ATOM     17  O   UNL     1      -3.729  -1.256  25.651  0.00  0.00    -0.273 OA
BRANCH  16  18
ATOM     18  C   UNL     1      -3.082  -2.100  24.696  0.00  0.00    +0.079 C 
ATOM     19  C   UNL     1      -2.279  -2.273  24.629  0.00  0.00    +0.009 C 
ATOM     20  C   UNL     1      -2.206  -3.067  24.415  0.00  0.00    +0.001 C 
ATOM     21  C   UNL     1      -2.963  -3.384  24.351  0.00  0.00    +0.001 C 
ATOM     22  C   UNL     1      -3.506  -2.787  24.525  0.00  0.00    +0.009 C 
ENDBRANCH  16  18
ENDBRANCH  14  15
TORSDOF 4
ENDMDL
