MODEL 1
REMARK VINA RESULT:     -11.6      0.000      0.000
REMARK  Name = 
REMARK  4 active torsions:
REMARK  status: ('A' for Active; 'I' for Inactive)
REMARK    1  A    between atoms: C_2  and  C_3
REMARK    2  A    between atoms: C_10  and  C_12
REMARK    3  A    between atoms: N_15  and  C_16
REMARK    4  A    between atoms: C_16  and  C_17
REMARK                            x       y       z     vdW  Elec       q    Type
REMARK                         _______ _______ _______ _____ _____    ______ ____
ROOT
ATOM     12  C   UNL     1      -1.703   0.246  25.433  0.00  0.00    +0.076 C 
ATOM     13  C   UNL     1      -1.223  -0.411  25.296  0.00  0.00    +0.026 C 
ATOM     14  C   UNL     1      -1.690  -1.088  25.361  0.00  0.00    +0.073 C 
ATOM     15  N   UNL     1      -2.459  -0.850  25.540  0.00  0.00    -0.272 NA
ATOM     23  C   UNL     1      -2.468  -0.026  25.584  0.00  0.00    +0.080 C 
ENDROOT
BRANCH  12  10
ATOM      3  C   UNL     1      -1.054   3.729  25.277  0.00  0.00    +0.070 A 
ATOM      4  C   UNL     1      -1.643   3.161  25.178  0.00  0.00    +0.031 A 
ATOM      5  C   UNL     1      -1.472   2.363  25.296  0.00  0.00    +0.101 A 
ATOM      6  C   UNL     1      -0.710   2.133  25.514  0.00  0.00    +0.100 A 
ATOM      7  C   UNL     1      -0.120   2.701  25.613  0.00  0.00    +0.021 A 
ATOM      8  C   UNL     1      -0.292   3.499  25.495  0.00  0.00    +0.012 A 
ATOM      9  N   UNL     1      -0.704   1.312  25.592  0.00  0.00    -0.229 NA
ATOM     10  C   UNL     1      -1.462   1.034  25.422  0.00  0.00    +0.140 A 
ATOM     11  N   UNL     1      -1.936   1.684  25.240  0.00  0.00    -0.229 NA
BRANCH   3   2
ATOM      1  N   UNL     1      -1.398   5.326  25.040  0.00  0.00    -0.191 NA
ATOM      2  C   UNL     1      -1.226   4.527  25.158  0.00  0.00    +0.100 C 
ENDBRANCH   3   2
ENDBRANCH  12  10
BRANCH  15  16
ATOM     16  C   UNL     1      -3.107  -1.348  25.653  0.00  0.00    +0.072 C 
BRANCH  16  17
ATOM     17  C   UNL     1      -3.475  -1.702  25.005  0.00  0.00    +0.016 C 
ATOM     18  C   UNL     1      -4.001  -1.268  24.540  0.00  0.00    +0.001 C 
ATOM     19  C   UNL     1      -4.368  -1.623  23.893  0.00  0.00    +0.000 C 
ATOM     20  C   UNL     1      -4.210  -2.411  23.709  0.00  0.00    +0.000 C 
ATOM     21  C   UNL     1      -3.683  -2.845  24.173  0.00  0.00    +0.000 C 
ATOM     22  C   UNL     1      -3.316  -2.491  24.822  0.00  0.00    +0.001 C 
ENDBRANCH  16  17
ENDBRANCH  15  16
TORSDOF 4
ENDMDL
MODEL 2
REMARK VINA RESULT:     -11.5      1.503      1.898
REMARK  Name = 
REMARK  4 active torsions:
REMARK  status: ('A' for Active; 'I' for Inactive)
REMARK    1  A    between atoms: C_2  and  C_3
REMARK    2  A    between atoms: C_10  and  C_12
REMARK    3  A    between atoms: N_15  and  C_16
REMARK    4  A    between atoms: C_16  and  C_17
REMARK                            x       y       z     vdW  Elec       q    Type
REMARK                         _______ _______ _______ _____ _____    ______ ____
ROOT
ATOM     12  C   UNL     1      -3.385   1.274  24.334  0.00  0.00    +0.076 C 
ATOM     13  C   UNL     1      -3.311   0.947  23.580  0.00  0.00    +0.026 C 
ATOM     14  C   UNL     1      -3.694   0.217  23.578  0.00  0.00    +0.073 C 
ATOM     15  N   UNL     1      -4.006   0.091  24.331  0.00  0.00    -0.272 NA
ATOM     23  C   UNL     1      -3.815   0.744  24.798  0.00  0.00    +0.080 C 
ENDROOT
BRANCH  12  10
ATOM      3  C   UNL     1      -1.788   4.344  25.112  0.00  0.00    +0.070 A 
ATOM      4  C   UNL     1      -1.742   3.678  24.627  0.00  0.00    +0.031 A 
ATOM      5  C   UNL     1      -2.311   3.084  24.686  0.00  0.00    +0.101 A 
ATOM      6  C   UNL     1      -2.927   3.155  25.230  0.00  0.00    +0.100 A 
ATOM      7  C   UNL     1      -2.974   3.822  25.715  0.00  0.00    +0.021 A 
ATOM      8  C   UNL     1      -2.404   4.415  25.656  0.00  0.00    +0.012 A 
ATOM      9  N   UNL     1      -3.404   2.486  25.164  0.00  0.00    -0.229 NA
ATOM     10  C   UNL     1      -3.084   2.001  24.580  0.00  0.00    +0.140 A 
ATOM     11  N   UNL     1      -2.408   2.370  24.284  0.00  0.00    -0.229 NA
BRANCH   3   2
ATOM      1  N   UNL     1      -0.649   5.532  24.994  0.00  0.00    -0.191 NA
ATOM      2  C   UNL     1      -1.219   4.937  25.053  0.00  0.00    +0.100 C 
ENDBRANCH   3   2
ENDBRANCH  12  10
BRANCH  15  16
ATOM     16  C   UNL     1      -4.433  -0.571  24.575  0.00  0.00    +0.072 C 
BRANCH  16  17
ATOM     17  C   UNL     1      -4.059  -1.304  24.637  0.00  0.00    +0.016 C 
ATOM     18  C   UNL     1      -3.632  -1.494  25.318  0.00  0.00    +0.001 C 
ATOM     19  C   UNL     1      -3.259  -2.227  25.379  0.00  0.00    +0.000 C 
ATOM     20  C   UNL     1      -3.312  -2.770  24.761  0.00  0.00    +0.000 C 
ATOM     21  C   UNL     1      -3.739  -2.580  24.080  0.00  0.00    +0.000 C 
ATOM     22  C   UNL     1      -4.112  -1.847  24.018  0.00  0.00    +0.001 C 
ENDBRANCH  16  17
ENDBRANCH  15  16
TORSDOF 4
ENDMDL
MODEL 3
REMARK VINA RESULT:     -11.5      1.474      5.529
REMARK  Name = 
REMARK  4 active torsions:
REMARK  status: ('A' for Active; 'I' for Inactive)
REMARK    1  A    between atoms: C_2  and  C_3
REMARK    2  A    between atoms: C_10  and  C_12
REMARK    3  A    between atoms: N_15  and  C_16
REMARK    4  A    between atoms: C_16  and  C_17
REMARK                            x       y       z     vdW  Elec       q    Type
REMARK                         _______ _______ _______ _____ _____    ______ ____
ROOT
ATOM     12  C   UNL     1      -3.517   1.970  24.811  0.00  0.00    +0.076 C 
ATOM     13  C   UNL     1      -3.860   2.560  24.348  0.00  0.00    +0.026 C 
ATOM     14  C   UNL     1      -3.617   3.291  24.644  0.00  0.00    +0.073 C 
ATOM     15  N   UNL     1      -3.123   3.152  25.290  0.00  0.00    -0.272 NA
ATOM     23  C   UNL     1      -3.061   2.335  25.393  0.00  0.00    +0.080 C 
ENDROOT
BRANCH  12  10
ATOM      3  C   UNL     1      -3.655  -1.572  24.680  0.00  0.00    +0.070 A 
ATOM      4  C   UNL     1      -3.301  -0.939  25.070  0.00  0.00    +0.031 A 
ATOM      5  C   UNL     1      -3.489  -0.164  24.856  0.00  0.00    +0.101 A 
ATOM      6  C   UNL     1      -4.032  -0.024  24.250  0.00  0.00    +0.100 A 
ATOM      7  C   UNL     1      -4.387  -0.659  23.859  0.00  0.00    +0.021 A 
ATOM      8  C   UNL     1      -4.198  -1.433  24.074  0.00  0.00    +0.012 A 
ATOM      9  N   UNL     1      -4.108   0.792  24.160  0.00  0.00    -0.229 NA
ATOM     10  C   UNL     1      -3.613   1.157  24.709  0.00  0.00    +0.140 A 
ATOM     11  N   UNL     1      -3.231   0.566  25.139  0.00  0.00    -0.229 NA
BRANCH   3   2
ATOM      1  N   UNL     1      -3.280  -3.121  25.109  0.00  0.00    -0.191 NA
ATOM      2  C   UNL     1      -3.468  -2.346  24.894  0.00  0.00    +0.100 C 
ENDBRANCH   3   2
ENDBRANCH  12  10
BRANCH  15  16
ATOM     16  C   UNL     1      -2.755   3.727  25.752  0.00  0.00    +0.072 C 
BRANCH  16  17
ATOM     17  C   UNL     1      -2.072   4.103  25.478  0.00  0.00    +0.016 C 
ATOM     18  C   UNL     1      -2.108   4.885  25.217  0.00  0.00    +0.001 C 
ATOM     19  C   UNL     1      -1.426   5.260  24.943  0.00  0.00    +0.000 C 
ATOM     20  C   UNL     1      -0.709   4.854  24.930  0.00  0.00    +0.000 C 
ATOM     21  C   UNL     1      -0.673   4.071  25.191  0.00  0.00    +0.000 C 
ATOM     22  C   UNL     1      -1.355   3.696  25.465  0.00  0.00    +0.001 C 
ENDBRANCH  16  17
ENDBRANCH  15  16
TORSDOF 4
ENDMDL
MODEL 4
REMARK VINA RESULT:     -11.3      1.110      5.333
REMARK  Name = 
REMARK  4 active torsions:
REMARK  status: ('A' for Active; 'I' for Inactive)
REMARK    1  A    between atoms: C_2  and  C_3
REMARK    2  A    between atoms: C_10  and  C_12
REMARK    3  A    between atoms: N_15  and  C_16
REMARK    4  A    between atoms: C_16  and  C_17
REMARK                            x       y       z     vdW  Elec       q    Type
REMARK                         _______ _______ _______ _____ _____    ______ ____
ROOT
ATOM     12  C   UNL     1      -1.510   1.177  24.752  0.00  0.00    +0.076 C 
ATOM     13  C   UNL     1      -0.834   1.325  24.303  0.00  0.00    +0.026 C 
ATOM     14  C   UNL     1      -0.466   1.998  24.609  0.00  0.00    +0.073 C 
ATOM     15  N   UNL     1      -0.915   2.265  25.247  0.00  0.00    -0.272 NA
ATOM     23  C   UNL     1      -1.560   1.758  25.336  0.00  0.00    +0.080 C 
ENDROOT
BRANCH  12  10
ATOM      3  C   UNL     1      -3.489  -1.743  24.376  0.00  0.00    +0.070 A 
ATOM      4  C   UNL     1      -2.738  -1.476  24.586  0.00  0.00    +0.031 A 
ATOM      5  C   UNL     1      -2.568  -0.668  24.574  0.00  0.00    +0.101 A 
ATOM      6  C   UNL     1      -3.150  -0.128  24.352  0.00  0.00    +0.100 A 
ATOM      7  C   UNL     1      -3.903  -0.395  24.141  0.00  0.00    +0.021 A 
ATOM      8  C   UNL     1      -4.071  -1.202  24.154  0.00  0.00    +0.012 A 
ATOM      9  N   UNL     1      -2.825   0.629  24.391  0.00  0.00    -0.229 NA
ATOM     10  C   UNL     1      -2.041   0.557  24.638  0.00  0.00    +0.140 A 
ATOM     11  N   UNL     1      -1.883  -0.245  24.751  0.00  0.00    -0.229 NA
BRANCH   3   2
ATOM      1  N   UNL     1      -3.827  -3.357  24.400  0.00  0.00    -0.191 NA
ATOM      2  C   UNL     1      -3.658  -2.549  24.388  0.00  0.00    +0.100 C 
ENDBRANCH   3   2
ENDBRANCH  12  10
BRANCH  15  16
ATOM     16  C   UNL     1      -0.750   2.924  25.714  0.00  0.00    +0.072 C 
BRANCH  16  17
ATOM     17  C   UNL     1      -1.061   3.662  25.515  0.00  0.00    +0.016 C 
ATOM     18  C   UNL     1      -1.812   3.878  25.780  0.00  0.00    +0.001 C 
ATOM     19  C   UNL     1      -2.123   4.616  25.580  0.00  0.00    +0.000 C 
ATOM     20  C   UNL     1      -1.685   5.137  25.115  0.00  0.00    +0.000 C 
ATOM     21  C   UNL     1      -0.934   4.920  24.849  0.00  0.00    +0.000 C 
ATOM     22  C   UNL     1      -0.622   4.182  25.049  0.00  0.00    +0.001 C 
ENDBRANCH  16  17
ENDBRANCH  15  16
TORSDOF 4
ENDMDL
