MODEL 1
REMARK VINA RESULT:     -14.0      0.000      0.000
REMARK  Name = 
REMARK  3 active torsions:
REMARK  status: ('A' for Active; 'I' for Inactive)
REMARK    1  A    between atoms: S_2  and  N_4
REMARK    2  A    between atoms: S_2  and  C_18
REMARK    3  A    between atoms: C_7  and  C_9
REMARK                            x       y       z     vdW  Elec       q    Type
REMARK                         _______ _______ _______ _____ _____    ______ ____
ROOT
ATOM      4  N   UNL     1      -3.690   0.746  24.579  0.00  0.00    -0.155 NA
ATOM      5  C   UNL     1      -4.356   1.228  24.644  0.00  0.00    +0.096 C 
ATOM      6  C   UNL     1      -4.100   2.005  24.751  0.00  0.00    +0.028 C 
ATOM      7  C   UNL     1      -3.276   2.004  24.751  0.00  0.00    +0.078 C 
ATOM      8  C   UNL     1      -3.022   1.226  24.644  0.00  0.00    +0.103 C 
ENDROOT
BRANCH   7   9
ATOM      9  C   UNL     1      -2.790   2.664  24.842  0.00  0.00    +0.140 A 
ATOM     10  N   UNL     1      -3.016   3.394  25.153  0.00  0.00    -0.229 NA
ATOM     11  C   UNL     1      -2.357   3.891  25.140  0.00  0.00    +0.100 A 
ATOM     12  C   UNL     1      -1.726   3.469  24.821  0.00  0.00    +0.100 A 
ATOM     13  N   UNL     1      -1.992   2.710  24.636  0.00  0.00    -0.229 NA
ATOM     14  C   UNL     1      -0.987   3.830  24.740  0.00  0.00    +0.021 A 
ATOM     15  C   UNL     1      -0.882   4.613  24.978  0.00  0.00    +0.002 A 
ATOM     16  C   UNL     1      -1.515   5.035  25.297  0.00  0.00    +0.002 A 
ATOM     17  C   UNL     1      -2.253   4.674  25.379  0.00  0.00    +0.021 A 
ENDBRANCH   7   9
BRANCH   4   2
ATOM      1  O   UNL     1      -3.890  -0.180  25.260  0.00  0.00    -0.153 OA
ATOM      2  S   UNL     1      -3.691  -0.071  24.467  0.00  0.00    +0.065 S 
ATOM      3  O   UNL     1      -3.491   0.037  23.673  0.00  0.00    -0.153 OA
BRANCH   2  18
ATOM     18  C   UNL     1      -3.692  -0.889  24.355  0.00  0.00    +0.140 A 
ATOM     19  C   UNL     1      -4.377  -1.267  24.092  0.00  0.00    +0.021 A 
ATOM     20  C   UNL     1      -4.378  -2.086  23.980  0.00  0.00    +0.001 A 
ATOM     21  C   UNL     1      -3.694  -2.523  24.130  0.00  0.00    +0.002 A 
ATOM     22  C   UNL     1      -3.010  -2.144  24.393  0.00  0.00    +0.019 A 
ATOM     23  C   UNL     1      -3.009  -1.326  24.505  0.00  0.00    +0.100 A 
ATOM     24  N   UNL     1      -2.325  -0.947  24.767  0.00  0.00    -0.242 NA
ATOM     25  C   UNL     1      -1.643  -1.384  24.917  0.00  0.00    +0.099 A 
ATOM     26  C   UNL     1      -1.644  -2.203  24.805  0.00  0.00    +0.021 A 
ATOM     27  C   UNL     1      -2.327  -2.582  24.543  0.00  0.00    +0.003 A 
ENDBRANCH   2  18
ENDBRANCH   4   2
TORSDOF 3
ENDMDL
MODEL 2
REMARK VINA RESULT:     -13.8      1.301      5.079
REMARK  Name = 
REMARK  3 active torsions:
REMARK  status: ('A' for Active; 'I' for Inactive)
REMARK    1  A    between atoms: S_2  and  N_4
REMARK    2  A    between atoms: S_2  and  C_18
REMARK    3  A    between atoms: C_7  and  C_9
REMARK                            x       y       z     vdW  Elec       q    Type
REMARK                         _______ _______ _______ _____ _____    ______ ____
ROOT
ATOM      4  N   UNL     1      -3.519   2.088  24.873  0.00  0.00    -0.155 NA
ATOM      5  C   UNL     1      -4.331   2.065  24.731  0.00  0.00    +0.096 C 
ATOM      6  C   UNL     1      -4.552   1.276  24.635  0.00  0.00    +0.028 C 
ATOM      7  C   UNL     1      -3.877   0.811  24.718  0.00  0.00    +0.078 C 
ATOM      8  C   UNL     1      -3.238   1.313  24.865  0.00  0.00    +0.103 C 
ENDROOT
BRANCH   7   9
ATOM      9  C   UNL     1      -3.845  -0.011  24.664  0.00  0.00    +0.140 A 
ATOM     10  N   UNL     1      -4.129  -0.468  24.038  0.00  0.00    -0.229 NA
ATOM     11  C   UNL     1      -3.982  -1.261  24.214  0.00  0.00    +0.100 A 
ATOM     12  C   UNL     1      -3.607  -1.294  24.947  0.00  0.00    +0.100 A 
ATOM     13  N   UNL     1      -3.522  -0.522  25.226  0.00  0.00    -0.229 NA
ATOM     14  C   UNL     1      -3.391  -2.023  25.268  0.00  0.00    +0.021 A 
ATOM     15  C   UNL     1      -3.551  -2.719  24.854  0.00  0.00    +0.002 A 
ATOM     16  C   UNL     1      -3.926  -2.686  24.121  0.00  0.00    +0.002 A 
ATOM     17  C   UNL     1      -4.142  -1.956  23.800  0.00  0.00    +0.021 A 
ENDBRANCH   7   9
BRANCH   4   2
ATOM      1  O   UNL     1      -2.824   2.467  25.730  0.00  0.00    -0.153 OA
ATOM      2  S   UNL     1      -3.068   2.766  25.000  0.00  0.00    +0.065 S 
ATOM      3  O   UNL     1      -3.311   3.066  24.271  0.00  0.00    -0.153 OA
BRANCH   2  18
ATOM     18  C   UNL     1      -2.616   3.445  25.128  0.00  0.00    +0.140 A 
ATOM     19  C   UNL     1      -2.945   4.091  25.522  0.00  0.00    +0.021 A 
ATOM     20  C   UNL     1      -2.493   4.770  25.649  0.00  0.00    +0.001 A 
ATOM     21  C   UNL     1      -1.713   4.802  25.383  0.00  0.00    +0.002 A 
ATOM     22  C   UNL     1      -1.384   4.156  24.989  0.00  0.00    +0.019 A 
ATOM     23  C   UNL     1      -1.836   3.477  24.861  0.00  0.00    +0.100 A 
ATOM     24  N   UNL     1      -1.507   2.831  24.467  0.00  0.00    -0.242 NA
ATOM     25  C   UNL     1      -0.728   2.863  24.201  0.00  0.00    +0.099 A 
ATOM     26  C   UNL     1      -0.276   3.543  24.329  0.00  0.00    +0.021 A 
ATOM     27  C   UNL     1      -0.604   4.188  24.722  0.00  0.00    +0.003 A 
ENDBRANCH   2  18
ENDBRANCH   4   2
TORSDOF 3
ENDMDL
MODEL 3
REMARK VINA RESULT:     -13.4      1.238      2.088
REMARK  Name = 
REMARK  3 active torsions:
REMARK  status: ('A' for Active; 'I' for Inactive)
REMARK    1  A    between atoms: S_2  and  N_4
REMARK    2  A    between atoms: S_2  and  C_18
REMARK    3  A    between atoms: C_7  and  C_9
REMARK                            x       y       z     vdW  Elec       q    Type
REMARK                         _______ _______ _______ _____ _____    ______ ____
ROOT
ATOM      4  N   UNL     1      -1.409   0.365  25.256  0.00  0.00    -0.155 NA
ATOM      5  C   UNL     1      -0.741   0.463  25.729  0.00  0.00    +0.096 C 
ATOM      6  C   UNL     1      -0.606   1.273  25.814  0.00  0.00    +0.028 C 
ATOM      7  C   UNL     1      -1.191   1.674  25.395  0.00  0.00    +0.078 C 
ATOM      8  C   UNL     1      -1.688   1.113  25.050  0.00  0.00    +0.103 C 
ENDROOT
BRANCH   7   9
ATOM      9  C   UNL     1      -1.266   2.493  25.331  0.00  0.00    +0.140 A 
ATOM     10  N   UNL     1      -0.698   3.011  25.033  0.00  0.00    -0.229 NA
ATOM     11  C   UNL     1      -1.005   3.776  25.072  0.00  0.00    +0.100 A 
ATOM     12  C   UNL     1      -1.762   3.731  25.394  0.00  0.00    +0.100 A 
ATOM     13  N   UNL     1      -1.925   2.938  25.554  0.00  0.00    -0.229 NA
ATOM     14  C   UNL     1      -2.208   4.417  25.500  0.00  0.00    +0.021 A 
ATOM     15  C   UNL     1      -1.894   5.150  25.284  0.00  0.00    +0.002 A 
ATOM     16  C   UNL     1      -1.136   5.195  24.962  0.00  0.00    +0.002 A 
ATOM     17  C   UNL     1      -0.691   4.508  24.856  0.00  0.00    +0.021 A 
ENDBRANCH   7   9
BRANCH   4   2
ATOM      1  O   UNL     1      -1.514  -0.216  24.249  0.00  0.00    -0.153 OA
ATOM      2  S   UNL     1      -1.741  -0.356  25.030  0.00  0.00    +0.065 S 
ATOM      3  O   UNL     1      -1.969  -0.496  25.810  0.00  0.00    -0.153 OA
BRANCH   2  18
ATOM     18  C   UNL     1      -2.073  -1.076  24.803  0.00  0.00    +0.140 A 
ATOM     19  C   UNL     1      -1.609  -1.759  24.792  0.00  0.00    +0.021 A 
ATOM     20  C   UNL     1      -1.941  -2.480  24.565  0.00  0.00    +0.001 A 
ATOM     21  C   UNL     1      -2.737  -2.517  24.350  0.00  0.00    +0.002 A 
ATOM     22  C   UNL     1      -3.202  -1.835  24.362  0.00  0.00    +0.019 A 
ATOM     23  C   UNL     1      -2.869  -1.114  24.588  0.00  0.00    +0.100 A 
ATOM     24  N   UNL     1      -3.333  -0.432  24.600  0.00  0.00    -0.242 NA
ATOM     25  C   UNL     1      -4.128  -0.470  24.385  0.00  0.00    +0.099 A 
ATOM     26  C   UNL     1      -4.460  -1.192  24.159  0.00  0.00    +0.021 A 
ATOM     27  C   UNL     1      -3.997  -1.873  24.147  0.00  0.00    +0.003 A 
ENDBRANCH   2  18
ENDBRANCH   4   2
TORSDOF 3
ENDMDL
MODEL 4
REMARK VINA RESULT:     -13.3      1.479      5.395
REMARK  Name = 
REMARK  3 active torsions:
REMARK  status: ('A' for Active; 'I' for Inactive)
REMARK    1  A    between atoms: S_2  and  N_4
REMARK    2  A    between atoms: S_2  and  C_18
REMARK    3  A    between atoms: C_7  and  C_9
REMARK                            x       y       z     vdW  Elec       q    Type
REMARK                         _______ _______ _______ _____ _____    ______ ____
ROOT
ATOM      4  N   UNL     1      -1.404   1.412  25.194  0.00  0.00    -0.155 NA
ATOM      5  C   UNL     1      -0.893   0.884  25.567  0.00  0.00    +0.096 C 
ATOM      6  C   UNL     1      -1.203   0.124  25.480  0.00  0.00    +0.028 C 
ATOM      7  C   UNL     1      -1.906   0.183  25.054  0.00  0.00    +0.078 C 
ATOM      8  C   UNL     1      -2.031   0.979  24.877  0.00  0.00    +0.103 C 
ENDROOT
BRANCH   7   9
ATOM      9  C   UNL     1      -2.398  -0.444  24.842  0.00  0.00    +0.140 A 
ATOM     10  N   UNL     1      -2.281  -1.239  25.030  0.00  0.00    -0.229 NA
ATOM     11  C   UNL     1      -2.905  -1.672  24.709  0.00  0.00    +0.100 A 
ATOM     12  C   UNL     1      -3.408  -1.145  24.323  0.00  0.00    +0.100 A 
ATOM     13  N   UNL     1      -3.096  -0.386  24.405  0.00  0.00    -0.229 NA
ATOM     14  C   UNL     1      -4.087  -1.424  23.946  0.00  0.00    +0.021 A 
ATOM     15  C   UNL     1      -4.263  -2.231  23.955  0.00  0.00    +0.002 A 
ATOM     16  C   UNL     1      -3.759  -2.757  24.341  0.00  0.00    +0.002 A 
ATOM     17  C   UNL     1      -3.080  -2.478  24.718  0.00  0.00    +0.021 A 
ENDBRANCH   7   9
BRANCH   4   2
ATOM      1  O   UNL     1      -0.976   2.235  25.902  0.00  0.00    -0.153 OA
ATOM      2  S   UNL     1      -1.307   2.230  25.146  0.00  0.00    +0.065 S 
ATOM      3  O   UNL     1      -1.638   2.225  24.390  0.00  0.00    -0.153 OA
BRANCH   2  18
ATOM     18  C   UNL     1      -1.209   3.048  25.098  0.00  0.00    +0.140 A 
ATOM     19  C   UNL     1      -0.518   3.362  24.776  0.00  0.00    +0.021 A 
ATOM     20  C   UNL     1      -0.420   4.181  24.728  0.00  0.00    +0.001 A 
ATOM     21  C   UNL     1      -1.015   4.684  25.002  0.00  0.00    +0.002 A 
ATOM     22  C   UNL     1      -1.706   4.369  25.325  0.00  0.00    +0.019 A 
ATOM     23  C   UNL     1      -1.804   3.550  25.373  0.00  0.00    +0.100 A 
ATOM     24  N   UNL     1      -2.494   3.236  25.695  0.00  0.00    -0.242 NA
ATOM     25  C   UNL     1      -3.088   3.738  25.969  0.00  0.00    +0.099 A 
ATOM     26  C   UNL     1      -2.990   4.557  25.921  0.00  0.00    +0.021 A 
ATOM     27  C   UNL     1      -2.299   4.872  25.599  0.00  0.00    +0.003 A 
ENDBRANCH   2  18
ENDBRANCH   4   2
TORSDOF 3
ENDMDL
