MODEL 1
REMARK VINA RESULT:     -11.7      0.000      0.000
REMARK  Name = 
REMARK  7 active torsions:
REMARK  status: ('A' for Active; 'I' for Inactive)
REMARK    1  A    between atoms: O_2  and  C_3
REMARK    2  A    between atoms: C_8  and  N_9
REMARK    3  A    between atoms: C_15  and  C_17
REMARK    4  A    between atoms: C_17  and  C_18
REMARK    5  A    between atoms: C_20  and  C_21
REMARK    6  A    between atoms: C_21  and  N_22
REMARK    7  A    between atoms: C_23  and  C_25
REMARK                            x       y       z     vdW  Elec       q    Type
REMARK                         _______ _______ _______ _____ _____    ______ ____
ROOT
ATOM     18  C   UNL     1      -4.976   2.176  25.363  0.00  0.00    +0.157 C 
ATOM     19  O   UNL     1      -4.282   2.616  25.443  0.00  0.00    -0.351 OA
ATOM     20  C   UNL     1      -4.492   3.385  25.656  0.00  0.00    +0.170 C 
ATOM     32  C   UNL     1      -5.315   3.420  25.707  0.00  0.00    +0.213 C 
ATOM     33  O   UNL     1      -5.761   4.086  25.905  0.00  0.00    -0.218 OA
ATOM     34  C   UNL     1      -5.613   2.673  25.526  0.00  0.00    +0.212 C 
ATOM     35  O   UNL     1      -6.411   2.460  25.511  0.00  0.00    -0.218 OA
ENDROOT
BRANCH  18  17
ATOM     17  C   UNL     1      -5.023   1.379  25.156  0.00  0.00    +0.117 C 
BRANCH  17  15
ATOM      9  N   UNL     1      -3.515  -1.106  24.520  0.00  0.00    -0.302 N 
ATOM     10  C   UNL     1      -3.906  -0.830  25.192  0.00  0.00    +0.112 C 
ATOM     11  C   UNL     1      -4.278  -0.094  25.180  0.00  0.00    +0.115 C 
ATOM     12  N   UNL     1      -4.259   0.367  24.496  0.00  0.00    -0.276 N 
ATOM     13  C   UNL     1      -3.868   0.092  23.824  0.00  0.00    +0.115 C 
ATOM     14  C   UNL     1      -3.496  -0.644  23.836  0.00  0.00    +0.112 C 
ATOM     15  C   UNL     1      -4.631   1.103  24.484  0.00  0.00    +0.228 C 
ATOM     16  O   UNL     1      -4.612   1.564  23.800  0.00  0.00    -0.275 OA
BRANCH   9   8
ATOM      3  C   UNL     1      -2.330  -1.891  24.666  0.00  0.00    +0.152 A 
ATOM      4  C   UNL     1      -1.958  -2.627  24.678  0.00  0.00    +0.038 A 
ATOM      5  C   UNL     1      -2.398  -3.314  24.556  0.00  0.00    +0.003 A 
ATOM      6  C   UNL     1      -3.211  -3.264  24.423  0.00  0.00    +0.001 A 
ATOM      7  C   UNL     1      -3.583  -2.528  24.411  0.00  0.00    +0.018 A 
ATOM      8  C   UNL     1      -3.143  -1.842  24.532  0.00  0.00    +0.082 A 
BRANCH   3   2
ATOM      1  C   UNL     1      -1.081  -1.254  24.943  0.00  0.00    +0.253 C 
ATOM      2  O   UNL     1      -1.889  -1.204  24.787  0.00  0.00    -0.470 OA
ENDBRANCH   3   2
ENDBRANCH   9   8
ENDBRANCH  17  15
ENDBRANCH  18  17
BRANCH  20  21
ATOM     21  C   UNL     1      -3.971   4.010  25.793  0.00  0.00    +0.148 C 
BRANCH  21  22
ATOM     22  N   UNL     1      -3.210   3.989  25.476  0.00  0.00    -0.199 NA
ATOM     23  C   UNL     1      -2.622   4.481  25.782  0.00  0.00    +0.265 C 
ATOM     24  O   UNL     1      -2.796   4.994  26.404  0.00  0.00    -0.268 OA
BRANCH  23  25
ATOM     25  C   UNL     1      -1.861   4.460  25.465  0.00  0.00    +0.057 A 
ATOM     26  C   UNL     1      -1.550   5.129  25.095  0.00  0.00    +0.005 A 
ATOM     27  C   UNL     1      -0.789   5.108  24.778  0.00  0.00    +0.002 A 
ATOM     28  C   UNL     1      -0.338   4.419  24.831  0.00  0.00    +0.030 A 
ATOM     29  C   UNL     1      -0.649   3.750  25.201  0.00  0.00    +0.140 A 
ATOM     30  F   UNL     1      -0.199   3.062  25.254  0.00  0.00    -0.204 F 
ATOM     31  C   UNL     1      -1.410   3.772  25.518  0.00  0.00    +0.034 A 
ENDBRANCH  23  25
ENDBRANCH  21  22
ENDBRANCH  20  21
TORSDOF 7
ENDMDL
MODEL 2
REMARK VINA RESULT:     -11.0      1.874      3.708
REMARK  Name = 
REMARK  7 active torsions:
REMARK  status: ('A' for Active; 'I' for Inactive)
REMARK    1  A    between atoms: O_2  and  C_3
REMARK    2  A    between atoms: C_8  and  N_9
REMARK    3  A    between atoms: C_15  and  C_17
REMARK    4  A    between atoms: C_17  and  C_18
REMARK    5  A    between atoms: C_20  and  C_21
REMARK    6  A    between atoms: C_21  and  N_22
REMARK    7  A    between atoms: C_23  and  C_25
REMARK                            x       y       z     vdW  Elec       q    Type
REMARK                         _______ _______ _______ _____ _____    ______ ____
ROOT
ATOM     18  C   UNL     1      -1.197   3.065  25.074  0.00  0.00    +0.157 C 
ATOM     19  O   UNL     1      -2.011   2.998  25.196  0.00  0.00    -0.351 OA
ATOM     20  C   UNL     1      -2.323   3.759  25.249  0.00  0.00    +0.170 C 
ATOM     32  C   UNL     1      -1.703   4.296  25.161  0.00  0.00    +0.213 C 
ATOM     33  O   UNL     1      -1.767   5.119  25.177  0.00  0.00    -0.218 OA
ATOM     34  C   UNL     1      -1.007   3.867  25.053  0.00  0.00    +0.212 C 
ATOM     35  O   UNL     1      -0.253   4.184  24.943  0.00  0.00    -0.218 OA
ENDROOT
BRANCH  18  17
ATOM     17  C   UNL     1      -0.667   2.438  24.990  0.00  0.00    +0.117 C 
BRANCH  17  15
ATOM      9  N   UNL     1      -1.370  -0.452  24.986  0.00  0.00    -0.302 N 
ATOM     10  C   UNL     1      -1.399   0.144  24.418  0.00  0.00    +0.112 C 
ATOM     11  C   UNL     1      -1.155   0.909  24.608  0.00  0.00    +0.115 C 
ATOM     12  N   UNL     1      -0.882   1.077  25.368  0.00  0.00    -0.276 N 
ATOM     13  C   UNL     1      -0.852   0.481  25.938  0.00  0.00    +0.115 C 
ATOM     14  C   UNL     1      -1.096  -0.284  25.747  0.00  0.00    +0.112 C 
ATOM     15  C   UNL     1      -0.638   1.842  25.558  0.00  0.00    +0.228 C 
ATOM     16  O   UNL     1      -0.365   2.010  26.319  0.00  0.00    -0.275 OA
BRANCH   9   8
ATOM      3  C   UNL     1      -2.404  -1.434  24.894  0.00  0.00    +0.152 A 
ATOM      4  C   UNL     1      -2.648  -2.199  24.703  0.00  0.00    +0.038 A 
ATOM      5  C   UNL     1      -2.102  -2.746  24.414  0.00  0.00    +0.003 A 
ATOM      6  C   UNL     1      -1.312  -2.529  24.317  0.00  0.00    +0.001 A 
ATOM      7  C   UNL     1      -1.068  -1.764  24.508  0.00  0.00    +0.018 A 
ATOM      8  C   UNL     1      -1.614  -1.217  24.796  0.00  0.00    +0.082 A 
BRANCH   3   2
ATOM      1  C   UNL     1      -3.736  -1.109  25.295  0.00  0.00    +0.253 C 
ATOM      2  O   UNL     1      -2.949  -0.887  25.182  0.00  0.00    -0.470 OA
ENDBRANCH   3   2
ENDBRANCH   9   8
ENDBRANCH  17  15
ENDBRANCH  18  17
BRANCH  20  21
ATOM     21  C   UNL     1      -3.117   3.951  25.370  0.00  0.00    +0.148 C 
BRANCH  21  22
ATOM     22  N   UNL     1      -3.687   3.355  25.384  0.00  0.00    -0.199 NA
ATOM     23  C   UNL     1      -4.488   3.551  25.375  0.00  0.00    +0.265 C 
ATOM     24  O   UNL     1      -4.719   4.342  25.351  0.00  0.00    -0.268 OA
BRANCH  23  25
ATOM     25  C   UNL     1      -5.058   2.955  25.390  0.00  0.00    +0.057 A 
ATOM     26  C   UNL     1      -5.212   2.514  24.709  0.00  0.00    +0.005 A 
ATOM     27  C   UNL     1      -5.781   1.919  24.723  0.00  0.00    +0.002 A 
ATOM     28  C   UNL     1      -6.198   1.762  25.418  0.00  0.00    +0.030 A 
ATOM     29  C   UNL     1      -6.045   2.202  26.099  0.00  0.00    +0.140 A 
ATOM     30  F   UNL     1      -6.461   2.046  26.793  0.00  0.00    -0.204 F 
ATOM     31  C   UNL     1      -5.475   2.798  26.084  0.00  0.00    +0.034 A 
ENDBRANCH  23  25
ENDBRANCH  21  22
ENDBRANCH  20  21
TORSDOF 7
ENDMDL
MODEL 3
REMARK VINA RESULT:     -10.6      2.095      5.858
REMARK  Name = 
REMARK  7 active torsions:
REMARK  status: ('A' for Active; 'I' for Inactive)
REMARK    1  A    between atoms: O_2  and  C_3
REMARK    2  A    between atoms: C_8  and  N_9
REMARK    3  A    between atoms: C_15  and  C_17
REMARK    4  A    between atoms: C_17  and  C_18
REMARK    5  A    between atoms: C_20  and  C_21
REMARK    6  A    between atoms: C_21  and  N_22
REMARK    7  A    between atoms: C_23  and  C_25
REMARK                            x       y       z     vdW  Elec       q    Type
REMARK                         _______ _______ _______ _____ _____    ______ ____
ROOT
ATOM     18  C   UNL     1      -0.601   1.366  24.047  0.00  0.00    +0.157 C 
ATOM     19  O   UNL     1      -0.958   0.637  24.198  0.00  0.00    -0.351 OA
ATOM     20  C   UNL     1      -0.376   0.055  24.157  0.00  0.00    +0.170 C 
ATOM     32  C   UNL     1       0.341   0.423  23.981  0.00  0.00    +0.213 C 
ATOM     33  O   UNL     1       1.070   0.046  23.889  0.00  0.00    -0.218 OA
ATOM     34  C   UNL     1       0.202   1.233  23.913  0.00  0.00    +0.212 C 
ATOM     35  O   UNL     1       0.767   1.809  23.741  0.00  0.00    -0.218 OA
ENDROOT
BRANCH  18  17
ATOM     17  C   UNL     1      -0.980   2.098  24.033  0.00  0.00    +0.117 C 
BRANCH  17  15
ATOM      9  N   UNL     1      -3.786   2.855  24.668  0.00  0.00    -0.302 N 
ATOM     10  C   UNL     1      -3.105   2.751  25.121  0.00  0.00    +0.112 C 
ATOM     11  C   UNL     1      -2.396   2.534  24.758  0.00  0.00    +0.115 C 
ATOM     12  N   UNL     1      -2.370   2.419  23.942  0.00  0.00    -0.276 N 
ATOM     13  C   UNL     1      -3.051   2.522  23.488  0.00  0.00    +0.115 C 
ATOM     14  C   UNL     1      -3.759   2.740  23.851  0.00  0.00    +0.112 C 
ATOM     15  C   UNL     1      -1.661   2.202  23.580  0.00  0.00    +0.228 C 
ATOM     16  O   UNL     1      -1.634   2.087  22.762  0.00  0.00    -0.275 OA
BRANCH   9   8
ATOM      3  C   UNL     1      -5.039   2.493  25.252  0.00  0.00    +0.152 A 
ATOM      4  C   UNL     1      -5.747   2.711  25.615  0.00  0.00    +0.038 A 
ATOM      5  C   UNL     1      -5.911   3.508  25.756  0.00  0.00    +0.003 A 
ATOM      6  C   UNL     1      -5.366   4.086  25.535  0.00  0.00    +0.001 A 
ATOM      7  C   UNL     1      -4.657   3.868  25.172  0.00  0.00    +0.018 A 
ATOM      8  C   UNL     1      -4.494   3.072  25.031  0.00  0.00    +0.082 A 
BRANCH   3   2
ATOM      1  C   UNL     1      -5.423   1.119  25.328  0.00  0.00    +0.253 C 
ATOM      2  O   UNL     1      -4.876   1.698  25.111  0.00  0.00    -0.470 OA
ENDBRANCH   3   2
ENDBRANCH   9   8
ENDBRANCH  17  15
ENDBRANCH  18  17
BRANCH  20  21
ATOM     21  C   UNL     1      -0.490  -0.755  24.272  0.00  0.00    +0.148 C 
BRANCH  21  22
ATOM     22  N   UNL     1      -1.255  -1.057  24.337  0.00  0.00    -0.199 NA
ATOM     23  C   UNL     1      -1.377  -1.796  24.685  0.00  0.00    +0.265 C 
ATOM     24  O   UNL     1      -0.735  -2.230  24.967  0.00  0.00    -0.268 OA
BRANCH  23  25
ATOM     25  C   UNL     1      -2.141  -2.099  24.751  0.00  0.00    +0.057 A 
ATOM     26  C   UNL     1      -2.392  -2.698  24.242  0.00  0.00    +0.005 A 
ATOM     27  C   UNL     1      -3.156  -3.001  24.307  0.00  0.00    +0.002 A 
ATOM     28  C   UNL     1      -3.670  -2.706  24.882  0.00  0.00    +0.030 A 
ATOM     29  C   UNL     1      -3.419  -2.106  25.390  0.00  0.00    +0.140 A 
ATOM     30  F   UNL     1      -3.932  -1.811  25.964  0.00  0.00    -0.204 F 
ATOM     31  C   UNL     1      -2.655  -1.804  25.325  0.00  0.00    +0.034 A 
ENDBRANCH  23  25
ENDBRANCH  21  22
ENDBRANCH  20  21
TORSDOF 7
ENDMDL
