REMARK  Name = 
REMARK  4 active torsions:
REMARK  status: ('A' for Active; 'I' for Inactive)
REMARK    1  A    between atoms: O_2  and  C_3
REMARK    2  A    between atoms: C_3  and  C_5
REMARK    3  A    between atoms: N_13  and  C_14
REMARK    4  A    between atoms: C_14  and  C_15
REMARK                            x       y       z     vdW  Elec       q    Type
REMARK                         _______ _______ _______ _____ _____    ______ ____
ROOT
ATOM      5  C   UNL     1       4.067   2.348   0.000  0.00  0.00    +0.325 C 
ATOM      6  O   UNL     1       4.067   3.173   0.000  0.00  0.00    -0.263 OA
ATOM      7  N   UNL     1       3.352   1.935   0.000  0.00  0.00    -0.267 N 
ATOM      8  C   UNL     1       3.352   1.110   0.000  0.00  0.00    +0.115 C 
ATOM      9  C   UNL     1       2.638   0.698   0.000  0.00  0.00    +0.116 C 
ATOM     10  N   UNL     1       1.923   1.110   0.000  0.00  0.00    -0.261 N 
ATOM     11  C   UNL     1       1.923   1.935   0.000  0.00  0.00    +0.116 C 
ATOM     12  C   UNL     1       1.139   2.190   0.000  0.00  0.00    +0.117 C 
ATOM     13  N   UNL     1       0.654   1.523   0.000  0.00  0.00    -0.258 N 
ATOM     22  C   UNL     1       1.139   0.856   0.000  0.00  0.00    +0.308 C 
ATOM     23  O   UNL     1       0.884   0.071   0.000  0.00  0.00    -0.252 OA
ATOM     24  C   UNL     1       2.638   2.348   0.000  0.00  0.00    +0.115 C 
ENDROOT
BRANCH   5   3
ATOM      3  C   UNL     1       4.781   1.935   0.000  0.00  0.00    +0.396 C 
ATOM      4  O   UNL     1       4.781   1.110   0.000  0.00  0.00    -0.240 OA
BRANCH   3   2
ATOM      1  C   UNL     1       6.210   1.935   0.000  0.00  0.00    +0.256 C 
ATOM      2  O   UNL     1       5.496   2.348   0.000  0.00  0.00    -0.438 OA
ENDBRANCH   3   2
ENDBRANCH   5   3
BRANCH  13  14
ATOM     14  C   UNL     1      -0.171   1.523   0.000  0.00  0.00    +0.122 C 
BRANCH  14  15
ATOM     15  C   UNL     1      -0.584   2.237   0.000  0.00  0.00    -0.002 A 
ATOM     16  C   UNL     1      -1.409   2.237   0.000  0.00  0.00    -0.000 A 
ATOM     17  C   UNL     1      -1.821   2.952   0.000  0.00  0.00    +0.029 A 
ATOM     18  C   UNL     1      -1.409   3.666   0.000  0.00  0.00    +0.140 A 
ATOM     19  F   UNL     1      -1.821   4.381   0.000  0.00  0.00    -0.204 F 
ATOM     20  C   UNL     1      -0.584   3.666   0.000  0.00  0.00    +0.029 A 
ATOM     21  C   UNL     1      -0.171   2.952   0.000  0.00  0.00    -0.000 A 
ENDBRANCH  14  15
ENDBRANCH  13  14
TORSDOF 4
