MODEL 1
REMARK VINA RESULT:     -11.1      0.000      0.000
REMARK  Name = 
REMARK  7 active torsions:
REMARK  status: ('A' for Active; 'I' for Inactive)
REMARK    1  A    between atoms: C_2  and  N_3
REMARK    2  A    between atoms: N_3  and  C_4
REMARK    3  A    between atoms: C_6  and  C_8
REMARK    4  A    between atoms: C_8  and  C_9
REMARK    5  A    between atoms: C_9  and  C_10
REMARK    6  A    between atoms: C_17  and  N_20
REMARK    7  A    between atoms: N_23  and  C_24
REMARK                            x       y       z     vdW  Elec       q    Type
REMARK                         _______ _______ _______ _____ _____    ______ ____
ROOT
ATOM     10  C   UNL     1      -4.382   3.021  25.215  0.00  0.00    +0.080 C 
ATOM     11  C   UNL     1      -4.815   3.451  25.770  0.00  0.00    +0.131 C 
ATOM     12  N   UNL     1      -5.468   3.107  26.139  0.00  0.00    -0.203 NA
ATOM     13  C   UNL     1      -5.687   2.334  25.953  0.00  0.00    +0.256 C 
ATOM     14  O   UNL     1      -6.339   1.990  26.323  0.00  0.00    -0.272 OA
ATOM     15  C   UNL     1      -5.253   1.905  25.398  0.00  0.00    +0.138 C 
ATOM     16  C   UNL     1      -5.337   1.138  25.105  0.00  0.00    +0.049 C 
ATOM     17  C   UNL     1      -4.736   1.008  24.555  0.00  0.00    +0.115 C 
ATOM     18  C   UNL     1      -4.281   1.694  24.507  0.00  0.00    +0.094 C 
ATOM     19  N   UNL     1      -4.601   2.248  25.029  0.00  0.00    -0.265 NA
ENDROOT
BRANCH  17  20
ATOM     20  N   UNL     1      -4.612   0.313  24.127  0.00  0.00    -0.187 NA
ATOM     21  C   UNL     1      -4.133  -0.283  24.438  0.00  0.00    +0.343 C 
ATOM     22  O   UNL     1      -3.778  -0.184  25.176  0.00  0.00    -0.249 OA
ATOM     23  N   UNL     1      -4.009  -0.977  24.010  0.00  0.00    -0.161 NA
BRANCH  23  24
ATOM     24  C   UNL     1      -3.530  -1.572  24.320  0.00  0.00    +0.076 A 
ATOM     25  C   UNL     1      -2.711  -1.538  24.221  0.00  0.00    +0.028 A 
ATOM     26  C   UNL     1      -2.232  -2.133  24.531  0.00  0.00    +0.059 A 
ATOM     27 CL   UNL     1      -1.415  -2.099  24.431  0.00  0.00    -0.082 Cl
ATOM     28  C   UNL     1      -2.572  -2.764  24.941  0.00  0.00    +0.011 A 
ATOM     29  C   UNL     1      -3.390  -2.799  25.040  0.00  0.00    +0.002 A 
ATOM     30  C   UNL     1      -3.869  -2.203  24.730  0.00  0.00    +0.017 A 
ENDBRANCH  23  24
ENDBRANCH  17  20
BRANCH  10   9
ATOM      9  C   UNL     1      -3.729   3.366  24.845  0.00  0.00    +0.027 C 
BRANCH   9   8
ATOM      8  C   UNL     1      -3.080   3.606  25.294  0.00  0.00    +0.087 C 
BRANCH   8   6
ATOM      3  N   UNL     1      -1.699   3.967  25.245  0.00  0.00    -0.280 N 
ATOM      6  C   UNL     1      -2.462   4.019  24.937  0.00  0.00    +0.226 C 
ATOM      7  O   UNL     1      -2.607   4.485  24.271  0.00  0.00    -0.275 OA
BRANCH   3   2
ATOM      1  C   UNL     1      -0.949   5.173  25.078  0.00  0.00    +0.023 C 
ATOM      2  C   UNL     1      -1.080   4.381  24.888  0.00  0.00    +0.093 C 
ENDBRANCH   3   2
BRANCH   3   4
ATOM      4  C   UNL     1      -1.553   3.502  25.911  0.00  0.00    +0.093 C 
ATOM      5  C   UNL     1      -0.845   3.082  25.973  0.00  0.00    +0.023 C 
ENDBRANCH   3   4
ENDBRANCH   8   6
ENDBRANCH   9   8
ENDBRANCH  10   9
TORSDOF 7
ENDMDL
MODEL 2
REMARK VINA RESULT:     -10.1      1.739      3.467
REMARK  Name = 
REMARK  7 active torsions:
REMARK  status: ('A' for Active; 'I' for Inactive)
REMARK    1  A    between atoms: C_2  and  N_3
REMARK    2  A    between atoms: N_3  and  C_4
REMARK    3  A    between atoms: C_6  and  C_8
REMARK    4  A    between atoms: C_8  and  C_9
REMARK    5  A    between atoms: C_9  and  C_10
REMARK    6  A    between atoms: C_17  and  N_20
REMARK    7  A    between atoms: N_23  and  C_24
REMARK                            x       y       z     vdW  Elec       q    Type
REMARK                         _______ _______ _______ _____ _____    ______ ____
ROOT
ATOM     10  C   UNL     1      -1.193   2.937  25.213  0.00  0.00    +0.080 C 
ATOM     11  C   UNL     1      -0.702   3.455  24.799  0.00  0.00    +0.131 C 
ATOM     12  N   UNL     1      -0.018   3.171  24.436  0.00  0.00    -0.203 NA
ATOM     13  C   UNL     1       0.175   2.371  24.486  0.00  0.00    +0.256 C 
ATOM     14  O   UNL     1       0.860   2.088  24.121  0.00  0.00    -0.272 OA
ATOM     15  C   UNL     1      -0.316   1.854  24.899  0.00  0.00    +0.138 C 
ATOM     16  C   UNL     1      -0.269   1.042  25.041  0.00  0.00    +0.049 C 
ATOM     17  C   UNL     1      -0.924   0.824  25.492  0.00  0.00    +0.115 C 
ATOM     18  C   UNL     1      -1.376   1.500  25.630  0.00  0.00    +0.094 C 
ATOM     19  N   UNL     1      -1.000   2.136  25.262  0.00  0.00    -0.265 NA
ENDROOT
BRANCH  17  20
ATOM     20  N   UNL     1      -1.097   0.062  25.760  0.00  0.00    -0.187 NA
ATOM     21  C   UNL     1      -1.675  -0.387  25.380  0.00  0.00    +0.343 C 
ATOM     22  O   UNL     1      -2.081  -0.075  24.733  0.00  0.00    -0.249 OA
ATOM     23  N   UNL     1      -1.847  -1.148  25.648  0.00  0.00    -0.161 NA
BRANCH  23  24
ATOM     24  C   UNL     1      -2.426  -1.597  25.268  0.00  0.00    +0.076 A 
ATOM     25  C   UNL     1      -2.206  -2.196  24.745  0.00  0.00    +0.028 A 
ATOM     26  C   UNL     1      -2.784  -2.646  24.365  0.00  0.00    +0.059 A 
ATOM     27 CL   UNL     1      -2.564  -3.244  23.843  0.00  0.00    -0.082 Cl
ATOM     28  C   UNL     1      -3.583  -2.496  24.509  0.00  0.00    +0.011 A 
ATOM     29  C   UNL     1      -3.803  -1.898  25.032  0.00  0.00    +0.002 A 
ATOM     30  C   UNL     1      -3.224  -1.448  25.411  0.00  0.00    +0.017 A 
ENDBRANCH  23  24
ENDBRANCH  17  20
BRANCH  10   9
ATOM      9  C   UNL     1      -1.877   3.220  25.577  0.00  0.00    +0.027 C 
BRANCH   9   8
ATOM      8  C   UNL     1      -2.496   3.516  25.118  0.00  0.00    +0.087 C 
BRANCH   8   6
ATOM      3  N   UNL     1      -3.917   3.662  25.083  0.00  0.00    -0.280 N 
ATOM      6  C   UNL     1      -3.198   3.754  25.479  0.00  0.00    +0.226 C 
ATOM      7  O   UNL     1      -3.184   4.085  26.235  0.00  0.00    -0.275 OA
BRANCH   3   2
ATOM      1  C   UNL     1      -5.227   3.354  25.564  0.00  0.00    +0.023 C 
ATOM      2  C   UNL     1      -4.620   3.900  25.443  0.00  0.00    +0.093 C 
ENDBRANCH   3   2
BRANCH   3   4
ATOM      4  C   UNL     1      -3.932   3.332  24.327  0.00  0.00    +0.093 C 
ATOM      5  C   UNL     1      -4.314   3.728  23.712  0.00  0.00    +0.023 C 
ENDBRANCH   3   4
ENDBRANCH   8   6
ENDBRANCH   9   8
ENDBRANCH  10   9
TORSDOF 7
ENDMDL
MODEL 3
REMARK VINA RESULT:     -10.0      2.644      6.281
REMARK  Name = 
REMARK  7 active torsions:
REMARK  status: ('A' for Active; 'I' for Inactive)
REMARK    1  A    between atoms: C_2  and  N_3
REMARK    2  A    between atoms: N_3  and  C_4
REMARK    3  A    between atoms: C_6  and  C_8
REMARK    4  A    between atoms: C_8  and  C_9
REMARK    5  A    between atoms: C_9  and  C_10
REMARK    6  A    between atoms: C_17  and  N_20
REMARK    7  A    between atoms: N_23  and  C_24
REMARK                            x       y       z     vdW  Elec       q    Type
REMARK                         _______ _______ _______ _____ _____    ______ ____
ROOT
ATOM     10  C   UNL     1      -0.497  -0.594  24.237  0.00  0.00    +0.080 C 
ATOM     11  C   UNL     1      -0.165  -0.974  23.584  0.00  0.00    +0.131 C 
ATOM     12  N   UNL     1       0.408  -0.590  23.132  0.00  0.00    -0.203 NA
ATOM     13  C   UNL     1       0.649   0.173  23.332  0.00  0.00    +0.256 C 
ATOM     14  O   UNL     1       1.222   0.557  22.879  0.00  0.00    -0.272 OA
ATOM     15  C   UNL     1       0.317   0.552  23.985  0.00  0.00    +0.138 C 
ATOM     16  C   UNL     1       0.444   1.298  24.314  0.00  0.00    +0.049 C 
ATOM     17  C   UNL     1      -0.050   1.375  24.970  0.00  0.00    +0.115 C 
ATOM     18  C   UNL     1      -0.483   0.678  25.047  0.00  0.00    +0.094 C 
ATOM     19  N   UNL     1      -0.256   0.169  24.437  0.00  0.00    -0.265 NA
ENDROOT
BRANCH  17  20
ATOM     20  N   UNL     1      -0.103   2.035  25.463  0.00  0.00    -0.187 NA
ATOM     21  C   UNL     1      -0.649   2.631  25.298  0.00  0.00    +0.343 C 
ATOM     22  O   UNL     1      -1.143   2.567  24.640  0.00  0.00    -0.249 OA
ATOM     23  N   UNL     1      -0.701   3.290  25.791  0.00  0.00    -0.161 NA
BRANCH  23  24
ATOM     24  C   UNL     1      -1.247   3.886  25.626  0.00  0.00    +0.076 A 
ATOM     25  C   UNL     1      -2.015   3.836  25.925  0.00  0.00    +0.028 A 
ATOM     26  C   UNL     1      -2.562   4.432  25.760  0.00  0.00    +0.059 A 
ATOM     27 CL   UNL     1      -3.329   4.382  26.058  0.00  0.00    -0.082 Cl
ATOM     28  C   UNL     1      -2.340   5.078  25.296  0.00  0.00    +0.011 A 
ATOM     29  C   UNL     1      -1.573   5.128  24.998  0.00  0.00    +0.002 A 
ATOM     30  C   UNL     1      -1.027   4.532  25.163  0.00  0.00    +0.017 A 
ENDBRANCH  23  24
ENDBRANCH  17  20
BRANCH  10   9
ATOM      9  C   UNL     1      -1.070  -0.978  24.690  0.00  0.00    +0.027 C 
BRANCH   9   8
ATOM      8  C   UNL     1      -1.770  -1.236  24.337  0.00  0.00    +0.087 C 
BRANCH   8   6
ATOM      3  N   UNL     1      -3.032  -1.870  24.553  0.00  0.00    -0.280 N 
ATOM      6  C   UNL     1      -2.221  -1.824  24.698  0.00  0.00    +0.226 C 
ATOM      7  O   UNL     1      -1.862  -2.368  25.205  0.00  0.00    -0.275 OA
BRANCH   3   2
ATOM      1  C   UNL     1      -3.822  -3.057  24.459  0.00  0.00    +0.023 C 
ATOM      2  C   UNL     1      -3.484  -2.459  24.915  0.00  0.00    +0.093 C 
ENDBRANCH   3   2
BRANCH   3   4
ATOM      4  C   UNL     1      -3.392  -1.327  24.047  0.00  0.00    +0.093 C 
ATOM      5  C   UNL     1      -4.144  -1.036  24.222  0.00  0.00    +0.023 C 
ENDBRANCH   3   4
ENDBRANCH   8   6
ENDBRANCH   9   8
ENDBRANCH  10   9
TORSDOF 7
ENDMDL
MODEL 4
REMARK VINA RESULT:      -9.8      1.396      4.411
REMARK  Name = 
REMARK  7 active torsions:
REMARK  status: ('A' for Active; 'I' for Inactive)
REMARK    1  A    between atoms: C_2  and  N_3
REMARK    2  A    between atoms: N_3  and  C_4
REMARK    3  A    between atoms: C_6  and  C_8
REMARK    4  A    between atoms: C_8  and  C_9
REMARK    5  A    between atoms: C_9  and  C_10
REMARK    6  A    between atoms: C_17  and  N_20
REMARK    7  A    between atoms: N_23  and  C_24
REMARK                            x       y       z     vdW  Elec       q    Type
REMARK                         _______ _______ _______ _____ _____    ______ ____
ROOT
ATOM     10  C   UNL     1      -5.073   1.279  24.809  0.00  0.00    +0.080 C 
ATOM     11  C   UNL     1      -5.831   1.260  25.133  0.00  0.00    +0.131 C 
ATOM     12  N   UNL     1      -6.124   1.920  25.531  0.00  0.00    -0.203 NA
ATOM     13  C   UNL     1      -5.660   2.598  25.605  0.00  0.00    +0.256 C 
ATOM     14  O   UNL     1      -5.954   3.258  26.003  0.00  0.00    -0.272 OA
ATOM     15  C   UNL     1      -4.902   2.616  25.280  0.00  0.00    +0.138 C 
ATOM     16  C   UNL     1      -4.321   3.202  25.265  0.00  0.00    +0.049 C 
ATOM     17  C   UNL     1      -3.669   2.904  24.857  0.00  0.00    +0.115 C 
ATOM     18  C   UNL     1      -3.846   2.134  24.620  0.00  0.00    +0.094 C 
ATOM     19  N   UNL     1      -4.608   1.957  24.882  0.00  0.00    -0.265 NA
ENDROOT
BRANCH  17  20
ATOM     20  N   UNL     1      -2.963   3.306  24.712  0.00  0.00    -0.187 NA
ATOM     21  C   UNL     1      -2.243   2.971  24.936  0.00  0.00    +0.343 C 
ATOM     22  O   UNL     1      -2.230   2.233  25.306  0.00  0.00    -0.249 OA
ATOM     23  N   UNL     1      -1.538   3.372  24.791  0.00  0.00    -0.161 NA
BRANCH  23  24
ATOM     24  C   UNL     1      -0.819   3.037  25.015  0.00  0.00    +0.076 A 
ATOM     25  C   UNL     1      -0.369   2.617  24.464  0.00  0.00    +0.028 A 
ATOM     26  C   UNL     1       0.350   2.282  24.688  0.00  0.00    +0.059 A 
ATOM     27 CL   UNL     1       0.799   1.863  24.138  0.00  0.00    -0.082 Cl
ATOM     28  C   UNL     1       0.620   2.366  25.464  0.00  0.00    +0.011 A 
ATOM     29  C   UNL     1       0.171   2.784  26.014  0.00  0.00    +0.002 A 
ATOM     30  C   UNL     1      -0.548   3.120  25.790  0.00  0.00    +0.017 A 
ENDBRANCH  23  24
ENDBRANCH  17  20
BRANCH  10   9
ATOM      9  C   UNL     1      -4.779   0.618  24.410  0.00  0.00    +0.027 C 
BRANCH   9   8
ATOM      8  C   UNL     1      -4.563  -0.057  24.833  0.00  0.00    +0.087 C 
BRANCH   8   6
ATOM      3  N   UNL     1      -3.788  -1.256  24.844  0.00  0.00    -0.280 N 
ATOM      6  C   UNL     1      -4.252  -0.709  24.436  0.00  0.00    +0.226 C 
ATOM      7  O   UNL     1      -4.402  -0.815  23.632  0.00  0.00    -0.275 OA
BRANCH   3   2
ATOM      1  C   UNL     1      -3.595  -2.670  24.746  0.00  0.00    +0.023 C 
ATOM      2  C   UNL     1      -3.476  -1.910  24.448  0.00  0.00    +0.093 C 
ENDBRANCH   3   2
BRANCH   3   4
ATOM      4  C   UNL     1      -3.637  -1.152  25.648  0.00  0.00    +0.093 C 
ATOM      5  C   UNL     1      -2.871  -1.249  25.940  0.00  0.00    +0.023 C 
ENDBRANCH   3   4
ENDBRANCH   8   6
ENDBRANCH   9   8
ENDBRANCH  10   9
TORSDOF 7
ENDMDL
MODEL 5
REMARK VINA RESULT:      -9.7      2.391      5.434
REMARK  Name = 
REMARK  7 active torsions:
REMARK  status: ('A' for Active; 'I' for Inactive)
REMARK    1  A    between atoms: C_2  and  N_3
REMARK    2  A    between atoms: N_3  and  C_4
REMARK    3  A    between atoms: C_6  and  C_8
REMARK    4  A    between atoms: C_8  and  C_9
REMARK    5  A    between atoms: C_9  and  C_10
REMARK    6  A    between atoms: C_17  and  N_20
REMARK    7  A    between atoms: N_23  and  C_24
REMARK                            x       y       z     vdW  Elec       q    Type
REMARK                         _______ _______ _______ _____ _____    ______ ____
ROOT
ATOM     10  C   UNL     1      -0.841   0.063  24.079  0.00  0.00    +0.080 C 
ATOM     11  C   UNL     1      -0.042  -0.003  24.275  0.00  0.00    +0.131 C 
ATOM     12  N   UNL     1       0.415   0.676  24.373  0.00  0.00    -0.203 NA
ATOM     13  C   UNL     1       0.075   1.421  24.276  0.00  0.00    +0.256 C 
ATOM     14  O   UNL     1       0.533   2.100  24.374  0.00  0.00    -0.272 OA
ATOM     15  C   UNL     1      -0.724   1.487  24.081  0.00  0.00    +0.138 C 
ATOM     16  C   UNL     1      -1.208   2.142  23.950  0.00  0.00    +0.049 C 
ATOM     17  C   UNL     1      -1.965   1.868  23.772  0.00  0.00    +0.115 C 
ATOM     18  C   UNL     1      -1.950   1.044  23.791  0.00  0.00    +0.094 C 
ATOM     19  N   UNL     1      -1.182   0.808  23.982  0.00  0.00    -0.265 NA
ENDROOT
BRANCH  17  20
ATOM     20  N   UNL     1      -2.623   2.337  23.603  0.00  0.00    -0.187 NA
ATOM     21  C   UNL     1      -3.221   2.426  24.164  0.00  0.00    +0.343 C 
ATOM     22  O   UNL     1      -3.161   2.047  24.894  0.00  0.00    -0.249 OA
ATOM     23  N   UNL     1      -3.878   2.894  23.995  0.00  0.00    -0.161 NA
BRANCH  23  24
ATOM     24  C   UNL     1      -4.476   2.983  24.556  0.00  0.00    +0.076 A 
ATOM     25  C   UNL     1      -5.083   2.425  24.605  0.00  0.00    +0.028 A 
ATOM     26  C   UNL     1      -5.681   2.515  25.167  0.00  0.00    +0.059 A 
ATOM     27 CL   UNL     1      -6.287   1.958  25.216  0.00  0.00    -0.082 Cl
ATOM     28  C   UNL     1      -5.672   3.162  25.679  0.00  0.00    +0.011 A 
ATOM     29  C   UNL     1      -5.067   3.719  25.630  0.00  0.00    +0.002 A 
ATOM     30  C   UNL     1      -4.469   3.630  25.068  0.00  0.00    +0.017 A 
ENDBRANCH  23  24
ENDBRANCH  17  20
BRANCH  10   9
ATOM      9  C   UNL     1      -1.300  -0.616  23.981  0.00  0.00    +0.027 C 
BRANCH   9   8
ATOM      8  C   UNL     1      -1.555  -1.041  24.641  0.00  0.00    +0.087 C 
BRANCH   8   6
ATOM      3  N   UNL     1      -2.620  -1.943  24.943  0.00  0.00    -0.280 N 
ATOM      6  C   UNL     1      -1.919  -1.774  24.543  0.00  0.00    +0.226 C 
ATOM      7  O   UNL     1      -1.581  -2.340  24.046  0.00  0.00    -0.275 OA
BRANCH   3   2
ATOM      1  C   UNL     1      -3.713  -2.729  24.461  0.00  0.00    +0.023 C 
ATOM      2  C   UNL     1      -2.985  -2.677  24.845  0.00  0.00    +0.093 C 
ENDBRANCH   3   2
BRANCH   3   4
ATOM      4  C   UNL     1      -2.959  -1.378  25.440  0.00  0.00    +0.093 C 
ATOM      5  C   UNL     1      -3.314  -1.612  26.148  0.00  0.00    +0.023 C 
ENDBRANCH   3   4
ENDBRANCH   8   6
ENDBRANCH   9   8
ENDBRANCH  10   9
TORSDOF 7
ENDMDL
MODEL 6
REMARK VINA RESULT:      -9.5      2.116      4.352
REMARK  Name = 
REMARK  7 active torsions:
REMARK  status: ('A' for Active; 'I' for Inactive)
REMARK    1  A    between atoms: C_2  and  N_3
REMARK    2  A    between atoms: N_3  and  C_4
REMARK    3  A    between atoms: C_6  and  C_8
REMARK    4  A    between atoms: C_8  and  C_9
REMARK    5  A    between atoms: C_9  and  C_10
REMARK    6  A    between atoms: C_17  and  N_20
REMARK    7  A    between atoms: N_23  and  C_24
REMARK                            x       y       z     vdW  Elec       q    Type
REMARK                         _______ _______ _______ _____ _____    ______ ____
ROOT
ATOM     10  C   UNL     1      -1.735  -1.012  24.420  0.00  0.00    +0.080 C 
ATOM     11  C   UNL     1      -1.414  -1.726  24.681  0.00  0.00    +0.131 C 
ATOM     12  N   UNL     1      -1.910  -2.321  24.965  0.00  0.00    -0.203 NA
ATOM     13  C   UNL     1      -2.726  -2.201  24.989  0.00  0.00    +0.256 C 
ATOM     14  O   UNL     1      -3.222  -2.797  25.273  0.00  0.00    -0.272 OA
ATOM     15  C   UNL     1      -3.046  -1.487  24.728  0.00  0.00    +0.138 C 
ATOM     16  C   UNL     1      -3.823  -1.213  24.686  0.00  0.00    +0.049 C 
ATOM     17  C   UNL     1      -3.807  -0.449  24.376  0.00  0.00    +0.115 C 
ATOM     18  C   UNL     1      -3.021  -0.250  24.226  0.00  0.00    +0.094 C 
ATOM     19  N   UNL     1      -2.551  -0.893  24.444  0.00  0.00    -0.265 NA
ENDROOT
BRANCH  17  20
ATOM     20  N   UNL     1      -4.463   0.033  24.239  0.00  0.00    -0.187 NA
ATOM     21  C   UNL     1      -4.575   0.715  24.689  0.00  0.00    +0.343 C 
ATOM     22  O   UNL     1      -4.031   0.915  25.276  0.00  0.00    -0.249 OA
ATOM     23  N   UNL     1      -5.231   1.196  24.552  0.00  0.00    -0.161 NA
BRANCH  23  24
ATOM     24  C   UNL     1      -5.343   1.878  25.002  0.00  0.00    +0.076 A 
ATOM     25  C   UNL     1      -4.960   2.579  24.792  0.00  0.00    +0.028 A 
ATOM     26  C   UNL     1      -5.073   3.261  25.243  0.00  0.00    +0.059 A 
ATOM     27 CL   UNL     1      -4.690   3.961  25.033  0.00  0.00    -0.082 Cl
ATOM     28  C   UNL     1      -5.567   3.242  25.903  0.00  0.00    +0.011 A 
ATOM     29  C   UNL     1      -5.949   2.543  26.113  0.00  0.00    +0.002 A 
ATOM     30  C   UNL     1      -5.837   1.861  25.662  0.00  0.00    +0.017 A 
ENDBRANCH  23  24
ENDBRANCH  17  20
BRANCH  10   9
ATOM      9  C   UNL     1      -1.238  -0.417  24.135  0.00  0.00    +0.027 C 
BRANCH   9   8
ATOM      8  C   UNL     1      -0.779   0.023  24.661  0.00  0.00    +0.087 C 
BRANCH   8   6
ATOM      3  N   UNL     1      -0.160   1.303  24.800  0.00  0.00    -0.280 N 
ATOM      6  C   UNL     1      -0.269   0.605  24.374  0.00  0.00    +0.226 C 
ATOM      7  O   UNL     1       0.132   0.489  23.663  0.00  0.00    -0.275 OA
BRANCH   3   2
ATOM      1  C   UNL     1       0.053   2.623  24.293  0.00  0.00    +0.023 C 
ATOM      2  C   UNL     1       0.350   1.886  24.514  0.00  0.00    +0.093 C 
ENDBRANCH   3   2
BRANCH   3   4
ATOM      4  C   UNL     1      -0.561   1.420  25.511  0.00  0.00    +0.093 C 
ATOM      5  C   UNL     1      -0.248   1.929  26.081  0.00  0.00    +0.023 C 
ENDBRANCH   3   4
ENDBRANCH   8   6
ENDBRANCH   9   8
ENDBRANCH  10   9
TORSDOF 7
ENDMDL
MODEL 7
REMARK VINA RESULT:      -9.4      1.717      3.582
REMARK  Name = 
REMARK  7 active torsions:
REMARK  status: ('A' for Active; 'I' for Inactive)
REMARK    1  A    between atoms: C_2  and  N_3
REMARK    2  A    between atoms: N_3  and  C_4
REMARK    3  A    between atoms: C_6  and  C_8
REMARK    4  A    between atoms: C_8  and  C_9
REMARK    5  A    between atoms: C_9  and  C_10
REMARK    6  A    between atoms: C_17  and  N_20
REMARK    7  A    between atoms: N_23  and  C_24
REMARK                            x       y       z     vdW  Elec       q    Type
REMARK                         _______ _______ _______ _____ _____    ______ ____
ROOT
ATOM     10  C   UNL     1      -2.457   3.407  24.563  0.00  0.00    +0.080 C 
ATOM     11  C   UNL     1      -2.363   4.134  24.940  0.00  0.00    +0.131 C 
ATOM     12  N   UNL     1      -1.626   4.348  25.244  0.00  0.00    -0.203 NA
ATOM     13  C   UNL     1      -0.984   3.835  25.170  0.00  0.00    +0.256 C 
ATOM     14  O   UNL     1      -0.248   4.050  25.474  0.00  0.00    -0.272 OA
ATOM     15  C   UNL     1      -1.079   3.108  24.792  0.00  0.00    +0.138 C 
ATOM     16  C   UNL     1      -0.551   2.493  24.638  0.00  0.00    +0.049 C 
ATOM     17  C   UNL     1      -0.961   1.899  24.239  0.00  0.00    +0.115 C 
ATOM     18  C   UNL     1      -1.743   2.146  24.146  0.00  0.00    +0.094 C 
ATOM     19  N   UNL     1      -1.815   2.894  24.489  0.00  0.00    -0.265 NA
ENDROOT
BRANCH  17  20
ATOM     20  N   UNL     1      -0.645   1.183  23.978  0.00  0.00    -0.187 NA
ATOM     21  C   UNL     1      -0.860   0.478  24.349  0.00  0.00    +0.343 C 
ATOM     22  O   UNL     1      -1.390   0.489  24.981  0.00  0.00    -0.249 OA
ATOM     23  N   UNL     1      -0.544  -0.238  24.088  0.00  0.00    -0.161 NA
BRANCH  23  24
ATOM     24  C   UNL     1      -0.759  -0.943  24.459  0.00  0.00    +0.076 A 
ATOM     25  C   UNL     1      -1.394  -1.385  24.170  0.00  0.00    +0.028 A 
ATOM     26  C   UNL     1      -1.608  -2.090  24.541  0.00  0.00    +0.059 A 
ATOM     27 CL   UNL     1      -2.242  -2.531  24.253  0.00  0.00    -0.082 Cl
ATOM     28  C   UNL     1      -1.188  -2.353  25.201  0.00  0.00    +0.011 A 
ATOM     29  C   UNL     1      -0.554  -1.912  25.489  0.00  0.00    +0.002 A 
ATOM     30  C   UNL     1      -0.339  -1.207  25.118  0.00  0.00    +0.017 A 
ENDBRANCH  23  24
ENDBRANCH  17  20
BRANCH  10   9
ATOM      9  C   UNL     1      -3.194   3.193  24.259  0.00  0.00    +0.027 C 
BRANCH   9   8
ATOM      8  C   UNL     1      -3.855   3.176  24.752  0.00  0.00    +0.087 C 
BRANCH   8   6
ATOM      3  N   UNL     1      -5.156   2.656  25.028  0.00  0.00    -0.280 N 
ATOM      6  C   UNL     1      -4.556   2.832  24.490  0.00  0.00    +0.226 C 
ATOM      7  O   UNL     1      -4.659   2.662  23.689  0.00  0.00    -0.275 OA
BRANCH   3   2
ATOM      1  C   UNL     1      -6.105   1.588  25.078  0.00  0.00    +0.023 C 
ATOM      2  C   UNL     1      -5.859   2.311  24.766  0.00  0.00    +0.093 C 
ENDBRANCH   3   2
BRANCH   3   4
ATOM      4  C   UNL     1      -5.054   2.825  25.829  0.00  0.00    +0.093 C 
ATOM      5  C   UNL     1      -5.694   3.091  26.279  0.00  0.00    +0.023 C 
ENDBRANCH   3   4
ENDBRANCH   8   6
ENDBRANCH   9   8
ENDBRANCH  10   9
TORSDOF 7
ENDMDL
