MODEL 1
REMARK VINA RESULT:     -13.0      0.000      0.000
REMARK  Name = 
REMARK  3 active torsions:
REMARK  status: ('A' for Active; 'I' for Inactive)
REMARK    1  A    between atoms: C_7  and  C_9
REMARK    2  A    between atoms: N_12  and  C_13
REMARK    3  A    between atoms: C_13  and  C_14
REMARK                            x       y       z     vdW  Elec       q    Type
REMARK                         _______ _______ _______ _____ _____    ______ ____
ROOT
ATOM      9  C   UNL     1      -3.083   1.857  24.358  0.00  0.00    +0.076 C 
ATOM     10  C   UNL     1      -3.201   1.546  23.604  0.00  0.00    +0.026 C 
ATOM     11  C   UNL     1      -3.689   0.884  23.673  0.00  0.00    +0.073 C 
ATOM     12  N   UNL     1      -3.874   0.787  24.471  0.00  0.00    -0.269 NA
ATOM     21  C   UNL     1      -3.499   1.388  24.894  0.00  0.00    +0.080 C 
ENDROOT
BRANCH   9   7
ATOM      1  F   UNL     1      -1.442   5.705  25.425  0.00  0.00    -0.204 F 
ATOM      2  C   UNL     1      -1.491   4.911  25.208  0.00  0.00    +0.142 A 
ATOM      3  C   UNL     1      -2.227   4.556  25.103  0.00  0.00    +0.050 A 
ATOM      4  C   UNL     1      -2.276   3.761  24.886  0.00  0.00    +0.102 A 
ATOM      5  C   UNL     1      -1.587   3.322  24.774  0.00  0.00    +0.100 A 
ATOM      6  N   UNL     1      -1.806   2.555  24.563  0.00  0.00    -0.229 NA
ATOM      7  C   UNL     1      -2.629   2.521  24.544  0.00  0.00    +0.140 A 
ATOM      8  N   UNL     1      -2.920   3.266  24.744  0.00  0.00    -0.229 NA
ATOM     22  C   UNL     1      -0.849   3.677  24.879  0.00  0.00    +0.023 A 
ATOM     23  C   UNL     1      -0.802   4.471  25.096  0.00  0.00    +0.031 A 
ENDBRANCH   9   7
BRANCH  12  13
ATOM     13  C   UNL     1      -4.349   0.193  24.790  0.00  0.00    +0.099 C 
BRANCH  13  14
ATOM     14  C   UNL     1      -4.081  -0.587  24.804  0.00  0.00    -0.006 A 
ATOM     15  C   UNL     1      -4.231  -1.086  24.163  0.00  0.00    -0.002 A 
ATOM     16  C   UNL     1      -3.963  -1.866  24.178  0.00  0.00    +0.011 A 
ATOM     17  C   UNL     1      -3.546  -2.148  24.831  0.00  0.00    +0.058 A 
ATOM     18 CL   UNL     1      -3.279  -2.928  24.845  0.00  0.00    -0.082 Cl
ATOM     19  C   UNL     1      -3.397  -1.649  25.472  0.00  0.00    +0.011 A 
ATOM     20  C   UNL     1      -3.665  -0.868  25.458  0.00  0.00    -0.002 A 
ENDBRANCH  13  14
ENDBRANCH  12  13
TORSDOF 3
ENDMDL
MODEL 2
REMARK VINA RESULT:     -12.8      2.747      5.241
REMARK  Name = 
REMARK  3 active torsions:
REMARK  status: ('A' for Active; 'I' for Inactive)
REMARK    1  A    between atoms: C_7  and  C_9
REMARK    2  A    between atoms: N_12  and  C_13
REMARK    3  A    between atoms: C_13  and  C_14
REMARK                            x       y       z     vdW  Elec       q    Type
REMARK                         _______ _______ _______ _____ _____    ______ ____
ROOT
ATOM      9  C   UNL     1      -4.472   0.819  24.836  0.00  0.00    +0.076 C 
ATOM     10  C   UNL     1      -5.115   1.131  25.249  0.00  0.00    +0.026 C 
ATOM     11  C   UNL     1      -5.126   1.947  25.127  0.00  0.00    +0.073 C 
ATOM     12  N   UNL     1      -4.490   2.140  24.639  0.00  0.00    -0.269 NA
ATOM     21  C   UNL     1      -4.086   1.443  24.459  0.00  0.00    +0.080 C 
ENDROOT
BRANCH   9   7
ATOM      1  F   UNL     1      -3.710  -3.334  23.940  0.00  0.00    -0.204 F 
ATOM      2  C   UNL     1      -3.721  -2.611  24.336  0.00  0.00    +0.142 A 
ATOM      3  C   UNL     1      -4.088  -1.958  23.992  0.00  0.00    +0.050 A 
ATOM      4  C   UNL     1      -4.098  -1.234  24.388  0.00  0.00    +0.102 A 
ATOM      5  C   UNL     1      -3.741  -1.164  25.129  0.00  0.00    +0.100 A 
ATOM      6  N   UNL     1      -3.837  -0.387  25.386  0.00  0.00    -0.229 NA
ATOM      7  C   UNL     1      -4.254   0.024  24.806  0.00  0.00    +0.140 A 
ATOM      8  N   UNL     1      -4.415  -0.500  24.189  0.00  0.00    -0.229 NA
ATOM     22  C   UNL     1      -3.373  -1.819  25.473  0.00  0.00    +0.023 A 
ATOM     23  C   UNL     1      -3.363  -2.542  25.076  0.00  0.00    +0.031 A 
ENDBRANCH   9   7
BRANCH  12  13
ATOM     13  C   UNL     1      -4.292   2.896  24.376  0.00  0.00    +0.099 C 
BRANCH  13  14
ATOM     14  C   UNL     1      -3.649   3.293  24.707  0.00  0.00    -0.006 A 
ATOM     15  C   UNL     1      -2.913   3.271  24.333  0.00  0.00    -0.002 A 
ATOM     16  C   UNL     1      -2.271   3.669  24.664  0.00  0.00    +0.011 A 
ATOM     17  C   UNL     1      -2.362   4.087  25.369  0.00  0.00    +0.058 A 
ATOM     18 CL   UNL     1      -1.720   4.484  25.699  0.00  0.00    -0.082 Cl
ATOM     19  C   UNL     1      -3.098   4.109  25.743  0.00  0.00    +0.011 A 
ATOM     20  C   UNL     1      -3.741   3.711  25.412  0.00  0.00    -0.002 A 
ENDBRANCH  13  14
ENDBRANCH  12  13
TORSDOF 3
ENDMDL
MODEL 3
REMARK VINA RESULT:     -12.1      2.945      5.460
REMARK  Name = 
REMARK  3 active torsions:
REMARK  status: ('A' for Active; 'I' for Inactive)
REMARK    1  A    between atoms: C_7  and  C_9
REMARK    2  A    between atoms: N_12  and  C_13
REMARK    3  A    between atoms: C_13  and  C_14
REMARK                            x       y       z     vdW  Elec       q    Type
REMARK                         _______ _______ _______ _____ _____    ______ ____
ROOT
ATOM      9  C   UNL     1      -1.531   0.477  24.796  0.00  0.00    +0.076 C 
ATOM     10  C   UNL     1      -0.865   0.627  24.333  0.00  0.00    +0.026 C 
ATOM     11  C   UNL     1      -0.468   1.273  24.657  0.00  0.00    +0.073 C 
ATOM     12  N   UNL     1      -0.889   1.523  25.321  0.00  0.00    -0.269 NA
ATOM     21  C   UNL     1      -1.546   1.030  25.407  0.00  0.00    +0.080 C 
ENDROOT
BRANCH   9   7
ATOM      1  F   UNL     1      -3.850  -3.150  24.472  0.00  0.00    -0.204 F 
ATOM      2  C   UNL     1      -3.632  -2.356  24.421  0.00  0.00    +0.142 A 
ATOM      3  C   UNL     1      -2.892  -2.113  24.690  0.00  0.00    +0.050 A 
ATOM      4  C   UNL     1      -2.674  -1.319  24.638  0.00  0.00    +0.102 A 
ATOM      5  C   UNL     1      -3.197  -0.768  24.318  0.00  0.00    +0.100 A 
ATOM      6  N   UNL     1      -2.833  -0.029  24.338  0.00  0.00    -0.229 NA
ATOM      7  C   UNL     1      -2.085  -0.122  24.671  0.00  0.00    +0.140 A 
ATOM      8  N   UNL     1      -1.987  -0.920  24.856  0.00  0.00    -0.229 NA
ATOM     22  C   UNL     1      -3.939  -1.011  24.049  0.00  0.00    +0.023 A 
ATOM     23  C   UNL     1      -4.156  -1.805  24.100  0.00  0.00    +0.031 A 
ENDBRANCH   9   7
BRANCH  12  13
ATOM     13  C   UNL     1      -0.689   2.154  25.813  0.00  0.00    +0.099 C 
BRANCH  13  14
ATOM     14  C   UNL     1      -0.931   2.920  25.622  0.00  0.00    -0.006 A 
ATOM     15  C   UNL     1      -1.652   3.207  25.904  0.00  0.00    -0.002 A 
ATOM     16  C   UNL     1      -1.892   3.973  25.713  0.00  0.00    +0.011 A 
ATOM     17  C   UNL     1      -1.414   4.450  25.240  0.00  0.00    +0.058 A 
ATOM     18 CL   UNL     1      -1.656   5.215  25.049  0.00  0.00    -0.082 Cl
ATOM     19  C   UNL     1      -0.694   4.163  24.958  0.00  0.00    +0.011 A 
ATOM     20  C   UNL     1      -0.452   3.397  25.149  0.00  0.00    -0.002 A 
ENDBRANCH  13  14
ENDBRANCH  12  13
TORSDOF 3
ENDMDL
