MODEL 1
REMARK VINA RESULT:      -8.5      0.000      0.000
REMARK  Name = 
REMARK  6 active torsions:
REMARK  status: ('A' for Active; 'I' for Inactive)
REMARK    1  A    between atoms: N_2  and  C_4
REMARK    2  A    between atoms: C_7  and  C_10
REMARK    3  A    between atoms: N_15  and  C_16
REMARK    4  A    between atoms: C_20  and  N_24
REMARK    5  A    between atoms: C_25  and  C_27
REMARK    6  A    between atoms: C_32  and  C_33
REMARK                            x       y       z     vdW  Elec       q    Type
REMARK                         _______ _______ _______ _____ _____    ______ ____
ROOT
ATOM     16  C   UNL     1      -0.314   1.241  23.836  0.00  0.00    +0.154 C 
ATOM     17  C   UNL     1      -0.737   1.258  23.128  0.00  0.00    +0.166 C 
ATOM     18  O   UNL     1      -1.541   1.281  23.313  0.00  0.00    -0.350 OA
ATOM     19  C   UNL     1      -1.614   1.277  24.134  0.00  0.00    +0.166 C 
ATOM     20  C   UNL     1      -2.155   1.289  24.757  0.00  0.00    +0.155 C 
ATOM     21  C   UNL     1      -1.732   1.272  25.464  0.00  0.00    +0.166 C 
ATOM     22  O   UNL     1      -0.928   1.249  25.279  0.00  0.00    -0.350 OA
ATOM     23  C   UNL     1      -0.856   1.253  24.457  0.00  0.00    +0.166 C 
ENDROOT
BRANCH  16  15
ATOM     10  C   UNL     1       2.217   0.221  22.985  0.00  0.00    +0.086 A 
ATOM     11  C   UNL     1       1.840  -0.239  22.414  0.00  0.00    +0.040 A 
ATOM     12  C   UNL     1       1.018  -0.215  22.341  0.00  0.00    +0.103 A 
ATOM     13  N   UNL     1       0.574   0.270  22.839  0.00  0.00    -0.211 NA
ATOM     14  C   UNL     1       0.952   0.731  23.410  0.00  0.00    +0.237 A 
ATOM     15  N   UNL     1       0.508   1.216  23.909  0.00  0.00    -0.200 NA
ATOM     36  N   UNL     1       1.773   0.706  23.483  0.00  0.00    -0.212 NA
BRANCH  10   7
ATOM      4  C   UNL     1       4.682   0.145  23.203  0.00  0.00    +0.048 A 
ATOM      5  C   UNL     1       4.315   0.813  22.884  0.00  0.00    +0.015 A 
ATOM      6  C   UNL     1       3.494   0.838  22.811  0.00  0.00    +0.003 A 
ATOM      7  C   UNL     1       3.038   0.196  23.057  0.00  0.00    +0.018 A 
ATOM      8  C   UNL     1       3.404  -0.471  23.376  0.00  0.00    +0.003 A 
ATOM      9  C   UNL     1       4.225  -0.497  23.449  0.00  0.00    +0.015 A 
BRANCH   4   2
ATOM      1  C   UNL     1       5.867   0.441  23.942  0.00  0.00    +0.112 C 
ATOM      2  N   UNL     1       5.502   0.120  23.275  0.00  0.00    -0.304 N 
ATOM      3  C   UNL     1       5.959  -0.225  22.681  0.00  0.00    +0.112 C 
ENDBRANCH   4   2
ENDBRANCH  10   7
ENDBRANCH  16  15
BRANCH  20  24
ATOM     24  N   UNL     1      -2.977   1.314  24.684  0.00  0.00    -0.198 NA
ATOM     25  C   UNL     1      -3.411   1.882  25.096  0.00  0.00    +0.265 C 
ATOM     26  O   UNL     1      -3.024   2.425  25.582  0.00  0.00    -0.268 OA
BRANCH  25  27
ATOM     27  C   UNL     1      -4.233   1.906  25.024  0.00  0.00    +0.061 A 
ATOM     28  C   UNL     1      -4.675   1.215  25.104  0.00  0.00    +0.005 A 
ATOM     29  C   UNL     1      -5.496   1.239  25.032  0.00  0.00    +0.000 A 
ATOM     30  C   UNL     1      -5.875   1.956  24.878  0.00  0.00    +0.000 A 
ATOM     31  C   UNL     1      -5.433   2.647  24.797  0.00  0.00    +0.007 A 
ATOM     32  C   UNL     1      -4.611   2.623  24.870  0.00  0.00    +0.084 A 
BRANCH  32  33
ATOM     33  C   UNL     1      -4.169   3.315  24.789  0.00  0.00    +0.388 C 
ATOM     34  O   UNL     1      -3.904   3.550  24.045  0.00  0.00    -0.241 OA
ATOM     35  O   UNL     1      -3.992   3.771  25.454  0.00  0.00    -0.241 OA
ENDBRANCH  32  33
ENDBRANCH  25  27
ENDBRANCH  20  24
TORSDOF 6
ENDMDL
