MODEL 1
REMARK VINA RESULT:     -11.6      0.000      0.000
REMARK  Name = 
REMARK  5 active torsions:
REMARK  status: ('A' for Active; 'I' for Inactive)
REMARK    1  A    between atoms: C_4  and  C_17
REMARK    2  A    between atoms: N_5  and  C_6
REMARK    3  A    between atoms: C_6  and  C_7
REMARK    4  A    between atoms: C_10  and  C_13
REMARK    5  A    between atoms: C_19  and  C_22
REMARK                            x       y       z     vdW  Elec       q    Type
REMARK                         _______ _______ _______ _____ _____    ______ ____
ROOT
ATOM      1  O   UNL     1      -6.318   1.753  25.339  0.00  0.00    -0.222 OA
ATOM      2  C   UNL     1      -5.519   1.785  25.132  0.00  0.00    +0.170 C 
ATOM      3  C   UNL     1      -5.082   2.470  24.994  0.00  0.00    +0.060 C 
ATOM      4  C   UNL     1      -4.311   2.246  24.804  0.00  0.00    +0.140 C 
ATOM      5  N   UNL     1      -4.272   1.423  24.826  0.00  0.00    -0.260 NA
ATOM     16  C   UNL     1      -5.019   1.137  25.029  0.00  0.00    +0.106 C 
ENDROOT
BRANCH   4  17
ATOM     17  C   UNL     1      -3.688   2.756  24.624  0.00  0.00    +0.251 A 
ATOM     18  N   UNL     1      -3.179   3.110  25.167  0.00  0.00    -0.194 NA
ATOM     19  C   UNL     1      -2.642   3.575  24.748  0.00  0.00    +0.180 A 
ATOM     20  N   UNL     1      -2.819   3.508  23.946  0.00  0.00    -0.061 NA
ATOM     21  O   UNL     1      -3.466   3.002  23.869  0.00  0.00    -0.336 OA
BRANCH  19  22
ATOM     22  C   UNL     1      -2.033   4.027  25.075  0.00  0.00    +0.062 C 
ATOM     23  C   UNL     1      -1.263   4.086  25.366  0.00  0.00    +0.008 C 
ATOM     24  C   UNL     1      -1.750   4.752  25.349  0.00  0.00    +0.008 C 
ENDBRANCH  19  22
ENDBRANCH   4  17
BRANCH   5   6
ATOM      6  C   UNL     1      -3.604   0.964  24.671  0.00  0.00    +0.100 C 
BRANCH   6   7
ATOM      7  C   UNL     1      -3.665   0.142  24.638  0.00  0.00    -0.006 A 
ATOM      8  C   UNL     1      -3.855  -0.229  23.927  0.00  0.00    -0.003 A 
ATOM      9  C   UNL     1      -3.917  -1.051  23.894  0.00  0.00    +0.006 A 
ATOM     10  C   UNL     1      -3.789  -1.502  24.572  0.00  0.00    +0.080 A 
ATOM     11  C   UNL     1      -3.599  -1.131  25.285  0.00  0.00    +0.006 A 
ATOM     12  C   UNL     1      -3.537  -0.309  25.318  0.00  0.00    -0.003 A 
BRANCH  10  13
ATOM     13  C   UNL     1      -3.850  -2.324  24.540  0.00  0.00    +0.388 C 
ATOM     14  O   UNL     1      -3.539  -2.786  25.149  0.00  0.00    -0.241 OA
ATOM     15  O   UNL     1      -4.223  -2.685  23.898  0.00  0.00    -0.241 OA
ENDBRANCH  10  13
ENDBRANCH   6   7
ENDBRANCH   5   6
TORSDOF 5
ENDMDL
MODEL 2
REMARK VINA RESULT:     -10.6      1.432      4.625
REMARK  Name = 
REMARK  5 active torsions:
REMARK  status: ('A' for Active; 'I' for Inactive)
REMARK    1  A    between atoms: C_4  and  C_17
REMARK    2  A    between atoms: N_5  and  C_6
REMARK    3  A    between atoms: C_6  and  C_7
REMARK    4  A    between atoms: C_10  and  C_13
REMARK    5  A    between atoms: C_19  and  C_22
REMARK                            x       y       z     vdW  Elec       q    Type
REMARK                         _______ _______ _______ _____ _____    ______ ____
ROOT
ATOM      1  O   UNL     1      -5.780   2.703  25.500  0.00  0.00    -0.222 OA
ATOM      2  C   UNL     1      -5.136   2.245  25.261  0.00  0.00    +0.170 C 
ATOM      3  C   UNL     1      -5.162   1.452  25.038  0.00  0.00    +0.060 C 
ATOM      4  C   UNL     1      -4.396   1.217  24.843  0.00  0.00    +0.140 C 
ATOM      5  N   UNL     1      -3.896   1.865  24.946  0.00  0.00    -0.260 NA
ATOM     16  C   UNL     1      -4.354   2.501  25.205  0.00  0.00    +0.106 C 
ENDROOT
BRANCH   4  17
ATOM     17  C   UNL     1      -4.169   0.465  24.589  0.00  0.00    +0.251 A 
ATOM     18  N   UNL     1      -4.037  -0.190  25.071  0.00  0.00    -0.194 NA
ATOM     19  C   UNL     1      -3.821  -0.823  24.588  0.00  0.00    +0.180 A 
ATOM     20  N   UNL     1      -3.819  -0.558  23.807  0.00  0.00    -0.061 NA
ATOM     21  O   UNL     1      -4.033   0.238  23.808  0.00  0.00    -0.336 OA
BRANCH  19  22
ATOM     22  C   UNL     1      -3.638  -1.586  24.842  0.00  0.00    +0.062 C 
ATOM     23  C   UNL     1      -3.309  -2.093  25.404  0.00  0.00    +0.008 C 
ATOM     24  C   UNL     1      -3.651  -2.403  24.720  0.00  0.00    +0.008 C 
ENDBRANCH  19  22
ENDBRANCH   4  17
BRANCH   5   6
ATOM      6  C   UNL     1      -3.082   1.876  24.814  0.00  0.00    +0.100 C 
BRANCH   6   7
ATOM      7  C   UNL     1      -2.659   2.579  24.900  0.00  0.00    -0.006 A 
ATOM      8  C   UNL     1      -2.606   3.109  24.270  0.00  0.00    -0.003 A 
ATOM      9  C   UNL     1      -2.183   3.812  24.357  0.00  0.00    +0.006 A 
ATOM     10  C   UNL     1      -1.812   3.985  25.073  0.00  0.00    +0.080 A 
ATOM     11  C   UNL     1      -1.865   3.455  25.704  0.00  0.00    +0.006 A 
ATOM     12  C   UNL     1      -2.288   2.752  25.617  0.00  0.00    -0.003 A 
BRANCH  10  13
ATOM     13  C   UNL     1      -1.389   4.688  25.160  0.00  0.00    +0.388 C 
ATOM     14  O   UNL     1      -1.774   5.373  25.412  0.00  0.00    -0.241 OA
ATOM     15  O   UNL     1      -0.581   4.705  24.996  0.00  0.00    -0.241 OA
ENDBRANCH  10  13
ENDBRANCH   6   7
ENDBRANCH   5   6
TORSDOF 5
ENDMDL
MODEL 3
REMARK VINA RESULT:     -10.5      2.148      2.989
REMARK  Name = 
REMARK  5 active torsions:
REMARK  status: ('A' for Active; 'I' for Inactive)
REMARK    1  A    between atoms: C_4  and  C_17
REMARK    2  A    between atoms: N_5  and  C_6
REMARK    3  A    between atoms: C_6  and  C_7
REMARK    4  A    between atoms: C_10  and  C_13
REMARK    5  A    between atoms: C_19  and  C_22
REMARK                            x       y       z     vdW  Elec       q    Type
REMARK                         _______ _______ _______ _____ _____    ______ ____
ROOT
ATOM      1  O   UNL     1       0.439   0.059  23.462  0.00  0.00    -0.222 OA
ATOM      2  C   UNL     1      -0.103   0.461  23.937  0.00  0.00    +0.170 C 
ATOM      3  C   UNL     1      -0.005   1.218  24.248  0.00  0.00    +0.060 C 
ATOM      4  C   UNL     1      -0.679   1.401  24.688  0.00  0.00    +0.140 C 
ATOM      5  N   UNL     1      -1.193   0.758  24.647  0.00  0.00    -0.260 NA
ATOM     16  C   UNL     1      -0.837   0.176  24.183  0.00  0.00    +0.106 C 
ENDROOT
BRANCH   4  17
ATOM     17  C   UNL     1      -0.815   2.106  25.096  0.00  0.00    +0.251 A 
ATOM     18  N   UNL     1      -1.075   2.815  24.766  0.00  0.00    -0.194 NA
ATOM     19  C   UNL     1      -1.135   3.371  25.372  0.00  0.00    +0.180 A 
ATOM     20  N   UNL     1      -0.912   3.005  26.077  0.00  0.00    -0.061 NA
ATOM     21  O   UNL     1      -0.714   2.223  25.906  0.00  0.00    -0.336 OA
BRANCH  19  22
ATOM     22  C   UNL     1      -1.376   4.156  25.288  0.00  0.00    +0.062 C 
ATOM     23  C   UNL     1      -1.946   4.744  25.394  0.00  0.00    +0.008 C 
ATOM     24  C   UNL     1      -1.225   4.927  25.037  0.00  0.00    +0.008 C 
ENDBRANCH  19  22
ENDBRANCH   4  17
BRANCH   5   6
ATOM      6  C   UNL     1      -1.933   0.704  25.008  0.00  0.00    +0.100 C 
BRANCH   6   7
ATOM      7  C   UNL     1      -2.412   0.046  24.872  0.00  0.00    -0.006 A 
ATOM      8  C   UNL     1      -2.334  -0.625  25.345  0.00  0.00    -0.003 A 
ATOM      9  C   UNL     1      -2.813  -1.284  25.209  0.00  0.00    +0.006 A 
ATOM     10  C   UNL     1      -3.370  -1.270  24.601  0.00  0.00    +0.080 A 
ATOM     11  C   UNL     1      -3.448  -0.598  24.128  0.00  0.00    +0.006 A 
ATOM     12  C   UNL     1      -2.969   0.060  24.263  0.00  0.00    -0.003 A 
BRANCH  10  13
ATOM     13  C   UNL     1      -3.849  -1.928  24.465  0.00  0.00    +0.388 C 
ATOM     14  O   UNL     1      -4.448  -1.892  23.899  0.00  0.00    -0.241 OA
ATOM     15  O   UNL     1      -3.728  -2.621  24.896  0.00  0.00    -0.241 OA
ENDBRANCH  10  13
ENDBRANCH   6   7
ENDBRANCH   5   6
TORSDOF 5
ENDMDL
MODEL 4
REMARK VINA RESULT:     -10.2      1.465      2.264
REMARK  Name = 
REMARK  5 active torsions:
REMARK  status: ('A' for Active; 'I' for Inactive)
REMARK    1  A    between atoms: C_4  and  C_17
REMARK    2  A    between atoms: N_5  and  C_6
REMARK    3  A    between atoms: C_6  and  C_7
REMARK    4  A    between atoms: C_10  and  C_13
REMARK    5  A    between atoms: C_19  and  C_22
REMARK                            x       y       z     vdW  Elec       q    Type
REMARK                         _______ _______ _______ _____ _____    ______ ____
ROOT
ATOM      1  O   UNL     1      -0.769   0.979  23.929  0.00  0.00    -0.222 OA
ATOM      2  C   UNL     1      -1.576   1.093  24.062  0.00  0.00    +0.170 C 
ATOM      3  C   UNL     1      -1.974   1.814  24.034  0.00  0.00    +0.060 C 
ATOM      4  C   UNL     1      -2.769   1.672  24.202  0.00  0.00    +0.140 C 
ATOM      5  N   UNL     1      -2.861   0.864  24.334  0.00  0.00    -0.260 NA
ATOM     16  C   UNL     1      -2.124   0.505  24.248  0.00  0.00    +0.106 C 
ENDROOT
BRANCH   4  17
ATOM     17  C   UNL     1      -3.367   2.241  24.232  0.00  0.00    +0.251 A 
ATOM     18  N   UNL     1      -3.732   2.525  24.915  0.00  0.00    -0.194 NA
ATOM     19  C   UNL     1      -4.295   3.084  24.690  0.00  0.00    +0.180 A 
ATOM     20  N   UNL     1      -4.278   3.145  23.867  0.00  0.00    -0.061 NA
ATOM     21  O   UNL     1      -3.705   2.624  23.585  0.00  0.00    -0.336 OA
BRANCH  19  22
ATOM     22  C   UNL     1      -4.788   3.507  25.197  0.00  0.00    +0.062 C 
ATOM     23  C   UNL     1      -4.943   4.185  25.643  0.00  0.00    +0.008 C 
ATOM     24  C   UNL     1      -5.487   3.564  25.633  0.00  0.00    +0.008 C 
ENDBRANCH  19  22
ENDBRANCH   4  17
BRANCH   5   6
ATOM      6  C   UNL     1      -3.568   0.480  24.520  0.00  0.00    +0.100 C 
BRANCH   6   7
ATOM      7  C   UNL     1      -3.593  -0.343  24.560  0.00  0.00    -0.006 A 
ATOM      8  C   UNL     1      -3.790  -0.784  23.892  0.00  0.00    -0.003 A 
ATOM      9  C   UNL     1      -3.815  -1.608  23.933  0.00  0.00    +0.006 A 
ATOM     10  C   UNL     1      -3.642  -1.991  24.643  0.00  0.00    +0.080 A 
ATOM     11  C   UNL     1      -3.444  -1.550  25.312  0.00  0.00    +0.006 A 
ATOM     12  C   UNL     1      -3.420  -0.726  25.271  0.00  0.00    -0.003 A 
BRANCH  10  13
ATOM     13  C   UNL     1      -3.666  -2.814  24.684  0.00  0.00    +0.388 C 
ATOM     14  O   UNL     1      -3.370  -3.203  25.349  0.00  0.00    -0.241 OA
ATOM     15  O   UNL     1      -3.986  -3.249  24.060  0.00  0.00    -0.241 OA
ENDBRANCH  10  13
ENDBRANCH   6   7
ENDBRANCH   5   6
TORSDOF 5
ENDMDL
MODEL 5
REMARK VINA RESULT:     -10.2      2.520      5.531
REMARK  Name = 
REMARK  5 active torsions:
REMARK  status: ('A' for Active; 'I' for Inactive)
REMARK    1  A    between atoms: C_4  and  C_17
REMARK    2  A    between atoms: N_5  and  C_6
REMARK    3  A    between atoms: C_6  and  C_7
REMARK    4  A    between atoms: C_10  and  C_13
REMARK    5  A    between atoms: C_19  and  C_22
REMARK                            x       y       z     vdW  Elec       q    Type
REMARK                         _______ _______ _______ _____ _____    ______ ____
ROOT
ATOM      1  O   UNL     1       0.796   0.624  23.432  0.00  0.00    -0.222 OA
ATOM      2  C   UNL     1       0.124   0.566  23.907  0.00  0.00    +0.170 C 
ATOM      3  C   UNL     1      -0.303  -0.122  24.058  0.00  0.00    +0.060 C 
ATOM      4  C   UNL     1      -0.930   0.072  24.558  0.00  0.00    +0.140 C 
ATOM      5  N   UNL     1      -0.891   0.880  24.714  0.00  0.00    -0.260 NA
ATOM     16  C   UNL     1      -0.239   1.186  24.312  0.00  0.00    +0.106 C 
ENDROOT
BRANCH   4  17
ATOM     17  C   UNL     1      -1.498  -0.451  24.850  0.00  0.00    +0.251 A 
ATOM     18  N   UNL     1      -2.114  -0.790  24.418  0.00  0.00    -0.194 NA
ATOM     19  C   UNL     1      -2.545  -1.275  24.926  0.00  0.00    +0.180 A 
ATOM     20  N   UNL     1      -2.196  -1.237  25.672  0.00  0.00    -0.061 NA
ATOM     21  O   UNL     1      -1.550  -0.728  25.625  0.00  0.00    -0.336 OA
BRANCH  19  22
ATOM     22  C   UNL     1      -3.209  -1.721  24.723  0.00  0.00    +0.062 C 
ATOM     23  C   UNL     1      -3.973  -1.765  24.412  0.00  0.00    +0.008 C 
ATOM     24  C   UNL     1      -3.597  -2.448  24.682  0.00  0.00    +0.008 C 
ENDBRANCH  19  22
ENDBRANCH   4  17
BRANCH   5   6
ATOM      6  C   UNL     1      -1.411   1.309  25.190  0.00  0.00    +0.100 C 
BRANCH   6   7
ATOM      7  C   UNL     1      -1.388   2.134  25.189  0.00  0.00    -0.006 A 
ATOM      8  C   UNL     1      -0.878   2.533  25.699  0.00  0.00    -0.003 A 
ATOM      9  C   UNL     1      -0.855   3.358  25.698  0.00  0.00    +0.006 A 
ATOM     10  C   UNL     1      -1.342   3.783  25.187  0.00  0.00    +0.080 A 
ATOM     11  C   UNL     1      -1.853   3.384  24.676  0.00  0.00    +0.006 A 
ATOM     12  C   UNL     1      -1.876   2.559  24.677  0.00  0.00    -0.003 A 
BRANCH  10  13
ATOM     13  C   UNL     1      -1.320   4.608  25.185  0.00  0.00    +0.388 C 
ATOM     14  O   UNL     1      -1.948   5.038  25.502  0.00  0.00    -0.241 OA
ATOM     15  O   UNL     1      -0.668   5.002  24.867  0.00  0.00    -0.241 OA
ENDBRANCH  10  13
ENDBRANCH   6   7
ENDBRANCH   5   6
TORSDOF 5
ENDMDL
MODEL 6
REMARK VINA RESULT:      -9.6      1.687      2.190
REMARK  Name = 
REMARK  5 active torsions:
REMARK  status: ('A' for Active; 'I' for Inactive)
REMARK    1  A    between atoms: C_4  and  C_17
REMARK    2  A    between atoms: N_5  and  C_6
REMARK    3  A    between atoms: C_6  and  C_7
REMARK    4  A    between atoms: C_10  and  C_13
REMARK    5  A    between atoms: C_19  and  C_22
REMARK                            x       y       z     vdW  Elec       q    Type
REMARK                         _______ _______ _______ _____ _____    ______ ____
ROOT
ATOM      1  O   UNL     1      -2.821   1.958  22.005  0.00  0.00    -0.222 OA
ATOM      2  C   UNL     1      -2.725   1.858  22.819  0.00  0.00    +0.170 C 
ATOM      3  C   UNL     1      -2.272   2.335  23.315  0.00  0.00    +0.060 C 
ATOM      4  C   UNL     1      -2.332   2.035  24.081  0.00  0.00    +0.140 C 
ATOM      5  N   UNL     1      -2.822   1.372  24.057  0.00  0.00    -0.260 NA
ATOM     16  C   UNL     1      -3.065   1.262  23.277  0.00  0.00    +0.106 C 
ENDROOT
BRANCH   4  17
ATOM     17  C   UNL     1      -1.966   2.344  24.753  0.00  0.00    +0.251 A 
ATOM     18  N   UNL     1      -1.206   2.165  25.017  0.00  0.00    -0.194 NA
ATOM     19  C   UNL     1      -1.067   2.596  25.706  0.00  0.00    +0.180 A 
ATOM     20  N   UNL     1      -1.741   3.042  25.868  0.00  0.00    -0.061 NA
ATOM     21  O   UNL     1      -2.297   2.886  25.279  0.00  0.00    -0.336 OA
BRANCH  19  22
ATOM     22  C   UNL     1      -0.374   2.584  26.154  0.00  0.00    +0.062 C 
ATOM     23  C   UNL     1       0.028   2.370  26.843  0.00  0.00    +0.008 C 
ATOM     24  C   UNL     1       0.423   2.776  26.243  0.00  0.00    +0.008 C 
ENDBRANCH  19  22
ENDBRANCH   4  17
BRANCH   5   6
ATOM      6  C   UNL     1      -3.033   0.901  24.701  0.00  0.00    +0.100 C 
BRANCH   6   7
ATOM      7  C   UNL     1      -3.262   0.118  24.582  0.00  0.00    -0.006 A 
ATOM      8  C   UNL     1      -2.697  -0.482  24.578  0.00  0.00    -0.003 A 
ATOM      9  C   UNL     1      -2.926  -1.266  24.460  0.00  0.00    +0.006 A 
ATOM     10  C   UNL     1      -3.722  -1.449  24.345  0.00  0.00    +0.080 A 
ATOM     11  C   UNL     1      -4.289  -0.849  24.349  0.00  0.00    +0.006 A 
ATOM     12  C   UNL     1      -4.059  -0.065  24.467  0.00  0.00    -0.003 A 
BRANCH  10  13
ATOM     13  C   UNL     1      -3.952  -2.232  24.226  0.00  0.00    +0.388 C 
ATOM     14  O   UNL     1      -4.461  -2.423  23.605  0.00  0.00    -0.241 OA
ATOM     15  O   UNL     1      -3.674  -2.825  24.728  0.00  0.00    -0.241 OA
ENDBRANCH  10  13
ENDBRANCH   6   7
ENDBRANCH   5   6
TORSDOF 5
ENDMDL
MODEL 7
REMARK VINA RESULT:      -9.4      2.007      3.154
REMARK  Name = 
REMARK  5 active torsions:
REMARK  status: ('A' for Active; 'I' for Inactive)
REMARK    1  A    between atoms: C_4  and  C_17
REMARK    2  A    between atoms: N_5  and  C_6
REMARK    3  A    between atoms: C_6  and  C_7
REMARK    4  A    between atoms: C_10  and  C_13
REMARK    5  A    between atoms: C_19  and  C_22
REMARK                            x       y       z     vdW  Elec       q    Type
REMARK                         _______ _______ _______ _____ _____    ______ ____
ROOT
ATOM      1  O   UNL     1       0.025   2.871  26.231  0.00  0.00    -0.222 OA
ATOM      2  C   UNL     1      -0.673   2.659  25.846  0.00  0.00    +0.170 C 
ATOM      3  C   UNL     1      -1.325   3.147  25.723  0.00  0.00    +0.060 C 
ATOM      4  C   UNL     1      -1.896   2.711  25.317  0.00  0.00    +0.140 C 
ATOM      5  N   UNL     1      -1.596   1.954  25.189  0.00  0.00    -0.260 NA
ATOM     16  C   UNL     1      -0.840   1.921  25.516  0.00  0.00    +0.106 C 
ENDROOT
BRANCH   4  17
ATOM     17  C   UNL     1      -2.638   2.985  25.080  0.00  0.00    +0.251 A 
ATOM     18  N   UNL     1      -3.335   2.938  25.517  0.00  0.00    -0.194 NA
ATOM     19  C   UNL     1      -3.940   3.279  25.071  0.00  0.00    +0.180 A 
ATOM     20  N   UNL     1      -3.616   3.536  24.358  0.00  0.00    -0.061 NA
ATOM     21  O   UNL     1      -2.812   3.355  24.363  0.00  0.00    -0.336 OA
BRANCH  19  22
ATOM     22  C   UNL     1      -4.730   3.349  25.299  0.00  0.00    +0.062 C 
ATOM     23  C   UNL     1      -5.369   3.819  25.526  0.00  0.00    +0.008 C 
ATOM     24  C   UNL     1      -5.459   3.001  25.466  0.00  0.00    +0.008 C 
ENDBRANCH  19  22
ENDBRANCH   4  17
BRANCH   5   6
ATOM      6  C   UNL     1      -1.984   1.337  24.803  0.00  0.00    +0.100 C 
BRANCH   6   7
ATOM      7  C   UNL     1      -1.709   0.563  24.880  0.00  0.00    -0.006 A 
ATOM      8  C   UNL     1      -1.986   0.085  25.492  0.00  0.00    -0.003 A 
ATOM      9  C   UNL     1      -1.710  -0.689  25.569  0.00  0.00    +0.006 A 
ATOM     10  C   UNL     1      -1.157  -0.985  25.033  0.00  0.00    +0.080 A 
ATOM     11  C   UNL     1      -0.880  -0.507  24.420  0.00  0.00    +0.006 A 
ATOM     12  C   UNL     1      -1.156   0.267  24.343  0.00  0.00    -0.003 A 
BRANCH  10  13
ATOM     13  C   UNL     1      -0.881  -1.758  25.110  0.00  0.00    +0.388 C 
ATOM     14  O   UNL     1      -1.320  -2.385  24.803  0.00  0.00    -0.241 OA
ATOM     15  O   UNL     1      -0.166  -1.904  25.494  0.00  0.00    -0.241 OA
ENDBRANCH  10  13
ENDBRANCH   6   7
ENDBRANCH   5   6
TORSDOF 5
ENDMDL
