MODEL 1
REMARK VINA RESULT:     -16.5      0.000      0.000
REMARK  Name = 
REMARK  4 active torsions:
REMARK  status: ('A' for Active; 'I' for Inactive)
REMARK    1  A    between atoms: C_2  and  C_5
REMARK    2  A    between atoms: C_9  and  S_11
REMARK    3  A    between atoms: S_11  and  N_14
REMARK    4  A    between atoms: C_21  and  C_28
REMARK                            x       y       z     vdW  Elec       q    Type
REMARK                         _______ _______ _______ _____ _____    ______ ____
ROOT
ATOM     14  N   UNL     1      -4.446   1.332  24.618  0.00  0.00    -0.155 NA
ATOM     15  C   UNL     1      -4.919   1.999  24.444  0.00  0.00    +0.098 C 
ATOM     16  C   UNL     1      -4.229   2.705  24.480  0.00  0.00    +0.041 C 
ATOM     17  C   UNL     1      -3.789   3.391  24.472  0.00  0.00    +0.011 C 
ATOM     18  C   UNL     1      -3.680   2.706  24.581  0.00  0.00    +0.056 C 
ATOM     19  C   UNL     1      -4.359   2.035  24.543  0.00  0.00    +0.102 C 
ATOM     20  C   UNL     1      -3.015   2.106  24.782  0.00  0.00    +0.041 A 
ATOM     21  C   UNL     1      -2.205   2.075  24.936  0.00  0.00    +0.012 A 
ATOM     22  C   UNL     1      -1.843   1.351  25.097  0.00  0.00    +0.006 A 
ATOM     23  C   UNL     1      -2.291   0.658  25.104  0.00  0.00    +0.061 A 
ATOM     24  C   UNL     1      -3.101   0.689  24.951  0.00  0.00    +0.261 A 
ATOM     25  O   UNL     1      -3.549  -0.004  24.958  0.00  0.00    -0.267 OA
ATOM     26  N   UNL     1      -3.463   1.413  24.789  0.00  0.00    -0.299 N 
ATOM     27  C   UNL     1      -3.540   2.070  24.690  0.00  0.00    +0.110 C 
ENDROOT
BRANCH  21  28
ATOM     28  C   UNL     1      -1.757   2.768  24.928  0.00  0.00    +0.001 A 
ATOM     29  C   UNL     1      -1.356   2.993  24.243  0.00  0.00    +0.000 A 
ATOM     30  C   UNL     1      -0.908   3.685  24.236  0.00  0.00    +0.000 A 
ATOM     31  C   UNL     1      -0.861   4.154  24.914  0.00  0.00    +0.000 A 
ATOM     32  C   UNL     1      -1.261   3.929  25.599  0.00  0.00    +0.000 A 
ATOM     33  C   UNL     1      -1.709   3.236  25.606  0.00  0.00    +0.000 A 
ENDBRANCH  21  28
BRANCH  14  11
ATOM     11  S   UNL     1      -4.250   0.543  24.757  0.00  0.00    +0.063 S 
ATOM     12  O   UNL     1      -4.014   0.463  23.970  0.00  0.00    -0.153 OA
ATOM     13  O   UNL     1      -4.486   0.622  25.544  0.00  0.00    -0.153 OA
BRANCH  11   9
ATOM      5  C   UNL     1      -3.947  -1.595  24.435  0.00  0.00    +0.073 A 
ATOM      6  C   UNL     1      -3.663  -1.825  25.174  0.00  0.00    +0.004 A 
ATOM      7  C   UNL     1      -3.573  -1.266  25.774  0.00  0.00    +0.001 A 
ATOM      8  C   UNL     1      -3.769  -0.477  25.635  0.00  0.00    +0.020 A 
ATOM      9  C   UNL     1      -4.054  -0.247  24.896  0.00  0.00    +0.122 A 
ATOM     10  C   UNL     1      -4.143  -0.806  24.296  0.00  0.00    +0.024 A 
BRANCH   5   2
ATOM      1  F   UNL     1      -4.126  -2.713  23.235  0.00  0.00    -0.166 F 
ATOM      2  C   UNL     1      -4.036  -2.154  23.835  0.00  0.00    +0.419 C 
ATOM      3  F   UNL     1      -4.854  -2.046  23.856  0.00  0.00    -0.166 F 
ATOM      4  F   UNL     1      -3.218  -2.262  23.814  0.00  0.00    -0.166 F 
ENDBRANCH   5   2
ENDBRANCH  11   9
ENDBRANCH  14  11
TORSDOF 4
ENDMDL
MODEL 2
REMARK VINA RESULT:     -16.5      2.429      4.560
REMARK  Name = 
REMARK  4 active torsions:
REMARK  status: ('A' for Active; 'I' for Inactive)
REMARK    1  A    between atoms: C_2  and  C_5
REMARK    2  A    between atoms: C_9  and  S_11
REMARK    3  A    between atoms: S_11  and  N_14
REMARK    4  A    between atoms: C_21  and  C_28
REMARK                            x       y       z     vdW  Elec       q    Type
REMARK                         _______ _______ _______ _____ _____    ______ ____
ROOT
ATOM     14  N   UNL     1      -1.618   1.262  24.442  0.00  0.00    -0.155 NA
ATOM     15  C   UNL     1      -0.895   0.855  24.341  0.00  0.00    +0.098 C 
ATOM     16  C   UNL     1      -1.220  -0.076  24.394  0.00  0.00    +0.041 C 
ATOM     17  C   UNL     1      -1.324  -0.884  24.415  0.00  0.00    +0.011 C 
ATOM     18  C   UNL     1      -1.721  -0.308  24.468  0.00  0.00    +0.056 C 
ATOM     19  C   UNL     1      -1.392   0.587  24.415  0.00  0.00    +0.102 C 
ATOM     20  C   UNL     1      -2.592  -0.043  24.592  0.00  0.00    +0.041 A 
ATOM     21  C   UNL     1      -3.348  -0.356  24.704  0.00  0.00    +0.012 A 
ATOM     22  C   UNL     1      -3.994   0.149  24.793  0.00  0.00    +0.006 A 
ATOM     23  C   UNL     1      -3.885   0.967  24.772  0.00  0.00    +0.061 A 
ATOM     24  C   UNL     1      -3.130   1.280  24.661  0.00  0.00    +0.261 A 
ATOM     25  O   UNL     1      -3.021   2.097  24.639  0.00  0.00    -0.267 OA
ATOM     26  N   UNL     1      -2.484   0.775  24.571  0.00  0.00    -0.299 N 
ATOM     27  C   UNL     1      -2.127   0.210  24.523  0.00  0.00    +0.110 C 
ENDROOT
BRANCH  21  28
ATOM     28  C   UNL     1      -3.456  -1.173  24.725  0.00  0.00    +0.001 A 
ATOM     29  C   UNL     1      -3.676  -1.578  24.041  0.00  0.00    +0.000 A 
ATOM     30  C   UNL     1      -3.785  -2.396  24.063  0.00  0.00    +0.000 A 
ATOM     31  C   UNL     1      -3.674  -2.809  24.768  0.00  0.00    +0.000 A 
ATOM     32  C   UNL     1      -3.455  -2.404  25.452  0.00  0.00    +0.000 A 
ATOM     33  C   UNL     1      -3.346  -1.586  25.431  0.00  0.00    +0.000 A 
ENDBRANCH  21  28
BRANCH  14  11
ATOM     11  S   UNL     1      -2.141   1.896  24.513  0.00  0.00    +0.063 S 
ATOM     12  O   UNL     1      -2.230   1.915  23.693  0.00  0.00    -0.153 OA
ATOM     13  O   UNL     1      -2.052   1.878  25.334  0.00  0.00    -0.153 OA
BRANCH  11   9
ATOM      5  C   UNL     1      -3.172   3.638  25.331  0.00  0.00    +0.073 A 
ATOM      6  C   UNL     1      -3.709   3.799  24.726  0.00  0.00    +0.004 A 
ATOM      7  C   UNL     1      -3.724   3.326  24.050  0.00  0.00    +0.001 A 
ATOM      8  C   UNL     1      -3.201   2.692  23.979  0.00  0.00    +0.020 A 
ATOM      9  C   UNL     1      -2.664   2.531  24.584  0.00  0.00    +0.122 A 
ATOM     10  C   UNL     1      -2.649   3.003  25.260  0.00  0.00    +0.024 A 
BRANCH   5   2
ATOM      1  F   UNL     1      -3.143   4.584  26.683  0.00  0.00    -0.166 F 
ATOM      2  C   UNL     1      -3.157   4.111  26.006  0.00  0.00    +0.419 C 
ATOM      3  F   UNL     1      -3.875   3.786  26.250  0.00  0.00    -0.166 F 
ATOM      4  F   UNL     1      -2.439   4.436  25.763  0.00  0.00    -0.166 F 
ENDBRANCH   5   2
ENDBRANCH  11   9
ENDBRANCH  14  11
TORSDOF 4
ENDMDL
MODEL 3
REMARK VINA RESULT:     -15.6      2.656      4.506
REMARK  Name = 
REMARK  4 active torsions:
REMARK  status: ('A' for Active; 'I' for Inactive)
REMARK    1  A    between atoms: C_2  and  C_5
REMARK    2  A    between atoms: C_9  and  S_11
REMARK    3  A    between atoms: S_11  and  N_14
REMARK    4  A    between atoms: C_21  and  C_28
REMARK                            x       y       z     vdW  Elec       q    Type
REMARK                         _______ _______ _______ _____ _____    ______ ____
ROOT
ATOM     14  N   UNL     1      -3.784   2.964  25.159  0.00  0.00    -0.155 NA
ATOM     15  C   UNL     1      -4.614   3.031  25.098  0.00  0.00    +0.098 C 
ATOM     16  C   UNL     1      -4.839   2.097  24.867  0.00  0.00    +0.041 C 
ATOM     17  C   UNL     1      -5.184   1.385  24.674  0.00  0.00    +0.011 C 
ATOM     18  C   UNL     1      -4.538   1.634  24.789  0.00  0.00    +0.056 C 
ATOM     19  C   UNL     1      -4.337   2.541  25.013  0.00  0.00    +0.102 C 
ATOM     20  C   UNL     1      -3.658   1.372  24.811  0.00  0.00    +0.041 A 
ATOM     21  C   UNL     1      -3.186   0.704  24.703  0.00  0.00    +0.012 A 
ATOM     22  C   UNL     1      -2.367   0.760  24.790  0.00  0.00    +0.006 A 
ATOM     23  C   UNL     1      -2.021   1.483  24.985  0.00  0.00    +0.061 A 
ATOM     24  C   UNL     1      -2.493   2.150  25.093  0.00  0.00    +0.261 A 
ATOM     25  O   UNL     1      -2.147   2.873  25.288  0.00  0.00    -0.267 OA
ATOM     26  N   UNL     1      -3.311   2.095  25.006  0.00  0.00    -0.299 N 
ATOM     27  C   UNL     1      -3.917   1.833  24.891  0.00  0.00    +0.110 C 
ENDROOT
BRANCH  21  28
ATOM     28  C   UNL     1      -3.532  -0.019  24.508  0.00  0.00    +0.001 A 
ATOM     29  C   UNL     1      -3.743  -0.549  25.103  0.00  0.00    +0.000 A 
ATOM     30  C   UNL     1      -4.089  -1.272  24.908  0.00  0.00    +0.000 A 
ATOM     31  C   UNL     1      -4.225  -1.465  24.118  0.00  0.00    +0.000 A 
ATOM     32  C   UNL     1      -4.014  -0.935  23.522  0.00  0.00    +0.000 A 
ATOM     33  C   UNL     1      -3.667  -0.212  23.717  0.00  0.00    +0.000 A 
ENDBRANCH  21  28
BRANCH  14  11
ATOM     11  S   UNL     1      -3.000   3.193  25.282  0.00  0.00    +0.063 S 
ATOM     12  O   UNL     1      -3.097   3.088  26.095  0.00  0.00    -0.153 OA
ATOM     13  O   UNL     1      -2.903   3.298  24.469  0.00  0.00    -0.153 OA
BRANCH  11   9
ATOM      5  C   UNL     1      -1.104   4.254  25.075  0.00  0.00    +0.073 A 
ATOM      6  C   UNL     1      -0.651   3.877  25.652  0.00  0.00    +0.004 A 
ATOM      7  C   UNL     1      -0.980   3.272  26.105  0.00  0.00    +0.001 A 
ATOM      8  C   UNL     1      -1.764   3.044  25.982  0.00  0.00    +0.020 A 
ATOM      9  C   UNL     1      -2.217   3.421  25.405  0.00  0.00    +0.122 A 
ATOM     10  C   UNL     1      -1.887   4.026  24.952  0.00  0.00    +0.024 A 
BRANCH   5   2
ATOM      1  F   UNL     1      -0.444   5.464  24.167  0.00  0.00    -0.166 F 
ATOM      2  C   UNL     1      -0.774   4.858  24.621  0.00  0.00    +0.419 C 
ATOM      3  F   UNL     1      -0.385   4.299  24.157  0.00  0.00    -0.166 F 
ATOM      4  F   UNL     1      -1.164   5.419  25.086  0.00  0.00    -0.166 F 
ENDBRANCH   5   2
ENDBRANCH  11   9
ENDBRANCH  14  11
TORSDOF 4
ENDMDL
MODEL 4
REMARK VINA RESULT:     -15.0      1.196      2.060
REMARK  Name = 
REMARK  4 active torsions:
REMARK  status: ('A' for Active; 'I' for Inactive)
REMARK    1  A    between atoms: C_2  and  C_5
REMARK    2  A    between atoms: C_9  and  S_11
REMARK    3  A    between atoms: S_11  and  N_14
REMARK    4  A    between atoms: C_21  and  C_28
REMARK                            x       y       z     vdW  Elec       q    Type
REMARK                         _______ _______ _______ _____ _____    ______ ____
ROOT
ATOM     14  N   UNL     1      -1.708   0.259  24.537  0.00  0.00    -0.155 NA
ATOM     15  C   UNL     1      -1.028   0.673  24.285  0.00  0.00    +0.098 C 
ATOM     16  C   UNL     1      -1.406   1.583  24.209  0.00  0.00    +0.041 C 
ATOM     17  C   UNL     1      -1.561   2.375  24.098  0.00  0.00    +0.011 C 
ATOM     18  C   UNL     1      -1.912   1.801  24.296  0.00  0.00    +0.056 C 
ATOM     19  C   UNL     1      -1.532   0.928  24.365  0.00  0.00    +0.102 C 
ATOM     20  C   UNL     1      -2.747   1.522  24.562  0.00  0.00    +0.041 A 
ATOM     21  C   UNL     1      -3.506   1.814  24.700  0.00  0.00    +0.012 A 
ATOM     22  C   UNL     1      -4.104   1.304  24.949  0.00  0.00    +0.006 A 
ATOM     23  C   UNL     1      -3.944   0.502  25.060  0.00  0.00    +0.061 A 
ATOM     24  C   UNL     1      -3.185   0.210  24.922  0.00  0.00    +0.261 A 
ATOM     25  O   UNL     1      -3.025  -0.592  25.034  0.00  0.00    -0.267 OA
ATOM     26  N   UNL     1      -2.586   0.720  24.673  0.00  0.00    -0.299 N 
ATOM     27  C   UNL     1      -2.275   1.282  24.487  0.00  0.00    +0.110 C 
ENDROOT
BRANCH  21  28
ATOM     28  C   UNL     1      -3.666   2.615  24.589  0.00  0.00    +0.001 A 
ATOM     29  C   UNL     1      -3.912   2.888  23.850  0.00  0.00    +0.000 A 
ATOM     30  C   UNL     1      -4.072   3.690  23.739  0.00  0.00    +0.000 A 
ATOM     31  C   UNL     1      -3.987   4.219  24.366  0.00  0.00    +0.000 A 
ATOM     32  C   UNL     1      -3.741   3.946  25.104  0.00  0.00    +0.000 A 
ATOM     33  C   UNL     1      -3.581   3.144  25.216  0.00  0.00    +0.000 A 
ENDBRANCH  21  28
BRANCH  14  11
ATOM     11  S   UNL     1      -2.178  -0.376  24.777  0.00  0.00    +0.063 S 
ATOM     12  O   UNL     1      -1.938  -0.258  25.558  0.00  0.00    -0.153 OA
ATOM     13  O   UNL     1      -2.418  -0.493  23.996  0.00  0.00    -0.153 OA
BRANCH  11   9
ATOM      5  C   UNL     1      -3.373  -2.201  24.704  0.00  0.00    +0.073 A 
ATOM      6  C   UNL     1      -3.586  -2.279  25.497  0.00  0.00    +0.004 A 
ATOM      7  C   UNL     1      -3.330  -1.724  26.050  0.00  0.00    +0.001 A 
ATOM      8  C   UNL     1      -2.860  -1.089  25.810  0.00  0.00    +0.020 A 
ATOM      9  C   UNL     1      -2.647  -1.011  25.017  0.00  0.00    +0.122 A 
ATOM     10  C   UNL     1      -2.904  -1.566  24.464  0.00  0.00    +0.024 A 
BRANCH   5   2
ATOM      1  F   UNL     1      -3.886  -3.312  23.598  0.00  0.00    -0.166 F 
ATOM      2  C   UNL     1      -3.630  -2.756  24.151  0.00  0.00    +0.419 C 
ATOM      3  F   UNL     1      -4.375  -2.402  24.141  0.00  0.00    -0.166 F 
ATOM      4  F   UNL     1      -2.884  -3.110  24.161  0.00  0.00    -0.166 F 
ENDBRANCH   5   2
ENDBRANCH  11   9
ENDBRANCH  14  11
TORSDOF 4
ENDMDL
