MODEL 1
REMARK VINA RESULT:      -9.8      0.000      0.000
REMARK  Name = 
REMARK  6 active torsions:
REMARK  status: ('A' for Active; 'I' for Inactive)
REMARK    1  A    between atoms: C_2  and  N_3
REMARK    2  A    between atoms: N_6  and  C_7
REMARK    3  A    between atoms: C_9  and  C_10
REMARK    4  A    between atoms: C_10  and  C_11
REMARK    5  A    between atoms: C_14  and  C_15
REMARK    6  A    between atoms: C_15  and  N_16
REMARK                            x       y       z     vdW  Elec       q    Type
REMARK                         _______ _______ _______ _____ _____    ______ ____
ROOT
ATOM      7  C   UNL     1      -3.984   2.656  25.031  0.00  0.00    +0.097 C 
ATOM      8  C   UNL     1      -3.695   1.905  24.853  0.00  0.00    +0.022 C 
ATOM      9  C   UNL     1      -4.454   1.594  24.935  0.00  0.00    +0.009 C 
ATOM     20  C   UNL     1      -4.744   2.345  25.113  0.00  0.00    +0.019 C 
ATOM     21  C   UNL     1      -5.550   2.218  25.235  0.00  0.00    +0.002 C 
ATOM     22  C   UNL     1      -5.202   3.003  25.306  0.00  0.00    +0.002 C 
ENDROOT
BRANCH   7   6
ATOM      3  N   UNL     1      -2.497   4.248  25.161  0.00  0.00    -0.187 NA
ATOM      4  C   UNL     1      -2.830   3.497  25.092  0.00  0.00    +0.339 C 
ATOM      5  O   UNL     1      -2.344   2.835  25.017  0.00  0.00    -0.249 OA
ATOM      6  N   UNL     1      -3.651   3.408  25.100  0.00  0.00    -0.189 NA
BRANCH   3   2
ATOM      1  C   UNL     1      -1.344   5.092  25.132  0.00  0.00    +0.025 C 
ATOM      2  C   UNL     1      -1.676   4.337  25.153  0.00  0.00    +0.117 C 
ENDBRANCH   3   2
ENDBRANCH   7   6
BRANCH   9  10
ATOM     10  C   UNL     1      -4.788   0.841  24.866  0.00  0.00    +0.049 C 
BRANCH  10  11
ATOM     11  C   UNL     1      -4.304   0.187  24.725  0.00  0.00    +0.100 A 
ATOM     12  N   UNL     1      -3.943  -0.003  24.009  0.00  0.00    -0.082 NA
ATOM     13  O   UNL     1      -3.513  -0.699  24.116  0.00  0.00    -0.357 OA
ATOM     14  C   UNL     1      -3.608  -0.938  24.900  0.00  0.00    +0.170 A 
ATOM     19  C   UNL     1      -4.098  -0.390  25.277  0.00  0.00    +0.055 A 
BRANCH  14  15
ATOM     15  C   UNL     1      -3.273  -1.608  25.247  0.00  0.00    +0.141 C 
BRANCH  15  16
ATOM     16  N   UNL     1      -3.011  -2.230  24.772  0.00  0.00    -0.264 NA
ATOM     17  C   UNL     1      -3.544  -2.807  24.518  0.00  0.00    +0.090 C 
ATOM     18  C   UNL     1      -2.218  -2.274  24.551  0.00  0.00    +0.090 C 
ENDBRANCH  15  16
ENDBRANCH  14  15
ENDBRANCH  10  11
ENDBRANCH   9  10
TORSDOF 6
ENDMDL
MODEL 2
REMARK VINA RESULT:      -9.6      0.932      4.535
REMARK  Name = 
REMARK  6 active torsions:
REMARK  status: ('A' for Active; 'I' for Inactive)
REMARK    1  A    between atoms: C_2  and  N_3
REMARK    2  A    between atoms: N_6  and  C_7
REMARK    3  A    between atoms: C_9  and  C_10
REMARK    4  A    between atoms: C_10  and  C_11
REMARK    5  A    between atoms: C_14  and  C_15
REMARK    6  A    between atoms: C_15  and  N_16
REMARK                            x       y       z     vdW  Elec       q    Type
REMARK                         _______ _______ _______ _____ _____    ______ ____
ROOT
ATOM      7  C   UNL     1      -4.795   1.254  24.906  0.00  0.00    +0.097 C 
ATOM      8  C   UNL     1      -4.160   1.781  24.871  0.00  0.00    +0.022 C 
ATOM      9  C   UNL     1      -4.658   2.395  25.107  0.00  0.00    +0.009 C 
ATOM     20  C   UNL     1      -5.292   1.870  25.142  0.00  0.00    +0.019 C 
ATOM     21  C   UNL     1      -5.924   2.344  25.379  0.00  0.00    +0.002 C 
ATOM     22  C   UNL     1      -6.025   1.502  25.230  0.00  0.00    +0.002 C 
ENDROOT
BRANCH   7   6
ATOM      3  N   UNL     1      -4.333  -0.826  24.434  0.00  0.00    -0.187 NA
ATOM      4  C   UNL     1      -4.236  -0.019  24.576  0.00  0.00    +0.339 C 
ATOM      5  O   UNL     1      -3.486   0.322  24.532  0.00  0.00    -0.249 OA
ATOM      6  N   UNL     1      -4.891   0.448  24.764  0.00  0.00    -0.189 NA
BRANCH   3   2
ATOM      1  C   UNL     1      -3.763  -2.109  24.167  0.00  0.00    +0.025 C 
ATOM      2  C   UNL     1      -3.678  -1.292  24.247  0.00  0.00    +0.117 C 
ENDBRANCH   3   2
ENDBRANCH   7   6
BRANCH   9  10
ATOM     10  C   UNL     1      -4.561   3.203  25.249  0.00  0.00    +0.049 C 
BRANCH  10  11
ATOM     11  C   UNL     1      -3.830   3.561  25.110  0.00  0.00    +0.100 A 
ATOM     12  N   UNL     1      -3.543   3.808  24.378  0.00  0.00    -0.082 NA
ATOM     13  O   UNL     1      -2.794   4.135  24.494  0.00  0.00    -0.357 OA
ATOM     14  C   UNL     1      -2.620   4.089  25.300  0.00  0.00    +0.170 A 
ATOM     19  C   UNL     1      -3.260   3.734  25.680  0.00  0.00    +0.055 A 
BRANCH  14  15
ATOM     15  C   UNL     1      -1.926   4.352  25.660  0.00  0.00    +0.141 C 
BRANCH  15  16
ATOM     16  N   UNL     1      -1.204   4.279  25.267  0.00  0.00    -0.264 NA
ATOM     17  C   UNL     1      -0.888   4.925  24.862  0.00  0.00    +0.090 C 
ATOM     18  C   UNL     1      -0.798   3.561  25.280  0.00  0.00    +0.090 C 
ENDBRANCH  15  16
ENDBRANCH  14  15
ENDBRANCH  10  11
ENDBRANCH   9  10
TORSDOF 6
ENDMDL
MODEL 3
REMARK VINA RESULT:      -8.5      2.335      4.058
REMARK  Name = 
REMARK  6 active torsions:
REMARK  status: ('A' for Active; 'I' for Inactive)
REMARK    1  A    between atoms: C_2  and  N_3
REMARK    2  A    between atoms: N_6  and  C_7
REMARK    3  A    between atoms: C_9  and  C_10
REMARK    4  A    between atoms: C_10  and  C_11
REMARK    5  A    between atoms: C_14  and  C_15
REMARK    6  A    between atoms: C_15  and  N_16
REMARK                            x       y       z     vdW  Elec       q    Type
REMARK                         _______ _______ _______ _____ _____    ______ ____
ROOT
ATOM      7  C   UNL     1      -1.193   3.133  24.757  0.00  0.00    +0.097 C 
ATOM      8  C   UNL     1      -1.983   2.924  24.867  0.00  0.00    +0.022 C 
ATOM      9  C   UNL     1      -2.155   3.697  25.099  0.00  0.00    +0.009 C 
ATOM     20  C   UNL     1      -1.365   3.906  24.989  0.00  0.00    +0.019 C 
ATOM     21  C   UNL     1      -1.347   4.706  25.189  0.00  0.00    +0.002 C 
ATOM     22  C   UNL     1      -0.637   4.290  24.936  0.00  0.00    +0.002 C 
ENDROOT
BRANCH   7   6
ATOM      3  N   UNL     1       0.123   1.538  24.058  0.00  0.00    -0.187 NA
ATOM      4  C   UNL     1      -0.557   1.937  24.300  0.00  0.00    +0.339 C 
ATOM      5  O   UNL     1      -1.280   1.542  24.329  0.00  0.00    -0.249 OA
ATOM      6  N   UNL     1      -0.513   2.734  24.514  0.00  0.00    -0.189 NA
BRANCH   3   2
ATOM      1  C   UNL     1       0.708   0.388  23.444  0.00  0.00    +0.025 C 
ATOM      2  C   UNL     1       0.079   0.742  23.844  0.00  0.00    +0.117 C 
ENDBRANCH   3   2
ENDBRANCH   7   6
BRANCH   9  10
ATOM     10  C   UNL     1      -2.835   4.096  25.342  0.00  0.00    +0.049 C 
BRANCH  10  11
ATOM     11  C   UNL     1      -3.579   3.767  25.199  0.00  0.00    +0.100 A 
ATOM     12  N   UNL     1      -3.991   3.793  24.485  0.00  0.00    -0.082 NA
ATOM     13  O   UNL     1      -4.708   3.397  24.590  0.00  0.00    -0.357 OA
ATOM     14  C   UNL     1      -4.738   3.127  25.369  0.00  0.00    +0.170 A 
ATOM     19  C   UNL     1      -4.040   3.356  25.745  0.00  0.00    +0.055 A 
BRANCH  14  15
ATOM     15  C   UNL     1      -5.357   2.703  25.712  0.00  0.00    +0.141 C 
BRANCH  15  16
ATOM     16  N   UNL     1      -5.630   2.012  25.354  0.00  0.00    -0.264 NA
ATOM     17  C   UNL     1      -6.333   2.021  24.921  0.00  0.00    +0.090 C 
ATOM     18  C   UNL     1      -5.201   1.311  25.428  0.00  0.00    +0.090 C 
ENDBRANCH  15  16
ENDBRANCH  14  15
ENDBRANCH  10  11
ENDBRANCH   9  10
TORSDOF 6
ENDMDL
MODEL 4
REMARK VINA RESULT:      -8.5      2.077      3.779
REMARK  Name = 
REMARK  6 active torsions:
REMARK  status: ('A' for Active; 'I' for Inactive)
REMARK    1  A    between atoms: C_2  and  N_3
REMARK    2  A    between atoms: N_6  and  C_7
REMARK    3  A    between atoms: C_9  and  C_10
REMARK    4  A    between atoms: C_10  and  C_11
REMARK    5  A    between atoms: C_14  and  C_15
REMARK    6  A    between atoms: C_15  and  N_16
REMARK                            x       y       z     vdW  Elec       q    Type
REMARK                         _______ _______ _______ _____ _____    ______ ____
ROOT
ATOM      7  C   UNL     1      -3.964  -0.552  24.690  0.00  0.00    +0.097 C 
ATOM      8  C   UNL     1      -3.190  -0.483  24.969  0.00  0.00    +0.022 C 
ATOM      9  C   UNL     1      -3.027  -1.246  24.700  0.00  0.00    +0.009 C 
ATOM     20  C   UNL     1      -3.800  -1.314  24.421  0.00  0.00    +0.019 C 
ATOM     21  C   UNL     1      -3.822  -2.072  24.095  0.00  0.00    +0.002 C 
ATOM     22  C   UNL     1      -4.514  -1.559  24.088  0.00  0.00    +0.002 C 
ENDROOT
BRANCH   7   6
ATOM      3  N   UNL     1      -5.216   1.224  24.894  0.00  0.00    -0.187 NA
ATOM      4  C   UNL     1      -4.553   0.733  24.901  0.00  0.00    +0.339 C 
ATOM      5  O   UNL     1      -3.818   1.033  25.124  0.00  0.00    -0.249 OA
ATOM      6  N   UNL     1      -4.627  -0.060  24.683  0.00  0.00    -0.189 NA
BRANCH   3   2
ATOM      1  C   UNL     1      -5.818   2.468  25.259  0.00  0.00    +0.025 C 
ATOM      2  C   UNL     1      -5.143   2.018  25.111  0.00  0.00    +0.117 C 
ENDBRANCH   3   2
ENDBRANCH   7   6
BRANCH   9  10
ATOM     10  C   UNL     1      -2.364  -1.737  24.707  0.00  0.00    +0.049 C 
BRANCH  10  11
ATOM     11  C   UNL     1      -1.611  -1.413  24.808  0.00  0.00    +0.100 A 
ATOM     12  N   UNL     1      -1.271  -1.193  25.527  0.00  0.00    -0.082 NA
ATOM     13  O   UNL     1      -0.517  -0.897  25.372  0.00  0.00    -0.357 OA
ATOM     14  C   UNL     1      -0.392  -0.934  24.557  0.00  0.00    +0.170 A 
ATOM     19  C   UNL     1      -1.068  -1.253  24.209  0.00  0.00    +0.055 A 
BRANCH  14  15
ATOM     15  C   UNL     1       0.291  -0.693  24.160  0.00  0.00    +0.141 C 
BRANCH  15  16
ATOM     16  N   UNL     1       0.276  -0.017  23.687  0.00  0.00    -0.264 NA
ATOM     17  C   UNL     1       0.369  -0.084  22.869  0.00  0.00    +0.090 C 
ATOM     18  C   UNL     1       0.167   0.725  24.030  0.00  0.00    +0.090 C 
ENDBRANCH  15  16
ENDBRANCH  14  15
ENDBRANCH  10  11
ENDBRANCH   9  10
TORSDOF 6
ENDMDL
MODEL 5
REMARK VINA RESULT:      -8.5      2.082      3.494
REMARK  Name = 
REMARK  6 active torsions:
REMARK  status: ('A' for Active; 'I' for Inactive)
REMARK    1  A    between atoms: C_2  and  N_3
REMARK    2  A    between atoms: N_6  and  C_7
REMARK    3  A    between atoms: C_9  and  C_10
REMARK    4  A    between atoms: C_10  and  C_11
REMARK    5  A    between atoms: C_14  and  C_15
REMARK    6  A    between atoms: C_15  and  N_16
REMARK                            x       y       z     vdW  Elec       q    Type
REMARK                         _______ _______ _______ _____ _____    ______ ____
ROOT
ATOM      7  C   UNL     1      -2.372   3.783  25.335  0.00  0.00    +0.097 C 
ATOM      8  C   UNL     1      -2.062   3.020  25.287  0.00  0.00    +0.022 C 
ATOM      9  C   UNL     1      -1.311   3.333  25.155  0.00  0.00    +0.009 C 
ATOM     20  C   UNL     1      -1.619   4.096  25.202  0.00  0.00    +0.019 C 
ATOM     21  C   UNL     1      -0.961   4.579  25.085  0.00  0.00    +0.002 C 
ATOM     22  C   UNL     1      -1.744   4.911  25.218  0.00  0.00    +0.002 C 
ENDROOT
BRANCH   7   6
ATOM      3  N   UNL     1      -4.537   3.929  25.567  0.00  0.00    -0.187 NA
ATOM      4  C   UNL     1      -3.786   3.611  25.440  0.00  0.00    +0.339 C 
ATOM      5  O   UNL     1      -3.699   2.804  25.291  0.00  0.00    -0.249 OA
ATOM      6  N   UNL     1      -3.122   4.101  25.462  0.00  0.00    -0.189 NA
BRANCH   3   2
ATOM      1  C   UNL     1      -5.954   3.762  25.634  0.00  0.00    +0.025 C 
ATOM      2  C   UNL     1      -5.201   3.438  25.545  0.00  0.00    +0.117 C 
ENDBRANCH   3   2
ENDBRANCH   7   6
BRANCH   9  10
ATOM     10  C   UNL     1      -0.560   3.015  25.027  0.00  0.00    +0.049 C 
BRANCH  10  11
ATOM     11  C   UNL     1      -0.451   2.196  25.039  0.00  0.00    +0.100 A 
ATOM     12  N   UNL     1      -0.294   1.738  25.706  0.00  0.00    -0.082 NA
ATOM     13  O   UNL     1      -0.227   0.951  25.466  0.00  0.00    -0.357 OA
ATOM     14  C   UNL     1      -0.342   0.925  24.649  0.00  0.00    +0.170 A 
ATOM     19  C   UNL     1      -0.481   1.694  24.386  0.00  0.00    +0.055 A 
BRANCH  14  15
ATOM     15  C   UNL     1      -0.322   0.247  24.178  0.00  0.00    +0.141 C 
BRANCH  15  16
ATOM     16  N   UNL     1      -0.741  -0.426  24.408  0.00  0.00    -0.264 NA
ATOM     17  C   UNL     1      -0.346  -1.052  24.773  0.00  0.00    +0.090 C 
ATOM     18  C   UNL     1      -1.553  -0.473  24.273  0.00  0.00    +0.090 C 
ENDBRANCH  15  16
ENDBRANCH  14  15
ENDBRANCH  10  11
ENDBRANCH   9  10
TORSDOF 6
ENDMDL
MODEL 6
REMARK VINA RESULT:      -8.5      1.284      4.453
REMARK  Name = 
REMARK  6 active torsions:
REMARK  status: ('A' for Active; 'I' for Inactive)
REMARK    1  A    between atoms: C_2  and  N_3
REMARK    2  A    between atoms: N_6  and  C_7
REMARK    3  A    between atoms: C_9  and  C_10
REMARK    4  A    between atoms: C_10  and  C_11
REMARK    5  A    between atoms: C_14  and  C_15
REMARK    6  A    between atoms: C_15  and  N_16
REMARK                            x       y       z     vdW  Elec       q    Type
REMARK                         _______ _______ _______ _____ _____    ______ ____
ROOT
ATOM      7  C   UNL     1      -3.135  -0.402  24.606  0.00  0.00    +0.097 C 
ATOM      8  C   UNL     1      -3.061   0.416  24.689  0.00  0.00    +0.022 C 
ATOM      9  C   UNL     1      -3.863   0.504  24.516  0.00  0.00    +0.009 C 
ATOM     20  C   UNL     1      -3.936  -0.313  24.433  0.00  0.00    +0.019 C 
ATOM     21  C   UNL     1      -4.733  -0.417  24.246  0.00  0.00    +0.002 C 
ATOM     22  C   UNL     1      -4.195  -1.087  24.312  0.00  0.00    +0.002 C 
ENDROOT
BRANCH   7   6
ATOM      3  N   UNL     1      -1.324  -1.562  24.980  0.00  0.00    -0.187 NA
ATOM      4  C   UNL     1      -1.840  -0.922  24.916  0.00  0.00    +0.339 C 
ATOM      5  O   UNL     1      -1.578  -0.161  25.098  0.00  0.00    -0.249 OA
ATOM      6  N   UNL     1      -2.619  -1.043  24.670  0.00  0.00    -0.189 NA
BRANCH   3   2
ATOM      1  C   UNL     1      -0.038  -2.085  25.318  0.00  0.00    +0.025 C 
ATOM      2  C   UNL     1      -0.545  -1.441  25.226  0.00  0.00    +0.117 C 
ENDBRANCH   3   2
ENDBRANCH   7   6
BRANCH   9  10
ATOM     10  C   UNL     1      -4.379   1.146  24.452  0.00  0.00    +0.049 C 
BRANCH  10  11
ATOM     11  C   UNL     1      -4.078   1.912  24.382  0.00  0.00    +0.100 A 
ATOM     12  N   UNL     1      -3.706   2.227  23.718  0.00  0.00    -0.082 NA
ATOM     13  O   UNL     1      -3.495   3.006  23.889  0.00  0.00    -0.357 OA
ATOM     14  C   UNL     1      -3.737   3.171  24.660  0.00  0.00    +0.170 A 
ATOM     19  C   UNL     1      -4.098   2.495  24.965  0.00  0.00    +0.055 A 
BRANCH  14  15
ATOM     15  C   UNL     1      -3.636   3.888  25.057  0.00  0.00    +0.141 C 
BRANCH  15  16
ATOM     16  N   UNL     1      -2.945   4.028  25.484  0.00  0.00    -0.264 NA
ATOM     17  C   UNL     1      -2.252   4.240  25.089  0.00  0.00    +0.090 C 
ATOM     18  C   UNL     1      -2.946   3.958  26.306  0.00  0.00    +0.090 C 
ENDBRANCH  15  16
ENDBRANCH  14  15
ENDBRANCH  10  11
ENDBRANCH   9  10
TORSDOF 6
ENDMDL
