MODEL 1
REMARK VINA RESULT:      -9.9      0.000      0.000
REMARK  Name = 
REMARK  6 active torsions:
REMARK  status: ('A' for Active; 'I' for Inactive)
REMARK    1  A    between atoms: C_2  and  C_4
REMARK    2  A    between atoms: C_4  and  C_5
REMARK    3  A    between atoms: N_7  and  C_8
REMARK    4  A    between atoms: C_11  and  C_14
REMARK    5  A    between atoms: N_19  and  C_20
REMARK    6  A    between atoms: C_26  and  C_27
REMARK                            x       y       z     vdW  Elec       q    Type
REMARK                         _______ _______ _______ _____ _____    ______ ____
ROOT
ATOM     14  C   UNL     1      -3.633   2.229  24.477  0.00  0.00    +0.159 C 
ATOM     15  O   UNL     1      -4.226   2.794  24.386  0.00  0.00    -0.341 OA
ATOM     16  C   UNL     1      -4.047   3.595  24.467  0.00  0.00    +0.227 C 
ATOM     17  C   UNL     1      -3.275   3.830  24.638  0.00  0.00    +0.256 C 
ATOM     18  O   UNL     1      -3.095   4.632  24.719  0.00  0.00    -0.272 OA
ATOM     19  N   UNL     1      -2.681   3.265  24.728  0.00  0.00    -0.275 N 
ATOM     26  C   UNL     1      -2.861   2.464  24.648  0.00  0.00    +0.139 C 
ENDROOT
BRANCH  14  11
ATOM      8  C   UNL     1      -4.171  -0.176  24.235  0.00  0.00    +0.073 A 
ATOM      9  C   UNL     1      -3.747   0.214  23.644  0.00  0.00    +0.016 A 
ATOM     10  C   UNL     1      -3.568   1.015  23.725  0.00  0.00    -0.001 A 
ATOM     11  C   UNL     1      -3.812   1.427  24.396  0.00  0.00    +0.006 A 
ATOM     12  C   UNL     1      -4.236   1.038  24.987  0.00  0.00    -0.001 A 
ATOM     13  C   UNL     1      -4.415   0.236  24.907  0.00  0.00    +0.016 A 
BRANCH   8   7
ATOM      5  C   UNL     1      -3.792  -1.548  24.364  0.00  0.00    +0.246 C 
ATOM      6  O   UNL     1      -3.055  -1.317  24.653  0.00  0.00    -0.273 OA
ATOM      7  N   UNL     1      -4.350  -0.977  24.155  0.00  0.00    -0.179 NA
BRANCH   5   4
ATOM      4  C   UNL     1      -3.972  -2.349  24.284  0.00  0.00    +0.087 C 
BRANCH   4   2
ATOM      1  C   UNL     1      -2.955  -3.292  23.939  0.00  0.00    +0.001 C 
ATOM      2  C   UNL     1      -3.421  -2.920  24.509  0.00  0.00    +0.009 C 
ATOM      3  C   UNL     1      -3.336  -3.120  25.305  0.00  0.00    +0.001 C 
ENDBRANCH   4   2
ENDBRANCH   5   4
ENDBRANCH   8   7
ENDBRANCH  14  11
BRANCH  19  20
ATOM     20  C   UNL     1      -1.909   3.500  24.899  0.00  0.00    +0.081 C 
ATOM     21  C   UNL     1      -1.349   3.544  24.296  0.00  0.00    +0.052 C 
ATOM     22  C   UNL     1      -0.577   3.779  24.467  0.00  0.00    +0.144 C 
ATOM     23  O   UNL     1      -0.365   3.970  25.241  0.00  0.00    -0.354 OA
ATOM     24  C   UNL     1      -0.926   3.924  25.844  0.00  0.00    +0.144 C 
ATOM     25  C   UNL     1      -1.698   3.689  25.673  0.00  0.00    +0.052 C 
ENDBRANCH  19  20
BRANCH  26  27
ATOM     27  C   UNL     1      -2.267   1.897  24.738  0.00  0.00    +0.205 C 
ATOM     28  O   UNL     1      -2.098   1.593  25.486  0.00  0.00    -0.218 OA
ENDBRANCH  26  27
TORSDOF 6
ENDMDL
MODEL 2
REMARK VINA RESULT:      -9.7      1.854      5.634
REMARK  Name = 
REMARK  6 active torsions:
REMARK  status: ('A' for Active; 'I' for Inactive)
REMARK    1  A    between atoms: C_2  and  C_4
REMARK    2  A    between atoms: C_4  and  C_5
REMARK    3  A    between atoms: N_7  and  C_8
REMARK    4  A    between atoms: C_11  and  C_14
REMARK    5  A    between atoms: N_19  and  C_20
REMARK    6  A    between atoms: C_26  and  C_27
REMARK                            x       y       z     vdW  Elec       q    Type
REMARK                         _______ _______ _______ _____ _____    ______ ____
ROOT
ATOM     14  C   UNL     1      -0.955  -0.164  24.831  0.00  0.00    +0.159 C 
ATOM     15  O   UNL     1      -0.337  -0.700  24.727  0.00  0.00    -0.341 OA
ATOM     16  C   UNL     1      -0.501  -1.501  24.618  0.00  0.00    +0.227 C 
ATOM     17  C   UNL     1      -1.282  -1.766  24.614  0.00  0.00    +0.256 C 
ATOM     18  O   UNL     1      -1.446  -2.568  24.505  0.00  0.00    -0.272 OA
ATOM     19  N   UNL     1      -1.901  -1.230  24.718  0.00  0.00    -0.275 N 
ATOM     26  C   UNL     1      -1.737  -0.429  24.826  0.00  0.00    +0.139 C 
ENDROOT
BRANCH  14  11
ATOM      8  C   UNL     1      -0.465   2.241  25.156  0.00  0.00    +0.073 A 
ATOM      9  C   UNL     1      -0.429   1.910  24.401  0.00  0.00    +0.016 A 
ATOM     10  C   UNL     1      -0.593   1.110  24.292  0.00  0.00    -0.001 A 
ATOM     11  C   UNL     1      -0.792   0.638  24.939  0.00  0.00    +0.006 A 
ATOM     12  C   UNL     1      -0.828   0.967  25.695  0.00  0.00    -0.001 A 
ATOM     13  C   UNL     1      -0.664   1.769  25.803  0.00  0.00    +0.016 A 
BRANCH   8   7
ATOM      5  C   UNL     1      -0.904   3.600  25.189  0.00  0.00    +0.246 C 
ATOM      6  O   UNL     1      -1.671   3.357  25.005  0.00  0.00    -0.273 OA
ATOM      7  N   UNL     1      -0.302   3.041  25.265  0.00  0.00    -0.179 NA
BRANCH   5   4
ATOM      4  C   UNL     1      -0.741   4.401  25.298  0.00  0.00    +0.087 C 
BRANCH   4   2
ATOM      1  C   UNL     1      -2.010   5.033  25.476  0.00  0.00    +0.001 C 
ATOM      2  C   UNL     1      -1.294   4.970  25.072  0.00  0.00    +0.009 C 
ATOM      3  C   UNL     1      -1.131   5.476  24.442  0.00  0.00    +0.001 C 
ENDBRANCH   4   2
ENDBRANCH   5   4
ENDBRANCH   8   7
ENDBRANCH  14  11
BRANCH  19  20
ATOM     20  C   UNL     1      -2.682  -1.495  24.713  0.00  0.00    +0.081 C 
ATOM     21  C   UNL     1      -3.058  -1.681  25.422  0.00  0.00    +0.052 C 
ATOM     22  C   UNL     1      -3.839  -1.946  25.418  0.00  0.00    +0.144 C 
ATOM     23  O   UNL     1      -4.245  -2.024  24.704  0.00  0.00    -0.354 OA
ATOM     24  C   UNL     1      -3.868  -1.837  23.994  0.00  0.00    +0.144 C 
ATOM     25  C   UNL     1      -3.086  -1.573  23.999  0.00  0.00    +0.052 C 
ENDBRANCH  19  20
BRANCH  26  27
ATOM     27  C   UNL     1      -2.355   0.108  24.930  0.00  0.00    +0.205 C 
ATOM     28  O   UNL     1      -2.708   0.462  24.273  0.00  0.00    -0.218 OA
ENDBRANCH  26  27
TORSDOF 6
ENDMDL
MODEL 3
REMARK VINA RESULT:      -9.3      1.559      2.461
REMARK  Name = 
REMARK  6 active torsions:
REMARK  status: ('A' for Active; 'I' for Inactive)
REMARK    1  A    between atoms: C_2  and  C_4
REMARK    2  A    between atoms: C_4  and  C_5
REMARK    3  A    between atoms: N_7  and  C_8
REMARK    4  A    between atoms: C_11  and  C_14
REMARK    5  A    between atoms: N_19  and  C_20
REMARK    6  A    between atoms: C_26  and  C_27
REMARK                            x       y       z     vdW  Elec       q    Type
REMARK                         _______ _______ _______ _____ _____    ______ ____
ROOT
ATOM     14  C   UNL     1      -0.757   1.479  25.316  0.00  0.00    +0.159 C 
ATOM     15  O   UNL     1       0.034   1.659  25.469  0.00  0.00    -0.341 OA
ATOM     16  C   UNL     1       0.256   2.437  25.630  0.00  0.00    +0.227 C 
ATOM     17  C   UNL     1      -0.313   3.035  25.638  0.00  0.00    +0.256 C 
ATOM     18  O   UNL     1      -0.090   3.813  25.800  0.00  0.00    -0.272 OA
ATOM     19  N   UNL     1      -1.103   2.855  25.486  0.00  0.00    -0.275 N 
ATOM     26  C   UNL     1      -1.325   2.077  25.325  0.00  0.00    +0.139 C 
ENDROOT
BRANCH  14  11
ATOM      8  C   UNL     1      -1.423  -0.855  24.832  0.00  0.00    +0.073 A 
ATOM      9  C   UNL     1      -1.494  -0.556  25.598  0.00  0.00    +0.016 A 
ATOM     10  C   UNL     1      -1.273   0.222  25.759  0.00  0.00    -0.001 A 
ATOM     11  C   UNL     1      -0.979   0.701  25.155  0.00  0.00    +0.006 A 
ATOM     12  C   UNL     1      -0.908   0.402  24.389  0.00  0.00    -0.001 A 
ATOM     13  C   UNL     1      -1.130  -0.376  24.228  0.00  0.00    +0.016 A 
BRANCH   8   7
ATOM      5  C   UNL     1      -2.428  -1.807  24.477  0.00  0.00    +0.246 C 
ATOM      6  O   UNL     1      -2.989  -1.203  24.445  0.00  0.00    -0.273 OA
ATOM      7  N   UNL     1      -1.645  -1.633  24.671  0.00  0.00    -0.179 NA
BRANCH   5   4
ATOM      4  C   UNL     1      -2.650  -2.585  24.316  0.00  0.00    +0.087 C 
BRANCH   4   2
ATOM      1  C   UNL     1      -3.989  -2.633  23.820  0.00  0.00    +0.001 C 
ATOM      2  C   UNL     1      -3.437  -2.816  24.404  0.00  0.00    +0.009 C 
ATOM      3  C   UNL     1      -3.671  -3.233  25.076  0.00  0.00    +0.001 C 
ENDBRANCH   4   2
ENDBRANCH   5   4
ENDBRANCH   8   7
ENDBRANCH  14  11
BRANCH  19  20
ATOM     20  C   UNL     1      -1.672   3.454  25.495  0.00  0.00    +0.081 C 
ATOM     21  C   UNL     1      -1.750   3.957  24.847  0.00  0.00    +0.052 C 
ATOM     22  C   UNL     1      -2.318   4.555  24.855  0.00  0.00    +0.144 C 
ATOM     23  O   UNL     1      -2.808   4.650  25.512  0.00  0.00    -0.354 OA
ATOM     24  C   UNL     1      -2.729   4.146  26.160  0.00  0.00    +0.144 C 
ATOM     25  C   UNL     1      -2.161   3.548  26.151  0.00  0.00    +0.052 C 
ENDBRANCH  19  20
BRANCH  26  27
ATOM     27  C   UNL     1      -2.116   1.898  25.172  0.00  0.00    +0.205 C 
ATOM     28  O   UNL     1      -2.408   1.944  24.402  0.00  0.00    -0.218 OA
ENDBRANCH  26  27
TORSDOF 6
ENDMDL
MODEL 4
REMARK VINA RESULT:      -9.1      1.232      5.067
REMARK  Name = 
REMARK  6 active torsions:
REMARK  status: ('A' for Active; 'I' for Inactive)
REMARK    1  A    between atoms: C_2  and  C_4
REMARK    2  A    between atoms: C_4  and  C_5
REMARK    3  A    between atoms: N_7  and  C_8
REMARK    4  A    between atoms: C_11  and  C_14
REMARK    5  A    between atoms: N_19  and  C_20
REMARK    6  A    between atoms: C_26  and  C_27
REMARK                            x       y       z     vdW  Elec       q    Type
REMARK                         _______ _______ _______ _____ _____    ______ ____
ROOT
ATOM     14  C   UNL     1      -3.802  -0.152  24.181  0.00  0.00    +0.159 C 
ATOM     15  O   UNL     1      -4.506  -0.490  23.915  0.00  0.00    -0.341 OA
ATOM     16  C   UNL     1      -4.574  -1.310  23.862  0.00  0.00    +0.227 C 
ATOM     17  C   UNL     1      -3.939  -1.792  24.074  0.00  0.00    +0.256 C 
ATOM     18  O   UNL     1      -4.007  -2.613  24.020  0.00  0.00    -0.272 OA
ATOM     19  N   UNL     1      -3.235  -1.454  24.339  0.00  0.00    -0.275 N 
ATOM     26  C   UNL     1      -3.167  -0.633  24.393  0.00  0.00    +0.139 C 
ENDROOT
BRANCH  14  11
ATOM      8  C   UNL     1      -3.597   2.310  24.341  0.00  0.00    +0.073 A 
ATOM      9  C   UNL     1      -3.237   1.905  23.719  0.00  0.00    +0.016 A 
ATOM     10  C   UNL     1      -3.305   1.086  23.665  0.00  0.00    -0.001 A 
ATOM     11  C   UNL     1      -3.734   0.669  24.234  0.00  0.00    +0.006 A 
ATOM     12  C   UNL     1      -4.094   1.073  24.857  0.00  0.00    -0.001 A 
ATOM     13  C   UNL     1      -4.026   1.894  24.910  0.00  0.00    +0.016 A 
BRANCH   8   7
ATOM      5  C   UNL     1      -2.882   3.467  24.781  0.00  0.00    +0.246 C 
ATOM      6  O   UNL     1      -2.303   2.982  25.114  0.00  0.00    -0.273 OA
ATOM      7  N   UNL     1      -3.529   3.130  24.395  0.00  0.00    -0.179 NA
BRANCH   5   4
ATOM      4  C   UNL     1      -2.814   4.286  24.835  0.00  0.00    +0.087 C 
BRANCH   4   2
ATOM      1  C   UNL     1      -2.489   4.680  26.169  0.00  0.00    +0.001 C 
ATOM      2  C   UNL     1      -2.286   4.623  25.372  0.00  0.00    +0.009 C 
ATOM      3  C   UNL     1      -1.555   4.903  25.112  0.00  0.00    +0.001 C 
ENDBRANCH   4   2
ENDBRANCH   5   4
ENDBRANCH   8   7
ENDBRANCH  14  11
BRANCH  19  20
ATOM     20  C   UNL     1      -2.599  -1.935  24.551  0.00  0.00    +0.081 C 
ATOM     21  C   UNL     1      -1.974  -2.048  24.026  0.00  0.00    +0.052 C 
ATOM     22  C   UNL     1      -1.339  -2.529  24.238  0.00  0.00    +0.144 C 
ATOM     23  O   UNL     1      -1.329  -2.899  24.976  0.00  0.00    -0.354 OA
ATOM     24  C   UNL     1      -1.955  -2.786  25.501  0.00  0.00    +0.144 C 
ATOM     25  C   UNL     1      -2.590  -2.304  25.289  0.00  0.00    +0.052 C 
ENDBRANCH  19  20
BRANCH  26  27
ATOM     27  C   UNL     1      -2.462  -0.295  24.658  0.00  0.00    +0.205 C 
ATOM     28  O   UNL     1      -2.343  -0.171  25.465  0.00  0.00    -0.218 OA
ENDBRANCH  26  27
TORSDOF 6
ENDMDL
