MODEL 1
REMARK VINA RESULT:     -15.8      0.000      0.000
REMARK  Name = 
REMARK  4 active torsions:
REMARK  status: ('A' for Active; 'I' for Inactive)
REMARK    1  A    between atoms: C_7  and  C_8
REMARK    2  A    between atoms: C_18  and  C_20
REMARK    3  A    between atoms: C_20  and  O_21
REMARK    4  A    between atoms: O_21  and  C_22
REMARK                            x       y       z     vdW  Elec       q    Type
REMARK                         _______ _______ _______ _____ _____    ______ ____
ROOT
ATOM      8  C   UNL     1      -2.615   2.863  24.967  0.00  0.00    +0.056 A 
ATOM      9  C   UNL     1      -2.794   3.632  25.206  0.00  0.00    +0.006 A 
ATOM     10  C   UNL     1      -3.573   3.839  25.380  0.00  0.00    +0.013 A 
ATOM     11  C   UNL     1      -4.173   3.277  25.315  0.00  0.00    +0.041 A 
ATOM     12  C   UNL     1      -5.081   3.187  25.427  0.00  0.00    +0.058 C 
ATOM     13  C   UNL     1      -5.652   3.550  25.613  0.00  0.00    +0.011 C 
ATOM     14  C   UNL     1      -5.472   2.792  25.376  0.00  0.00    +0.043 C 
ATOM     15  C   UNL     1      -5.456   1.840  25.111  0.00  0.00    +0.095 C 
ATOM     16  N   UNL     1      -4.638   1.750  24.963  0.00  0.00    -0.276 N 
ATOM     17  C   UNL     1      -5.082   2.266  25.173  0.00  0.00    +0.099 C 
ATOM     18  C   UNL     1      -3.930   1.381  24.755  0.00  0.00    +0.270 C 
ATOM     19  O   UNL     1      -3.224   1.808  24.766  0.00  0.00    -0.271 OA
ATOM     28  C   UNL     1      -4.523   2.877  25.257  0.00  0.00    +0.110 C 
ATOM     29  N   UNL     1      -3.994   2.508  25.076  0.00  0.00    -0.299 N 
ATOM     30  C   UNL     1      -3.215   2.301  24.902  0.00  0.00    +0.261 A 
ATOM     31  O   UNL     1      -2.799   1.633  24.654  0.00  0.00    -0.267 OA
ENDROOT
BRANCH   8   7
ATOM      1  C   UNL     1      -1.455   2.959  26.136  0.00  0.00    +0.031 C 
ATOM      2  C   UNL     1      -1.256   2.705  25.377  0.00  0.00    -0.022 A 
ATOM      3  C   UNL     1      -0.475   2.498  25.202  0.00  0.00    -0.004 A 
ATOM      4  C   UNL     1      -0.277   2.244  24.442  0.00  0.00    -0.000 A 
ATOM      5  C   UNL     1      -0.858   2.196  23.858  0.00  0.00    -0.000 A 
ATOM      6  C   UNL     1      -1.637   2.402  24.033  0.00  0.00    -0.000 A 
ATOM      7  C   UNL     1      -1.836   2.657  24.792  0.00  0.00    +0.001 A 
ENDBRANCH   8   7
BRANCH  18  20
ATOM     20  C   UNL     1      -3.928   0.586  24.535  0.00  0.00    +0.290 C 
BRANCH  20  21
ATOM     21  O   UNL     1      -3.942  -0.002  25.113  0.00  0.00    -0.466 OA
BRANCH  21  22
ATOM     22  C   UNL     1      -3.859  -0.795  24.897  0.00  0.00    +0.139 A 
ATOM     23  C   UNL     1      -4.185  -1.066  24.191  0.00  0.00    +0.037 A 
ATOM     24  C   UNL     1      -4.102  -1.859  23.975  0.00  0.00    +0.003 A 
ATOM     25  C   UNL     1      -3.692  -2.379  24.468  0.00  0.00    +0.000 A 
ATOM     26  C   UNL     1      -3.366  -2.107  25.175  0.00  0.00    +0.003 A 
ATOM     27  C   UNL     1      -3.449  -1.314  25.390  0.00  0.00    +0.037 A 
ENDBRANCH  21  22
ENDBRANCH  20  21
ENDBRANCH  18  20
TORSDOF 4
ENDMDL
MODEL 2
REMARK VINA RESULT:     -15.1      1.249      3.756
REMARK  Name = 
REMARK  4 active torsions:
REMARK  status: ('A' for Active; 'I' for Inactive)
REMARK    1  A    between atoms: C_7  and  C_8
REMARK    2  A    between atoms: C_18  and  C_20
REMARK    3  A    between atoms: C_20  and  O_21
REMARK    4  A    between atoms: O_21  and  C_22
REMARK                            x       y       z     vdW  Elec       q    Type
REMARK                         _______ _______ _______ _____ _____    ______ ____
ROOT
ATOM      8  C   UNL     1      -3.343   0.097  25.111  0.00  0.00    +0.056 A 
ATOM      9  C   UNL     1      -4.047  -0.320  25.217  0.00  0.00    +0.006 A 
ATOM     10  C   UNL     1      -4.770   0.077  25.187  0.00  0.00    +0.013 A 
ATOM     11  C   UNL     1      -4.788   0.890  25.051  0.00  0.00    +0.041 A 
ATOM     12  C   UNL     1      -5.382   1.586  24.963  0.00  0.00    +0.058 C 
ATOM     13  C   UNL     1      -6.069   1.728  24.974  0.00  0.00    +0.011 C 
ATOM     14  C   UNL     1      -5.372   2.136  24.870  0.00  0.00    +0.043 C 
ATOM     15  C   UNL     1      -4.650   2.794  24.722  0.00  0.00    +0.095 C 
ATOM     16  N   UNL     1      -3.987   2.289  24.774  0.00  0.00    -0.276 N 
ATOM     17  C   UNL     1      -4.696   2.234  24.819  0.00  0.00    +0.099 C 
ATOM     18  C   UNL     1      -3.195   2.055  24.773  0.00  0.00    +0.270 C 
ATOM     19  O   UNL     1      -2.999   1.263  24.897  0.00  0.00    -0.271 OA
ATOM     28  C   UNL     1      -4.744   1.415  24.960  0.00  0.00    +0.110 C 
ATOM     29  N   UNL     1      -4.084   1.307  24.945  0.00  0.00    -0.299 N 
ATOM     30  C   UNL     1      -3.361   0.910  24.975  0.00  0.00    +0.261 A 
ATOM     31  O   UNL     1      -2.559   1.090  24.904  0.00  0.00    -0.267 OA
ENDROOT
BRANCH   8   7
ATOM      1  C   UNL     1      -3.008  -1.092  24.017  0.00  0.00    +0.031 C 
ATOM      2  C   UNL     1      -2.453  -0.895  24.595  0.00  0.00    -0.022 A 
ATOM      3  C   UNL     1      -1.730  -1.292  24.626  0.00  0.00    -0.004 A 
ATOM      4  C   UNL     1      -1.176  -1.094  25.204  0.00  0.00    -0.000 A 
ATOM      5  C   UNL     1      -1.343  -0.500  25.751  0.00  0.00    -0.000 A 
ATOM      6  C   UNL     1      -2.066  -0.103  25.720  0.00  0.00    -0.000 A 
ATOM      7  C   UNL     1      -2.621  -0.301  25.142  0.00  0.00    +0.001 A 
ENDBRANCH   8   7
BRANCH  18  20
ATOM     20  C   UNL     1      -2.601   2.613  24.649  0.00  0.00    +0.290 C 
BRANCH  20  21
ATOM     21  O   UNL     1      -2.288   3.032  25.286  0.00  0.00    -0.466 OA
BRANCH  21  22
ATOM     22  C   UNL     1      -1.770   3.661  25.153  0.00  0.00    +0.139 A 
ATOM     23  C   UNL     1      -1.019   3.519  24.846  0.00  0.00    +0.037 A 
ATOM     24  C   UNL     1      -0.501   4.148  24.713  0.00  0.00    +0.003 A 
ATOM     25  C   UNL     1      -0.736   4.920  24.888  0.00  0.00    +0.000 A 
ATOM     26  C   UNL     1      -1.488   5.061  25.196  0.00  0.00    +0.003 A 
ATOM     27  C   UNL     1      -2.006   4.432  25.328  0.00  0.00    +0.037 A 
ENDBRANCH  21  22
ENDBRANCH  20  21
ENDBRANCH  18  20
TORSDOF 4
ENDMDL
MODEL 3
REMARK VINA RESULT:     -14.7      0.899      3.589
REMARK  Name = 
REMARK  4 active torsions:
REMARK  status: ('A' for Active; 'I' for Inactive)
REMARK    1  A    between atoms: C_7  and  C_8
REMARK    2  A    between atoms: C_18  and  C_20
REMARK    3  A    between atoms: C_20  and  O_21
REMARK    4  A    between atoms: O_21  and  C_22
REMARK                            x       y       z     vdW  Elec       q    Type
REMARK                         _______ _______ _______ _____ _____    ______ ____
ROOT
ATOM      8  C   UNL     1      -4.161   0.120  25.031  0.00  0.00    +0.056 A 
ATOM      9  C   UNL     1      -4.970   0.279  25.076  0.00  0.00    +0.006 A 
ATOM     10  C   UNL     1      -5.238   1.059  25.068  0.00  0.00    +0.013 A 
ATOM     11  C   UNL     1      -4.698   1.680  25.013  0.00  0.00    +0.041 A 
ATOM     12  C   UNL     1      -4.667   2.598  24.981  0.00  0.00    +0.058 C 
ATOM     13  C   UNL     1      -5.083   3.163  24.989  0.00  0.00    +0.011 C 
ATOM     14  C   UNL     1      -4.286   3.003  24.944  0.00  0.00    +0.043 C 
ATOM     15  C   UNL     1      -3.300   3.013  24.882  0.00  0.00    +0.095 C 
ATOM     16  N   UNL     1      -3.150   2.192  24.899  0.00  0.00    -0.276 N 
ATOM     17  C   UNL     1      -3.715   2.625  24.920  0.00  0.00    +0.099 C 
ATOM     18  C   UNL     1      -2.719   1.488  24.895  0.00  0.00    +0.270 C 
ATOM     19  O   UNL     1      -3.111   0.763  24.944  0.00  0.00    -0.271 OA
ATOM     28  C   UNL     1      -4.308   2.043  24.977  0.00  0.00    +0.110 C 
ATOM     29  N   UNL     1      -3.890   1.521  24.968  0.00  0.00    -0.299 N 
ATOM     30  C   UNL     1      -3.621   0.741  24.976  0.00  0.00    +0.261 A 
ATOM     31  O   UNL     1      -2.901   0.341  24.944  0.00  0.00    -0.267 OA
ENDROOT
BRANCH   8   7
ATOM      1  C   UNL     1      -4.439  -0.863  23.734  0.00  0.00    +0.031 C 
ATOM      2  C   UNL     1      -4.032  -1.151  24.392  0.00  0.00    -0.022 A 
ATOM      3  C   UNL     1      -3.764  -1.932  24.401  0.00  0.00    -0.004 A 
ATOM      4  C   UNL     1      -3.357  -2.220  25.059  0.00  0.00    -0.000 A 
ATOM      5  C   UNL     1      -3.219  -1.729  25.706  0.00  0.00    -0.000 A 
ATOM      6  C   UNL     1      -3.487  -0.949  25.697  0.00  0.00    -0.000 A 
ATOM      7  C   UNL     1      -3.894  -0.660  25.039  0.00  0.00    +0.001 A 
ENDBRANCH   8   7
BRANCH  18  20
ATOM     20  C   UNL     1      -1.896   1.509  24.843  0.00  0.00    +0.290 C 
BRANCH  20  21
ATOM     21  O   UNL     1      -1.529   1.493  24.104  0.00  0.00    -0.466 OA
BRANCH  21  22
ATOM     22  C   UNL     1      -0.710   1.403  24.052  0.00  0.00    +0.139 A 
ATOM     23  C   UNL     1      -0.211   1.987  24.353  0.00  0.00    +0.037 A 
ATOM     24  C   UNL     1       0.608   1.898  24.301  0.00  0.00    +0.003 A 
ATOM     25  C   UNL     1       0.927   1.224  23.947  0.00  0.00    +0.000 A 
ATOM     26  C   UNL     1       0.428   0.641  23.646  0.00  0.00    +0.003 A 
ATOM     27  C   UNL     1      -0.391   0.730  23.698  0.00  0.00    +0.037 A 
ENDBRANCH  21  22
ENDBRANCH  20  21
ENDBRANCH  18  20
TORSDOF 4
ENDMDL
MODEL 4
REMARK VINA RESULT:     -14.7      1.005      3.020
REMARK  Name = 
REMARK  4 active torsions:
REMARK  status: ('A' for Active; 'I' for Inactive)
REMARK    1  A    between atoms: C_7  and  C_8
REMARK    2  A    between atoms: C_18  and  C_20
REMARK    3  A    between atoms: C_20  and  O_21
REMARK    4  A    between atoms: O_21  and  C_22
REMARK                            x       y       z     vdW  Elec       q    Type
REMARK                         _______ _______ _______ _____ _____    ______ ____
ROOT
ATOM      8  C   UNL     1      -2.961   2.990  25.405  0.00  0.00    +0.056 A 
ATOM      9  C   UNL     1      -2.473   3.596  25.679  0.00  0.00    +0.006 A 
ATOM     10  C   UNL     1      -1.662   3.469  25.759  0.00  0.00    +0.013 A 
ATOM     11  C   UNL     1      -1.339   2.735  25.565  0.00  0.00    +0.041 A 
ATOM     12  C   UNL     1      -0.533   2.294  25.540  0.00  0.00    +0.058 C 
ATOM     13  C   UNL     1       0.149   2.387  25.674  0.00  0.00    +0.011 C 
ATOM     14  C   UNL     1      -0.336   1.791  25.404  0.00  0.00    +0.043 C 
ATOM     15  C   UNL     1      -0.749   0.959  25.066  0.00  0.00    +0.095 C 
ATOM     16  N   UNL     1      -1.546   1.205  25.027  0.00  0.00    -0.276 N 
ATOM     17  C   UNL     1      -0.918   1.483  25.214  0.00  0.00    +0.099 C 
ATOM     18  C   UNL     1      -2.359   1.162  24.890  0.00  0.00    +0.270 C 
ATOM     19  O   UNL     1      -2.837   1.819  25.036  0.00  0.00    -0.271 OA
ATOM     28  C   UNL     1      -1.182   2.243  25.426  0.00  0.00    +0.110 C 
ATOM     29  N   UNL     1      -1.827   2.129  25.291  0.00  0.00    -0.299 N 
ATOM     30  C   UNL     1      -2.638   2.257  25.210  0.00  0.00    +0.261 A 
ATOM     31  O   UNL     1      -3.304   1.834  24.970  0.00  0.00    -0.267 OA
ENDROOT
BRANCH   8   7
ATOM      1  C   UNL     1      -3.524   4.006  24.232  0.00  0.00    +0.031 C 
ATOM      2  C   UNL     1      -4.054   3.626  24.739  0.00  0.00    -0.022 A 
ATOM      3  C   UNL     1      -4.865   3.755  24.659  0.00  0.00    -0.004 A 
ATOM      4  C   UNL     1      -5.394   3.375  25.166  0.00  0.00    -0.000 A 
ATOM      5  C   UNL     1      -5.112   2.868  25.752  0.00  0.00    -0.000 A 
ATOM      6  C   UNL     1      -4.301   2.740  25.832  0.00  0.00    -0.000 A 
ATOM      7  C   UNL     1      -3.772   3.119  25.325  0.00  0.00    +0.001 A 
ENDBRANCH   8   7
BRANCH  18  20
ATOM     20  C   UNL     1      -2.693   0.463  24.608  0.00  0.00    +0.290 C 
BRANCH  20  21
ATOM     21  O   UNL     1      -3.050  -0.065  25.132  0.00  0.00    -0.466 OA
BRANCH  21  22
ATOM     22  C   UNL     1      -3.340  -0.787  24.858  0.00  0.00    +0.139 A 
ATOM     23  C   UNL     1      -3.119  -1.488  25.231  0.00  0.00    +0.037 A 
ATOM     24  C   UNL     1      -3.409  -2.211  24.957  0.00  0.00    +0.003 A 
ATOM     25  C   UNL     1      -3.920  -2.231  24.308  0.00  0.00    +0.000 A 
ATOM     26  C   UNL     1      -4.140  -1.530  23.936  0.00  0.00    +0.003 A 
ATOM     27  C   UNL     1      -3.851  -0.807  24.210  0.00  0.00    +0.037 A 
ENDBRANCH  21  22
ENDBRANCH  20  21
ENDBRANCH  18  20
TORSDOF 4
ENDMDL
MODEL 5
REMARK VINA RESULT:     -14.6      1.464      3.846
REMARK  Name = 
REMARK  4 active torsions:
REMARK  status: ('A' for Active; 'I' for Inactive)
REMARK    1  A    between atoms: C_7  and  C_8
REMARK    2  A    between atoms: C_18  and  C_20
REMARK    3  A    between atoms: C_20  and  O_21
REMARK    4  A    between atoms: O_21  and  C_22
REMARK                            x       y       z     vdW  Elec       q    Type
REMARK                         _______ _______ _______ _____ _____    ______ ____
ROOT
ATOM      8  C   UNL     1      -1.424  -0.336  24.829  0.00  0.00    +0.056 A 
ATOM      9  C   UNL     1      -1.056  -1.075  24.838  0.00  0.00    +0.006 A 
ATOM     10  C   UNL     1      -1.505  -1.760  24.739  0.00  0.00    +0.013 A 
ATOM     11  C   UNL     1      -2.321  -1.707  24.631  0.00  0.00    +0.041 A 
ATOM     12  C   UNL     1      -3.060  -2.237  24.501  0.00  0.00    +0.058 C 
ATOM     13  C   UNL     1      -3.250  -2.910  24.438  0.00  0.00    +0.011 C 
ATOM     14  C   UNL     1      -3.610  -2.179  24.430  0.00  0.00    +0.043 C 
ATOM     15  C   UNL     1      -4.218  -1.402  24.390  0.00  0.00    +0.095 C 
ATOM     16  N   UNL     1      -3.665  -0.785  24.499  0.00  0.00    -0.276 N 
ATOM     17  C   UNL     1      -3.661  -1.496  24.460  0.00  0.00    +0.099 C 
ATOM     18  C   UNL     1      -3.375  -0.017  24.581  0.00  0.00    +0.270 C 
ATOM     19  O   UNL     1      -2.568   0.110  24.698  0.00  0.00    -0.271 OA
ATOM     28  C   UNL     1      -2.843  -1.616  24.565  0.00  0.00    +0.110 C 
ATOM     29  N   UNL     1      -2.688  -0.968  24.622  0.00  0.00    -0.299 N 
ATOM     30  C   UNL     1      -2.240  -0.283  24.721  0.00  0.00    +0.261 A 
ATOM     31  O   UNL     1      -2.364   0.532  24.749  0.00  0.00    -0.267 OA
ENDROOT
BRANCH   8   7
ATOM      1  C   UNL     1      -0.338   0.114  23.671  0.00  0.00    +0.031 C 
ATOM      2  C   UNL     1      -0.432   0.574  24.349  0.00  0.00    -0.022 A 
ATOM      3  C   UNL     1       0.017   1.259  24.449  0.00  0.00    -0.004 A 
ATOM      4  C   UNL     1      -0.078   1.719  25.128  0.00  0.00    -0.000 A 
ATOM      5  C   UNL     1      -0.620   1.493  25.707  0.00  0.00    -0.000 A 
ATOM      6  C   UNL     1      -1.069   0.808  25.607  0.00  0.00    -0.000 A 
ATOM      7  C   UNL     1      -0.975   0.349  24.928  0.00  0.00    +0.001 A 
ENDBRANCH   8   7
BRANCH  18  20
ATOM     20  C   UNL     1      -3.892   0.625  24.546  0.00  0.00    +0.290 C 
BRANCH  20  21
ATOM     21  O   UNL     1      -4.235   0.917  25.237  0.00  0.00    -0.466 OA
BRANCH  21  22
ATOM     22  C   UNL     1      -4.716   1.587  25.209  0.00  0.00    +0.139 A 
ATOM     23  C   UNL     1      -4.388   2.322  25.034  0.00  0.00    +0.037 A 
ATOM     24  C   UNL     1      -4.869   2.993  25.005  0.00  0.00    +0.003 A 
ATOM     25  C   UNL     1      -5.678   2.926  25.152  0.00  0.00    +0.000 A 
ATOM     26  C   UNL     1      -6.006   2.190  25.327  0.00  0.00    +0.003 A 
ATOM     27  C   UNL     1      -5.525   1.520  25.355  0.00  0.00    +0.037 A 
ENDBRANCH  21  22
ENDBRANCH  20  21
ENDBRANCH  18  20
TORSDOF 4
ENDMDL
MODEL 6
REMARK VINA RESULT:     -14.4      1.624      3.264
REMARK  Name = 
REMARK  4 active torsions:
REMARK  status: ('A' for Active; 'I' for Inactive)
REMARK    1  A    between atoms: C_7  and  C_8
REMARK    2  A    between atoms: C_18  and  C_20
REMARK    3  A    between atoms: C_20  and  O_21
REMARK    4  A    between atoms: O_21  and  C_22
REMARK                            x       y       z     vdW  Elec       q    Type
REMARK                         _______ _______ _______ _____ _____    ______ ____
ROOT
ATOM      8  C   UNL     1      -3.621   3.191  24.968  0.00  0.00    +0.056 A 
ATOM      9  C   UNL     1      -3.709   4.004  24.858  0.00  0.00    +0.006 A 
ATOM     10  C   UNL     1      -3.047   4.496  24.868  0.00  0.00    +0.013 A 
ATOM     11  C   UNL     1      -2.297   4.175  24.989  0.00  0.00    +0.041 A 
ATOM     12  C   UNL     1      -1.415   4.426  25.053  0.00  0.00    +0.058 C 
ATOM     13  C   UNL     1      -1.001   4.992  25.028  0.00  0.00    +0.011 C 
ATOM     14  C   UNL     1      -0.917   4.189  25.137  0.00  0.00    +0.043 C 
ATOM     15  C   UNL     1      -0.615   3.260  25.285  0.00  0.00    +0.095 C 
ATOM     16  N   UNL     1      -1.352   2.867  25.254  0.00  0.00    -0.276 N 
ATOM     17  C   UNL     1      -1.108   3.534  25.197  0.00  0.00    +0.099 C 
ATOM     18  C   UNL     1      -1.893   2.245  25.272  0.00  0.00    +0.270 C 
ATOM     19  O   UNL     1      -2.698   2.395  25.167  0.00  0.00    -0.271 OA
ATOM     28  C   UNL     1      -1.836   3.917  25.071  0.00  0.00    +0.110 C 
ATOM     29  N   UNL     1      -2.209   3.362  25.100  0.00  0.00    -0.299 N 
ATOM     30  C   UNL     1      -2.870   2.870  25.089  0.00  0.00    +0.261 A 
ATOM     31  O   UNL     1      -3.038   2.067  25.171  0.00  0.00    -0.267 OA
ENDROOT
BRANCH   8   7
ATOM      1  C   UNL     1      -4.805   3.377  26.102  0.00  0.00    +0.031 C 
ATOM      2  C   UNL     1      -4.875   2.793  25.524  0.00  0.00    -0.022 A 
ATOM      3  C   UNL     1      -5.538   2.300  25.513  0.00  0.00    -0.004 A 
ATOM      4  C   UNL     1      -5.607   1.716  24.935  0.00  0.00    -0.000 A 
ATOM      5  C   UNL     1      -5.015   1.623  24.368  0.00  0.00    -0.000 A 
ATOM      6  C   UNL     1      -4.353   2.115  24.380  0.00  0.00    -0.000 A 
ATOM      7  C   UNL     1      -4.283   2.700  24.958  0.00  0.00    +0.001 A 
ENDBRANCH   8   7
BRANCH  18  20
ATOM     20  C   UNL     1      -1.630   1.473  25.397  0.00  0.00    +0.290 C 
BRANCH  20  21
ATOM     21  O   UNL     1      -1.493   0.975  24.754  0.00  0.00    -0.466 OA
BRANCH  21  22
ATOM     22  C   UNL     1      -1.207   0.210  24.877  0.00  0.00    +0.139 A 
ATOM     23  C   UNL     1      -1.484  -0.236  25.512  0.00  0.00    +0.037 A 
ATOM     24  C   UNL     1      -1.198  -1.000  25.636  0.00  0.00    +0.003 A 
ATOM     25  C   UNL     1      -0.635  -1.318  25.122  0.00  0.00    +0.000 A 
ATOM     26  C   UNL     1      -0.359  -0.871  24.487  0.00  0.00    +0.003 A 
ATOM     27  C   UNL     1      -0.645  -0.106  24.363  0.00  0.00    +0.037 A 
ENDBRANCH  21  22
ENDBRANCH  20  21
ENDBRANCH  18  20
TORSDOF 4
ENDMDL
MODEL 7
REMARK VINA RESULT:     -14.3      1.368      4.356
REMARK  Name = 
REMARK  4 active torsions:
REMARK  status: ('A' for Active; 'I' for Inactive)
REMARK    1  A    between atoms: C_7  and  C_8
REMARK    2  A    between atoms: C_18  and  C_20
REMARK    3  A    between atoms: C_20  and  O_21
REMARK    4  A    between atoms: O_21  and  C_22
REMARK                            x       y       z     vdW  Elec       q    Type
REMARK                         _______ _______ _______ _____ _____    ______ ____
ROOT
ATOM      8  C   UNL     1      -4.077   0.334  24.484  0.00  0.00    +0.056 A 
ATOM      9  C   UNL     1      -4.579  -0.258  24.202  0.00  0.00    +0.006 A 
ATOM     10  C   UNL     1      -4.326  -1.043  24.190  0.00  0.00    +0.013 A 
ATOM     11  C   UNL     1      -3.572  -1.237  24.462  0.00  0.00    +0.041 A 
ATOM     12  C   UNL     1      -3.019  -1.962  24.577  0.00  0.00    +0.058 C 
ATOM     13  C   UNL     1      -2.998  -2.658  24.487  0.00  0.00    +0.011 C 
ATOM     14  C   UNL     1      -2.506  -2.072  24.765  0.00  0.00    +0.043 C 
ATOM     15  C   UNL     1      -1.776  -1.516  25.133  0.00  0.00    +0.095 C 
ATOM     16  N   UNL     1      -2.140  -0.765  25.095  0.00  0.00    -0.276 N 
ATOM     17  C   UNL     1      -2.305  -1.439  24.934  0.00  0.00    +0.099 C 
ATOM     18  C   UNL     1      -2.230   0.052  25.176  0.00  0.00    +0.270 C 
ATOM     19  O   UNL     1      -2.936   0.414  24.948  0.00  0.00    -0.271 OA
ATOM     28  C   UNL     1      -3.076  -1.308  24.648  0.00  0.00    +0.110 C 
ATOM     29  N   UNL     1      -3.070  -0.646  24.744  0.00  0.00    -0.299 N 
ATOM     30  C   UNL     1      -3.323   0.140  24.755  0.00  0.00    +0.261 A 
ATOM     31  O   UNL     1      -3.026   0.876  24.978  0.00  0.00    -0.267 OA
ENDROOT
BRANCH   8   7
ATOM      1  C   UNL     1      -5.316   0.787  25.476  0.00  0.00    +0.031 C 
ATOM      2  C   UNL     1      -4.950   1.345  24.991  0.00  0.00    -0.022 A 
ATOM      3  C   UNL     1      -5.204   2.131  25.002  0.00  0.00    -0.004 A 
ATOM      4  C   UNL     1      -4.837   2.688  24.516  0.00  0.00    -0.000 A 
ATOM      5  C   UNL     1      -4.218   2.461  24.021  0.00  0.00    -0.000 A 
ATOM      6  C   UNL     1      -3.965   1.676  24.010  0.00  0.00    -0.000 A 
ATOM      7  C   UNL     1      -4.331   1.118  24.495  0.00  0.00    +0.001 A 
ENDBRANCH   8   7
BRANCH  18  20
ATOM     20  C   UNL     1      -1.614   0.506  25.484  0.00  0.00    +0.290 C 
BRANCH  20  21
ATOM     21  O   UNL     1      -1.005   0.764  24.992  0.00  0.00    -0.466 OA
BRANCH  21  22
ATOM     22  C   UNL     1      -0.573   1.439  25.188  0.00  0.00    +0.139 A 
ATOM     23  C   UNL     1      -0.487   1.658  25.978  0.00  0.00    +0.037 A 
ATOM     24  C   UNL     1      -0.055   2.333  26.175  0.00  0.00    +0.003 A 
ATOM     25  C   UNL     1       0.291   2.789  25.580  0.00  0.00    +0.000 A 
ATOM     26  C   UNL     1       0.205   2.569  24.790  0.00  0.00    +0.003 A 
ATOM     27  C   UNL     1      -0.227   1.894  24.593  0.00  0.00    +0.037 A 
ENDBRANCH  21  22
ENDBRANCH  20  21
ENDBRANCH  18  20
TORSDOF 4
ENDMDL
