MODEL 1
REMARK VINA RESULT:     -13.5      0.000      0.000
REMARK  Name = 
REMARK  6 active torsions:
REMARK  status: ('A' for Active; 'I' for Inactive)
REMARK    1  A    between atoms: O_2  and  C_3
REMARK    2  A    between atoms: C_6  and  C_9
REMARK    3  A    between atoms: C_20  and  N_21
REMARK    4  A    between atoms: N_24  and  C_25
REMARK    5  A    between atoms: C_27  and  O_28
REMARK    6  A    between atoms: C_31  and  O_32
REMARK                            x       y       z     vdW  Elec       q    Type
REMARK                         _______ _______ _______ _____ _____    ______ ____
ROOT
ATOM      9  C   UNL     1      -4.358   3.638  25.235  0.00  0.00    +0.249 C 
ATOM     10  O   UNL     1      -4.463   4.376  25.687  0.00  0.00    -0.270 OA
ATOM     11  N   UNL     1      -4.990   3.168  25.514  0.00  0.00    -0.276 N 
ATOM     12  C   UNL     1      -5.656   3.076  26.010  0.00  0.00    +0.096 C 
ATOM     13  C   UNL     1      -5.918   2.155  25.764  0.00  0.00    +0.043 C 
ATOM     14  C   UNL     1      -6.259   1.420  25.675  0.00  0.00    +0.011 C 
ATOM     15  C   UNL     1      -5.715   1.776  25.410  0.00  0.00    +0.058 C 
ATOM     16  C   UNL     1      -5.474   2.666  25.658  0.00  0.00    +0.099 C 
ATOM     17  C   UNL     1      -5.024   1.694  24.809  0.00  0.00    +0.041 A 
ATOM     18  C   UNL     1      -4.699   1.154  24.276  0.00  0.00    +0.014 A 
ATOM     19  C   UNL     1      -4.032   1.360  23.837  0.00  0.00    +0.023 A 
ATOM     20  C   UNL     1      -3.690   2.105  23.930  0.00  0.00    +0.131 A 
ATOM     35  C   UNL     1      -4.015   2.644  24.462  0.00  0.00    +0.276 A 
ATOM     36  O   UNL     1      -3.802   3.606  24.767  0.00  0.00    -0.266 OA
ATOM     37  N   UNL     1      -4.682   2.439  24.902  0.00  0.00    -0.298 N 
ATOM     38  C   UNL     1      -5.194   2.079  25.138  0.00  0.00    +0.110 C 
ENDROOT
BRANCH   9   6
ATOM      3  C   UNL     1      -2.917   2.051  23.243  0.00  0.00    +0.139 A 
ATOM      4  C   UNL     1      -3.048   1.920  24.125  0.00  0.00    +0.037 A 
ATOM      5  C   UNL     1      -3.505   2.415  24.776  0.00  0.00    +0.008 A 
ATOM      6  C   UNL     1      -3.892   3.122  24.600  0.00  0.00    +0.054 A 
ATOM      7  C   UNL     1      -3.887   3.415  23.829  0.00  0.00    +0.008 A 
ATOM      8  C   UNL     1      -3.493   3.002  23.233  0.00  0.00    +0.037 A 
BRANCH   3   2
ATOM      1  C   UNL     1      -2.907   2.220  21.807  0.00  0.00    +0.252 C 
ATOM      2  O   UNL     1      -2.487   1.591  22.618  0.00  0.00    -0.471 OA
ENDBRANCH   3   2
ENDBRANCH   9   6
BRANCH  20  21
ATOM     21  N   UNL     1      -2.931   2.582  23.550  0.00  0.00    -0.156 NA
ATOM     22  C   UNL     1      -2.069   2.376  23.882  0.00  0.00    +0.348 C 
ATOM     23  O   UNL     1      -2.187   1.691  24.564  0.00  0.00    -0.248 OA
ATOM     24  N   UNL     1      -1.140   2.560  23.826  0.00  0.00    -0.160 NA
BRANCH  24  25
ATOM     25  C   UNL     1      -0.872   2.032  24.402  0.00  0.00    +0.081 A 
ATOM     26  C   UNL     1      -0.723   2.359  25.144  0.00  0.00    +0.054 A 
ATOM     27  C   UNL     1      -0.453   1.881  25.760  0.00  0.00    +0.143 A 
ATOM     30  C   UNL     1      -0.334   1.074  25.633  0.00  0.00    +0.074 A 
ATOM     31  C   UNL     1      -0.483   0.746  24.892  0.00  0.00    +0.143 A 
ATOM     34  C   UNL     1      -0.753   1.225  24.276  0.00  0.00    +0.054 A 
BRANCH  27  28
ATOM     28  O   UNL     1      -0.304   2.208  26.502  0.00  0.00    -0.471 OA
ATOM     29  C   UNL     1       0.419   2.576  26.653  0.00  0.00    +0.252 C 
ENDBRANCH  27  28
BRANCH  31  32
ATOM     32  O   UNL     1      -0.364  -0.060  24.765  0.00  0.00    -0.471 OA
ATOM     33  C   UNL     1       0.152  -0.313  24.173  0.00  0.00    +0.252 C 
ENDBRANCH  31  32
ENDBRANCH  24  25
ENDBRANCH  20  21
TORSDOF 6
ENDMDL
MODEL 2
REMARK VINA RESULT:     -13.1      1.223      2.054
REMARK  Name = 
REMARK  6 active torsions:
REMARK  status: ('A' for Active; 'I' for Inactive)
REMARK    1  A    between atoms: O_2  and  C_3
REMARK    2  A    between atoms: C_6  and  C_9
REMARK    3  A    between atoms: C_20  and  N_21
REMARK    4  A    between atoms: N_24  and  C_25
REMARK    5  A    between atoms: C_27  and  O_28
REMARK    6  A    between atoms: C_31  and  O_32
REMARK                            x       y       z     vdW  Elec       q    Type
REMARK                         _______ _______ _______ _____ _____    ______ ____
ROOT
ATOM      9  C   UNL     1      -4.024   0.423  25.082  0.00  0.00    +0.249 C 
ATOM     10  O   UNL     1      -4.073  -0.299  25.567  0.00  0.00    -0.270 OA
ATOM     11  N   UNL     1      -4.735   0.815  25.277  0.00  0.00    -0.276 N 
ATOM     12  C   UNL     1      -5.452   0.840  25.706  0.00  0.00    +0.096 C 
ATOM     13  C   UNL     1      -5.807   1.704  25.384  0.00  0.00    +0.043 C 
ATOM     14  C   UNL     1      -6.231   2.381  25.221  0.00  0.00    +0.011 C 
ATOM     15  C   UNL     1      -5.623   2.090  25.026  0.00  0.00    +0.058 C 
ATOM     16  C   UNL     1      -5.292   1.254  25.347  0.00  0.00    +0.099 C 
ATOM     17  C   UNL     1      -4.896   2.236  24.483  0.00  0.00    +0.041 A 
ATOM     18  C   UNL     1      -4.596   2.789  23.949  0.00  0.00    +0.014 A 
ATOM     19  C   UNL     1      -3.869   2.655  23.582  0.00  0.00    +0.023 A 
ATOM     20  C   UNL     1      -3.443   1.968  23.749  0.00  0.00    +0.131 A 
ATOM     35  C   UNL     1      -3.743   1.416  24.283  0.00  0.00    +0.276 A 
ATOM     36  O   UNL     1      -3.435   0.508  24.663  0.00  0.00    -0.266 OA
ATOM     37  N   UNL     1      -4.469   1.550  24.650  0.00  0.00    -0.298 N 
ATOM     38  C   UNL     1      -5.044   1.848  24.819  0.00  0.00    +0.110 C 
ENDROOT
BRANCH   9   6
ATOM      3  C   UNL     1      -2.621   2.093  23.131  0.00  0.00    +0.139 A 
ATOM      4  C   UNL     1      -2.868   2.255  23.982  0.00  0.00    +0.037 A 
ATOM      5  C   UNL     1      -3.316   1.734  24.619  0.00  0.00    +0.008 A 
ATOM      6  C   UNL     1      -3.572   0.967  24.459  0.00  0.00    +0.054 A 
ATOM      7  C   UNL     1      -3.437   0.632  23.718  0.00  0.00    +0.008 A 
ATOM      8  C   UNL     1      -3.045   1.065  23.135  0.00  0.00    +0.037 A 
BRANCH   3   2
ATOM      1  C   UNL     1      -2.586   1.947  21.693  0.00  0.00    +0.252 C 
ATOM      2  O   UNL     1      -2.197   2.577  22.519  0.00  0.00    -0.471 OA
ENDBRANCH   3   2
ENDBRANCH   9   6
BRANCH  20  21
ATOM     21  N   UNL     1      -2.595   1.581  23.467  0.00  0.00    -0.156 NA
ATOM     22  C   UNL     1      -1.803   1.917  23.859  0.00  0.00    +0.348 C 
ATOM     23  O   UNL     1      -2.073   2.613  24.486  0.00  0.00    -0.248 OA
ATOM     24  N   UNL     1      -0.857   1.859  23.895  0.00  0.00    -0.160 NA
BRANCH  24  25
ATOM     25  C   UNL     1      -0.716   2.446  24.460  0.00  0.00    +0.081 A 
ATOM     26  C   UNL     1      -0.595   2.178  25.230  0.00  0.00    +0.054 A 
ATOM     27  C   UNL     1      -0.449   2.718  25.837  0.00  0.00    +0.143 A 
ATOM     30  C   UNL     1      -0.425   3.526  25.673  0.00  0.00    +0.074 A 
ATOM     31  C   UNL     1      -0.546   3.794  24.903  0.00  0.00    +0.143 A 
ATOM     34  C   UNL     1      -0.691   3.255  24.296  0.00  0.00    +0.054 A 
BRANCH  27  28
ATOM     28  O   UNL     1      -0.328   2.450  26.608  0.00  0.00    -0.471 OA
ATOM     29  C   UNL     1       0.432   2.444  26.928  0.00  0.00    +0.252 C 
ENDBRANCH  27  28
BRANCH  31  32
ATOM     32  O   UNL     1      -0.522   4.603  24.738  0.00  0.00    -0.471 OA
ATOM     33  C   UNL     1      -1.094   5.105  25.055  0.00  0.00    +0.252 C 
ENDBRANCH  31  32
ENDBRANCH  24  25
ENDBRANCH  20  21
TORSDOF 6
ENDMDL
MODEL 3
REMARK VINA RESULT:     -12.7      1.606      2.463
REMARK  Name = 
REMARK  6 active torsions:
REMARK  status: ('A' for Active; 'I' for Inactive)
REMARK    1  A    between atoms: O_2  and  C_3
REMARK    2  A    between atoms: C_6  and  C_9
REMARK    3  A    between atoms: C_20  and  N_21
REMARK    4  A    between atoms: N_24  and  C_25
REMARK    5  A    between atoms: C_27  and  O_28
REMARK    6  A    between atoms: C_31  and  O_32
REMARK                            x       y       z     vdW  Elec       q    Type
REMARK                         _______ _______ _______ _____ _____    ______ ____
ROOT
ATOM      9  C   UNL     1      -4.718   2.773  25.196  0.00  0.00    +0.249 C 
ATOM     10  O   UNL     1      -5.534   2.729  25.498  0.00  0.00    -0.270 OA
ATOM     11  N   UNL     1      -4.382   3.363  25.683  0.00  0.00    -0.276 N 
ATOM     12  C   UNL     1      -4.458   3.915  26.305  0.00  0.00    +0.096 C 
ATOM     13  C   UNL     1      -3.542   4.286  26.310  0.00  0.00    +0.043 C 
ATOM     14  C   UNL     1      -2.845   4.688  26.442  0.00  0.00    +0.011 C 
ATOM     15  C   UNL     1      -3.082   4.188  26.010  0.00  0.00    +0.058 C 
ATOM     16  C   UNL     1      -3.972   3.840  26.017  0.00  0.00    +0.099 C 
ATOM     17  C   UNL     1      -2.813   3.647  25.317  0.00  0.00    +0.041 A 
ATOM     18  C   UNL     1      -2.151   3.479  24.855  0.00  0.00    +0.014 A 
ATOM     19  C   UNL     1      -2.195   2.907  24.263  0.00  0.00    +0.023 A 
ATOM     20  C   UNL     1      -2.903   2.502  24.133  0.00  0.00    +0.131 A 
ATOM     35  C   UNL     1      -3.565   2.670  24.594  0.00  0.00    +0.276 A 
ATOM     36  O   UNL     1      -4.537   2.331  24.647  0.00  0.00    -0.266 OA
ATOM     37  N   UNL     1      -3.520   3.242  25.187  0.00  0.00    -0.298 N 
ATOM     38  C   UNL     1      -3.270   3.717  25.586  0.00  0.00    +0.110 C 
ENDROOT
BRANCH   9   6
ATOM      3  C   UNL     1      -2.636   1.896  23.336  0.00  0.00    +0.139 A 
ATOM      4  C   UNL     1      -2.689   1.847  24.235  0.00  0.00    +0.037 A 
ATOM      5  C   UNL     1      -3.345   2.121  24.844  0.00  0.00    +0.008 A 
ATOM      6  C   UNL     1      -4.043   2.488  24.604  0.00  0.00    +0.054 A 
ATOM      7  C   UNL     1      -4.184   2.625  23.803  0.00  0.00    +0.008 A 
ATOM      8  C   UNL     1      -3.625   2.395  23.241  0.00  0.00    +0.037 A 
BRANCH   3   2
ATOM      1  C   UNL     1      -2.469   2.263  21.948  0.00  0.00    +0.252 C 
ATOM      2  O   UNL     1      -2.022   1.640  22.749  0.00  0.00    -0.471 OA
ENDBRANCH   3   2
ENDBRANCH   9   6
BRANCH  20  21
ATOM     21  N   UNL     1      -3.213   1.809  23.524  0.00  0.00    -0.156 NA
ATOM     22  C   UNL     1      -3.005   0.910  23.735  0.00  0.00    +0.348 C 
ATOM     23  O   UNL     1      -2.498   0.927  24.567  0.00  0.00    -0.248 OA
ATOM     24  N   UNL     1      -3.085   0.002  23.473  0.00  0.00    -0.160 NA
BRANCH  24  25
ATOM     25  C   UNL     1      -2.672  -0.347  24.099  0.00  0.00    +0.081 A 
ATOM     26  C   UNL     1      -3.137  -0.706  24.677  0.00  0.00    +0.054 A 
ATOM     27  C   UNL     1      -2.780  -1.071  25.326  0.00  0.00    +0.143 A 
ATOM     30  C   UNL     1      -1.958  -1.075  25.396  0.00  0.00    +0.074 A 
ATOM     31  C   UNL     1      -1.493  -0.715  24.818  0.00  0.00    +0.143 A 
ATOM     34  C   UNL     1      -1.850  -0.351  24.169  0.00  0.00    +0.054 A 
BRANCH  27  28
ATOM     28  O   UNL     1      -3.245  -1.431  25.904  0.00  0.00    -0.471 OA
ATOM     29  C   UNL     1      -3.594  -2.163  25.756  0.00  0.00    +0.252 C 
ENDBRANCH  27  28
BRANCH  31  32
ATOM     32  O   UNL     1      -0.670  -0.719  24.887  0.00  0.00    -0.471 OA
ATOM     33  C   UNL     1      -0.235  -1.356  24.597  0.00  0.00    +0.252 C 
ENDBRANCH  31  32
ENDBRANCH  24  25
ENDBRANCH  20  21
TORSDOF 6
ENDMDL
MODEL 4
REMARK VINA RESULT:     -12.4      2.025      3.919
REMARK  Name = 
REMARK  6 active torsions:
REMARK  status: ('A' for Active; 'I' for Inactive)
REMARK    1  A    between atoms: O_2  and  C_3
REMARK    2  A    between atoms: C_6  and  C_9
REMARK    3  A    between atoms: C_20  and  N_21
REMARK    4  A    between atoms: N_24  and  C_25
REMARK    5  A    between atoms: C_27  and  O_28
REMARK    6  A    between atoms: C_31  and  O_32
REMARK                            x       y       z     vdW  Elec       q    Type
REMARK                         _______ _______ _______ _____ _____    ______ ____
ROOT
ATOM      9  C   UNL     1      -4.100  -0.731  24.132  0.00  0.00    +0.249 C 
ATOM     10  O   UNL     1      -4.811  -1.195  23.933  0.00  0.00    -0.270 OA
ATOM     11  N   UNL     1      -3.721  -1.221  24.692  0.00  0.00    -0.276 N 
ATOM     12  C   UNL     1      -3.703  -1.927  25.139  0.00  0.00    +0.096 C 
ATOM     13  C   UNL     1      -2.857  -1.789  25.631  0.00  0.00    +0.043 C 
ATOM     14  C   UNL     1      -2.196  -1.828  26.105  0.00  0.00    +0.011 C 
ATOM     15  C   UNL     1      -2.476  -1.383  25.640  0.00  0.00    +0.058 C 
ATOM     16  C   UNL     1      -3.295  -1.530  25.173  0.00  0.00    +0.099 C 
ATOM     17  C   UNL     1      -2.326  -0.569  25.241  0.00  0.00    +0.041 A 
ATOM     18  C   UNL     1      -1.780   0.050  25.232  0.00  0.00    +0.014 A 
ATOM     19  C   UNL     1      -1.905   0.703  24.744  0.00  0.00    +0.023 A 
ATOM     20  C   UNL     1      -2.576   0.738  24.265  0.00  0.00    +0.131 A 
ATOM     35  C   UNL     1      -3.122   0.120  24.274  0.00  0.00    +0.276 A 
ATOM     36  O   UNL     1      -4.011  -0.091  23.798  0.00  0.00    -0.266 OA
ATOM     37  N   UNL     1      -2.997  -0.533  24.762  0.00  0.00    -0.298 N 
ATOM     38  C   UNL     1      -2.709  -0.940  25.209  0.00  0.00    +0.110 C 
ENDROOT
BRANCH   9   6
ATOM      3  C   UNL     1      -2.424   1.642  23.782  0.00  0.00    +0.139 A 
ATOM      4  C   UNL     1      -2.839   1.310  24.510  0.00  0.00    +0.037 A 
ATOM      5  C   UNL     1      -3.377   0.554  24.640  0.00  0.00    +0.008 A 
ATOM      6  C   UNL     1      -3.562   0.034  24.027  0.00  0.00    +0.054 A 
ATOM      7  C   UNL     1      -3.270   0.170  23.268  0.00  0.00    +0.008 A 
ATOM      8  C   UNL     1      -2.793   0.827  23.121  0.00  0.00    +0.037 A 
BRANCH   3   2
ATOM      1  C   UNL     1      -1.443   1.898  22.751  0.00  0.00    +0.252 C 
ATOM      2  O   UNL     1      -1.913   2.355  23.646  0.00  0.00    -0.471 OA
ENDBRANCH   3   2
ENDBRANCH   9   6
BRANCH  20  21
ATOM     21  N   UNL     1      -2.949   1.368  23.623  0.00  0.00    -0.156 NA
ATOM     22  C   UNL     1      -3.418   2.117  23.960  0.00  0.00    +0.348 C 
ATOM     23  O   UNL     1      -3.398   2.047  24.932  0.00  0.00    -0.248 OA
ATOM     24  N   UNL     1      -3.899   2.906  23.745  0.00  0.00    -0.160 NA
BRANCH  24  25
ATOM     25  C   UNL     1      -4.074   3.160  24.512  0.00  0.00    +0.081 A 
ATOM     26  C   UNL     1      -4.844   3.015  24.769  0.00  0.00    +0.054 A 
ATOM     27  C   UNL     1      -5.077   3.246  25.527  0.00  0.00    +0.143 A 
ATOM     30  C   UNL     1      -4.538   3.623  26.026  0.00  0.00    +0.074 A 
ATOM     31  C   UNL     1      -3.768   3.767  25.769  0.00  0.00    +0.143 A 
ATOM     34  C   UNL     1      -3.536   3.536  25.012  0.00  0.00    +0.054 A 
BRANCH  27  28
ATOM     28  O   UNL     1      -5.847   3.101  25.784  0.00  0.00    -0.471 OA
ATOM     29  C   UNL     1      -6.039   2.373  26.121  0.00  0.00    +0.252 C 
ENDBRANCH  27  28
BRANCH  31  32
ATOM     32  O   UNL     1      -3.230   4.144  26.269  0.00  0.00    -0.471 OA
ATOM     33  C   UNL     1      -2.869   4.846  26.032  0.00  0.00    +0.252 C 
ENDBRANCH  31  32
ENDBRANCH  24  25
ENDBRANCH  20  21
TORSDOF 6
ENDMDL
MODEL 5
REMARK VINA RESULT:     -12.4      2.435      3.747
REMARK  Name = 
REMARK  6 active torsions:
REMARK  status: ('A' for Active; 'I' for Inactive)
REMARK    1  A    between atoms: O_2  and  C_3
REMARK    2  A    between atoms: C_6  and  C_9
REMARK    3  A    between atoms: C_20  and  N_21
REMARK    4  A    between atoms: N_24  and  C_25
REMARK    5  A    between atoms: C_27  and  O_28
REMARK    6  A    between atoms: C_31  and  O_32
REMARK                            x       y       z     vdW  Elec       q    Type
REMARK                         _______ _______ _______ _____ _____    ______ ____
ROOT
ATOM      9  C   UNL     1      -3.092  -1.313  25.906  0.00  0.00    +0.249 C 
ATOM     10  O   UNL     1      -2.592  -1.642  26.540  0.00  0.00    -0.270 OA
ATOM     11  N   UNL     1      -3.221  -1.980  25.420  0.00  0.00    -0.276 N 
ATOM     12  C   UNL     1      -3.101  -2.791  25.260  0.00  0.00    +0.096 C 
ATOM     13  C   UNL     1      -3.618  -2.874  24.423  0.00  0.00    +0.043 C 
ATOM     14  C   UNL     1      -3.996  -3.104  23.738  0.00  0.00    +0.011 C 
ATOM     15  C   UNL     1      -3.915  -2.517  24.114  0.00  0.00    +0.058 C 
ATOM     16  C   UNL     1      -3.412  -2.453  24.923  0.00  0.00    +0.099 C 
ATOM     17  C   UNL     1      -4.154  -1.629  24.124  0.00  0.00    +0.041 A 
ATOM     18  C   UNL     1      -4.586  -1.077  23.689  0.00  0.00    +0.014 A 
ATOM     19  C   UNL     1      -4.634  -0.296  23.947  0.00  0.00    +0.023 A 
ATOM     20  C   UNL     1      -4.251  -0.066  24.641  0.00  0.00    +0.131 A 
ATOM     35  C   UNL     1      -3.819  -0.617  25.076  0.00  0.00    +0.276 A 
ATOM     36  O   UNL     1      -3.262  -0.607  25.943  0.00  0.00    -0.266 OA
ATOM     37  N   UNL     1      -3.770  -1.399  24.817  0.00  0.00    -0.298 N 
ATOM     38  C   UNL     1      -3.862  -1.945  24.441  0.00  0.00    +0.110 C 
ENDROOT
BRANCH   9   6
ATOM      3  C   UNL     1      -4.521   0.933  24.692  0.00  0.00    +0.139 A 
ATOM      4  C   UNL     1      -3.838   0.429  24.387  0.00  0.00    +0.037 A 
ATOM      5  C   UNL     1      -3.370  -0.291  24.761  0.00  0.00    +0.008 A 
ATOM      6  C   UNL     1      -3.547  -0.591  25.508  0.00  0.00    +0.054 A 
ATOM      7  C   UNL     1      -4.154  -0.256  25.955  0.00  0.00    +0.008 A 
ATOM      8  C   UNL     1      -4.585   0.380  25.654  0.00  0.00    +0.037 A 
BRANCH   3   2
ATOM      1  C   UNL     1      -5.774   1.522  25.108  0.00  0.00    +0.252 C 
ATOM      2  O   UNL     1      -4.972   1.616  24.349  0.00  0.00    -0.471 OA
ENDBRANCH   3   2
ENDBRANCH   9   6
BRANCH  20  21
ATOM     21  N   UNL     1      -4.151   0.759  25.148  0.00  0.00    -0.156 NA
ATOM     22  C   UNL     1      -3.505   1.384  24.854  0.00  0.00    +0.348 C 
ATOM     23  O   UNL     1      -3.085   1.002  24.062  0.00  0.00    -0.248 OA
ATOM     24  N   UNL     1      -3.097   2.227  25.008  0.00  0.00    -0.160 NA
BRANCH  24  25
ATOM     25  C   UNL     1      -2.566   2.228  24.375  0.00  0.00    +0.081 A 
ATOM     26  C   UNL     1      -1.792   2.008  24.558  0.00  0.00    +0.054 A 
ATOM     27  C   UNL     1      -1.217   1.990  23.967  0.00  0.00    +0.143 A 
ATOM     30  C   UNL     1      -1.416   2.192  23.192  0.00  0.00    +0.074 A 
ATOM     31  C   UNL     1      -2.189   2.412  23.008  0.00  0.00    +0.143 A 
ATOM     34  C   UNL     1      -2.765   2.430  23.600  0.00  0.00    +0.054 A 
BRANCH  27  28
ATOM     28  O   UNL     1      -0.444   1.770  24.150  0.00  0.00    -0.471 OA
ATOM     29  C   UNL     1       0.081   2.326  24.461  0.00  0.00    +0.252 C 
ENDBRANCH  27  28
BRANCH  31  32
ATOM     32  O   UNL     1      -2.388   2.614  22.233  0.00  0.00    -0.471 OA
ATOM     33  C   UNL     1      -2.399   2.036  21.646  0.00  0.00    +0.252 C 
ENDBRANCH  31  32
ENDBRANCH  24  25
ENDBRANCH  20  21
TORSDOF 6
ENDMDL
MODEL 6
REMARK VINA RESULT:     -12.3      2.290      3.573
REMARK  Name = 
REMARK  6 active torsions:
REMARK  status: ('A' for Active; 'I' for Inactive)
REMARK    1  A    between atoms: O_2  and  C_3
REMARK    2  A    between atoms: C_6  and  C_9
REMARK    3  A    between atoms: C_20  and  N_21
REMARK    4  A    between atoms: N_24  and  C_25
REMARK    5  A    between atoms: C_27  and  O_28
REMARK    6  A    between atoms: C_31  and  O_32
REMARK                            x       y       z     vdW  Elec       q    Type
REMARK                         _______ _______ _______ _____ _____    ______ ____
ROOT
ATOM      9  C   UNL     1      -2.385  -0.737  25.999  0.00  0.00    +0.249 C 
ATOM     10  O   UNL     1      -2.532  -1.154  26.751  0.00  0.00    -0.270 OA
ATOM     11  N   UNL     1      -3.052  -0.952  25.545  0.00  0.00    -0.276 N 
ATOM     12  C   UNL     1      -3.774  -1.366  25.473  0.00  0.00    +0.096 C 
ATOM     13  C   UNL     1      -4.017  -1.116  24.549  0.00  0.00    +0.043 C 
ATOM     14  C   UNL     1      -4.355  -1.006  23.815  0.00  0.00    +0.011 C 
ATOM     15  C   UNL     1      -3.778  -0.798  24.157  0.00  0.00    +0.058 C 
ATOM     16  C   UNL     1      -3.557  -1.050  25.052  0.00  0.00    +0.099 C 
ATOM     17  C   UNL     1      -3.022  -0.286  24.051  0.00  0.00    +0.041 A 
ATOM     18  C   UNL     1      -2.644   0.189  23.494  0.00  0.00    +0.014 A 
ATOM     19  C   UNL     1      -1.926   0.551  23.680  0.00  0.00    +0.023 A 
ATOM     20  C   UNL     1      -1.587   0.438  24.423  0.00  0.00    +0.131 A 
ATOM     35  C   UNL     1      -1.966  -0.037  24.981  0.00  0.00    +0.276 A 
ATOM     36  O   UNL     1      -1.777  -0.340  25.948  0.00  0.00    -0.266 OA
ATOM     37  N   UNL     1      -2.683  -0.400  24.795  0.00  0.00    -0.298 N 
ATOM     38  C   UNL     1      -3.225  -0.583  24.447  0.00  0.00    +0.110 C 
ENDROOT
BRANCH   9   6
ATOM      3  C   UNL     1      -0.716   0.989  24.327  0.00  0.00    +0.139 A 
ATOM      4  C   UNL     1      -1.554   1.096  24.639  0.00  0.00    +0.037 A 
ATOM      5  C   UNL     1      -2.102   0.556  25.174  0.00  0.00    +0.008 A 
ATOM      6  C   UNL     1      -1.854  -0.176  25.461  0.00  0.00    +0.054 A 
ATOM      7  C   UNL     1      -1.100  -0.457  25.280  0.00  0.00    +0.008 A 
ATOM      8  C   UNL     1      -0.593  -0.004  24.811  0.00  0.00    +0.037 A 
BRANCH   3   2
ATOM      1  C   UNL     1       0.426   0.618  23.522  0.00  0.00    +0.252 C 
ATOM      2  O   UNL     1      -0.187   1.492  23.821  0.00  0.00    -0.471 OA
ENDBRANCH   3   2
ENDBRANCH   9   6
BRANCH  20  21
ATOM     21  N   UNL     1      -0.782   0.736  24.882  0.00  0.00    -0.156 NA
ATOM     22  C   UNL     1      -0.763   1.623  25.210  0.00  0.00    +0.348 C 
ATOM     23  O   UNL     1      -1.621   2.025  24.982  0.00  0.00    -0.248 OA
ATOM     24  N   UNL     1      -0.257   2.282  25.668  0.00  0.00    -0.160 NA
BRANCH  24  25
ATOM     25  C   UNL     1      -0.808   2.898  25.651  0.00  0.00    +0.081 A 
ATOM     26  C   UNL     1      -0.670   3.484  25.088  0.00  0.00    +0.054 A 
ATOM     27  C   UNL     1      -1.187   4.125  25.023  0.00  0.00    +0.143 A 
ATOM     30  C   UNL     1      -1.841   4.179  25.524  0.00  0.00    +0.074 A 
ATOM     31  C   UNL     1      -1.978   3.593  26.088  0.00  0.00    +0.143 A 
ATOM     34  C   UNL     1      -1.462   2.952  26.152  0.00  0.00    +0.054 A 
BRANCH  27  28
ATOM     28  O   UNL     1      -1.049   4.710  24.460  0.00  0.00    -0.471 OA
ATOM     29  C   UNL     1      -0.684   5.417  24.679  0.00  0.00    +0.252 C 
ENDBRANCH  27  28
BRANCH  31  32
ATOM     32  O   UNL     1      -2.632   3.647  26.588  0.00  0.00    -0.471 OA
ATOM     33  C   UNL     1      -3.346   3.944  26.302  0.00  0.00    +0.252 C 
ENDBRANCH  31  32
ENDBRANCH  24  25
ENDBRANCH  20  21
TORSDOF 6
ENDMDL
