MODEL 1
REMARK VINA RESULT:     -17.0      0.000      0.000
REMARK  Name = 
REMARK  3 active torsions:
REMARK  status: ('A' for Active; 'I' for Inactive)
REMARK    1  A    between atoms: C_5  and  C_6
REMARK    2  A    between atoms: C_7  and  C_8
REMARK    3  A    between atoms: C_18  and  C_20
REMARK                            x       y       z     vdW  Elec       q    Type
REMARK                         _______ _______ _______ _____ _____    ______ ____
ROOT
ATOM      8  C   UNL     1      -4.237   1.080  24.920  0.00  0.00    +0.056 A 
ATOM      9  C   UNL     1      -5.052   1.179  25.009  0.00  0.00    +0.006 A 
ATOM     10  C   UNL     1      -5.364   1.930  25.147  0.00  0.00    +0.013 A 
ATOM     11  C   UNL     1      -4.861   2.583  25.196  0.00  0.00    +0.041 A 
ATOM     12  C   UNL     1      -4.883   3.491  25.330  0.00  0.00    +0.058 C 
ATOM     13  C   UNL     1      -5.330   4.020  25.448  0.00  0.00    +0.011 C 
ATOM     14  C   UNL     1      -4.526   3.919  25.360  0.00  0.00    +0.043 C 
ATOM     15  C   UNL     1      -3.544   4.000  25.282  0.00  0.00    +0.096 C 
ATOM     16  N   UNL     1      -3.348   3.199  25.147  0.00  0.00    -0.276 N 
ATOM     17  C   UNL     1      -3.936   3.586  25.257  0.00  0.00    +0.099 C 
ATOM     18  C   UNL     1      -2.878   2.535  25.007  0.00  0.00    +0.249 C 
ATOM     19  O   UNL     1      -3.228   1.791  24.931  0.00  0.00    -0.270 OA
ATOM     26  C   UNL     1      -4.494   2.970  25.218  0.00  0.00    +0.110 C 
ATOM     27  N   UNL     1      -4.047   2.484  25.107  0.00  0.00    -0.299 N 
ATOM     28  C   UNL     1      -3.735   1.733  24.969  0.00  0.00    +0.261 A 
ATOM     29  O   UNL     1      -2.995   1.389  24.851  0.00  0.00    -0.267 OA
ENDROOT
BRANCH  18  20
ATOM     20  C   UNL     1      -2.060   2.614  24.944  0.00  0.00    +0.054 A 
ATOM     21  C   UNL     1      -1.711   2.716  24.204  0.00  0.00    +0.005 A 
ATOM     22  C   UNL     1      -0.892   2.796  24.140  0.00  0.00    +0.000 A 
ATOM     23  C   UNL     1      -0.423   2.773  24.818  0.00  0.00    +0.000 A 
ATOM     24  C   UNL     1      -0.770   2.672  25.559  0.00  0.00    +0.000 A 
ATOM     25  C   UNL     1      -1.590   2.592  25.622  0.00  0.00    +0.005 A 
ENDBRANCH  18  20
BRANCH   8   7
ATOM      6  C   UNL     1      -4.411  -0.336  24.843  0.00  0.00    +0.000 C 
ATOM      7  C   UNL     1      -3.927   0.329  24.782  0.00  0.00    +0.005 C 
BRANCH   6   5
ATOM      1 CL   UNL     1      -3.164  -3.341  24.291  0.00  0.00    -0.082 Cl
ATOM      2  C   UNL     1      -3.475  -2.590  24.430  0.00  0.00    +0.058 A 
ATOM      3  C   UNL     1      -3.323  -2.205  25.142  0.00  0.00    +0.011 A 
ATOM      4  C   UNL     1      -3.635  -1.454  25.281  0.00  0.00    +0.001 A 
ATOM      5  C   UNL     1      -4.099  -1.088  24.705  0.00  0.00    +0.000 A 
ATOM     30  C   UNL     1      -4.252  -1.472  23.991  0.00  0.00    +0.001 A 
ATOM     31  C   UNL     1      -3.940  -2.224  23.853  0.00  0.00    +0.011 A 
ENDBRANCH   6   5
ENDBRANCH   8   7
TORSDOF 3
ENDMDL
MODEL 2
REMARK VINA RESULT:     -15.1      1.158      2.806
REMARK  Name = 
REMARK  3 active torsions:
REMARK  status: ('A' for Active; 'I' for Inactive)
REMARK    1  A    between atoms: C_5  and  C_6
REMARK    2  A    between atoms: C_7  and  C_8
REMARK    3  A    between atoms: C_18  and  C_20
REMARK                            x       y       z     vdW  Elec       q    Type
REMARK                         _______ _______ _______ _____ _____    ______ ____
ROOT
ATOM      8  C   UNL     1      -1.960   0.572  25.126  0.00  0.00    +0.056 A 
ATOM      9  C   UNL     1      -1.212   0.299  25.345  0.00  0.00    +0.006 A 
ATOM     10  C   UNL     1      -0.634   0.833  25.592  0.00  0.00    +0.013 A 
ATOM     11  C   UNL     1      -0.803   1.639  25.621  0.00  0.00    +0.041 A 
ATOM     12  C   UNL     1      -0.411   2.443  25.835  0.00  0.00    +0.058 C 
ATOM     13  C   UNL     1       0.193   2.718  26.063  0.00  0.00    +0.011 C 
ATOM     14  C   UNL     1      -0.546   2.984  25.847  0.00  0.00    +0.043 C 
ATOM     15  C   UNL     1      -1.365   3.493  25.630  0.00  0.00    +0.096 C 
ATOM     16  N   UNL     1      -1.864   2.863  25.399  0.00  0.00    -0.276 N 
ATOM     17  C   UNL     1      -1.195   2.949  25.629  0.00  0.00    +0.099 C 
ATOM     18  C   UNL     1      -2.543   2.477  25.134  0.00  0.00    +0.249 C 
ATOM     19  O   UNL     1      -2.545   1.657  25.047  0.00  0.00    -0.270 OA
ATOM     26  C   UNL     1      -0.963   2.149  25.622  0.00  0.00    +0.110 C 
ATOM     27  N   UNL     1      -1.550   1.913  25.403  0.00  0.00    -0.299 N 
ATOM     28  C   UNL     1      -2.128   1.379  25.156  0.00  0.00    +0.261 A 
ATOM     29  O   UNL     1      -2.912   1.400  24.899  0.00  0.00    -0.267 OA
ENDROOT
BRANCH  18  20
ATOM     20  C   UNL     1      -3.221   2.912  24.956  0.00  0.00    +0.054 A 
ATOM     21  C   UNL     1      -3.358   3.166  24.183  0.00  0.00    +0.005 A 
ATOM     22  C   UNL     1      -4.037   3.601  24.005  0.00  0.00    +0.000 A 
ATOM     23  C   UNL     1      -4.578   3.781  24.601  0.00  0.00    +0.000 A 
ATOM     24  C   UNL     1      -4.442   3.528  25.373  0.00  0.00    +0.000 A 
ATOM     25  C   UNL     1      -3.763   3.093  25.551  0.00  0.00    +0.005 A 
ENDBRANCH  18  20
BRANCH   8   7
ATOM      6  C   UNL     1      -2.354  -0.762  24.803  0.00  0.00    +0.000 C 
ATOM      7  C   UNL     1      -2.537   0.038  24.879  0.00  0.00    +0.005 C 
BRANCH   6   5
ATOM      1 CL   UNL     1      -4.668  -2.898  23.814  0.00  0.00    -0.082 Cl
ATOM      2  C   UNL     1      -4.089  -2.364  24.061  0.00  0.00    +0.058 A 
ATOM      3  C   UNL     1      -4.073  -1.601  23.750  0.00  0.00    +0.011 A 
ATOM      4  C   UNL     1      -3.494  -1.067  23.997  0.00  0.00    +0.001 A 
ATOM      5  C   UNL     1      -2.933  -1.297  24.556  0.00  0.00    +0.000 A 
ATOM     30  C   UNL     1      -2.949  -2.060  24.868  0.00  0.00    +0.001 A 
ATOM     31  C   UNL     1      -3.528  -2.595  24.621  0.00  0.00    +0.011 A 
ENDBRANCH   6   5
ENDBRANCH   8   7
TORSDOF 3
ENDMDL
MODEL 3
REMARK VINA RESULT:     -15.0      1.699      3.115
REMARK  Name = 
REMARK  3 active torsions:
REMARK  status: ('A' for Active; 'I' for Inactive)
REMARK    1  A    between atoms: C_5  and  C_6
REMARK    2  A    between atoms: C_7  and  C_8
REMARK    3  A    between atoms: C_18  and  C_20
REMARK                            x       y       z     vdW  Elec       q    Type
REMARK                         _______ _______ _______ _____ _____    ______ ____
ROOT
ATOM      8  C   UNL     1      -1.308   2.042  25.074  0.00  0.00    +0.056 A 
ATOM      9  C   UNL     1      -0.538   2.338  25.074  0.00  0.00    +0.006 A 
ATOM     10  C   UNL     1      -0.409   3.153  25.091  0.00  0.00    +0.013 A 
ATOM     11  C   UNL     1      -1.050   3.671  25.108  0.00  0.00    +0.041 A 
ATOM     12  C   UNL     1      -1.241   4.570  25.130  0.00  0.00    +0.058 C 
ATOM     13  C   UNL     1      -0.929   5.199  25.142  0.00  0.00    +0.011 C 
ATOM     14  C   UNL     1      -1.688   4.903  25.142  0.00  0.00    +0.043 C 
ATOM     15  C   UNL     1      -2.663   4.743  25.148  0.00  0.00    +0.096 C 
ATOM     16  N   UNL     1      -2.668   3.908  25.129  0.00  0.00    -0.276 N 
ATOM     17  C   UNL     1      -2.186   4.432  25.136  0.00  0.00    +0.099 C 
ATOM     18  C   UNL     1      -2.971   3.140  25.114  0.00  0.00    +0.249 C 
ATOM     19  O   UNL     1      -2.457   2.495  25.095  0.00  0.00    -0.270 OA
ATOM     26  C   UNL     1      -1.499   3.962  25.119  0.00  0.00    +0.110 C 
ATOM     27  N   UNL     1      -1.820   3.375  25.109  0.00  0.00    -0.299 N 
ATOM     28  C   UNL     1      -1.949   2.561  25.092  0.00  0.00    +0.261 A 
ATOM     29  O   UNL     1      -2.590   2.042  25.086  0.00  0.00    -0.267 OA
ENDROOT
BRANCH  18  20
ATOM     20  C   UNL     1      -3.786   3.019  25.119  0.00  0.00    +0.054 A 
ATOM     21  C   UNL     1      -4.181   2.839  24.418  0.00  0.00    +0.005 A 
ATOM     22  C   UNL     1      -4.998   2.718  24.422  0.00  0.00    +0.000 A 
ATOM     23  C   UNL     1      -5.418   2.775  25.130  0.00  0.00    +0.000 A 
ATOM     24  C   UNL     1      -5.024   2.954  25.831  0.00  0.00    +0.000 A 
ATOM     25  C   UNL     1      -4.208   3.076  25.826  0.00  0.00    +0.005 A 
ENDBRANCH  18  20
BRANCH   8   7
ATOM      6  C   UNL     1      -0.796   0.709  25.085  0.00  0.00    +0.000 C 
ATOM      7  C   UNL     1      -1.436   1.228  25.057  0.00  0.00    +0.005 C 
BRANCH   6   5
ATOM      1 CL   UNL     1      -1.311  -2.551  25.016  0.00  0.00    -0.082 Cl
ATOM      2  C   UNL     1      -1.182  -1.736  25.033  0.00  0.00    +0.058 A 
ATOM      3  C   UNL     1      -1.325  -1.311  25.725  0.00  0.00    +0.011 A 
ATOM      4  C   UNL     1      -1.196  -0.496  25.742  0.00  0.00    +0.001 A 
ATOM      5  C   UNL     1      -0.925  -0.107  25.068  0.00  0.00    +0.000 A 
ATOM     30  C   UNL     1      -0.782  -0.532  24.375  0.00  0.00    +0.001 A 
ATOM     31  C   UNL     1      -0.911  -1.347  24.358  0.00  0.00    +0.011 A 
ENDBRANCH   6   5
ENDBRANCH   8   7
TORSDOF 3
ENDMDL
MODEL 4
REMARK VINA RESULT:     -14.6      2.148      4.246
REMARK  Name = 
REMARK  3 active torsions:
REMARK  status: ('A' for Active; 'I' for Inactive)
REMARK    1  A    between atoms: C_5  and  C_6
REMARK    2  A    between atoms: C_7  and  C_8
REMARK    3  A    between atoms: C_18  and  C_20
REMARK                            x       y       z     vdW  Elec       q    Type
REMARK                         _______ _______ _______ _____ _____    ______ ____
ROOT
ATOM      8  C   UNL     1      -3.684   0.102  24.919  0.00  0.00    +0.056 A 
ATOM      9  C   UNL     1      -4.210  -0.533  24.909  0.00  0.00    +0.006 A 
ATOM     10  C   UNL     1      -3.927  -1.301  24.802  0.00  0.00    +0.013 A 
ATOM     11  C   UNL     1      -3.119  -1.433  24.704  0.00  0.00    +0.041 A 
ATOM     12  C   UNL     1      -2.518  -2.115  24.573  0.00  0.00    +0.058 C 
ATOM     13  C   UNL     1      -2.484  -2.812  24.498  0.00  0.00    +0.011 C 
ATOM     14  C   UNL     1      -1.968  -2.182  24.509  0.00  0.00    +0.043 C 
ATOM     15  C   UNL     1      -1.198  -1.563  24.492  0.00  0.00    +0.096 C 
ATOM     16  N   UNL     1      -1.598  -0.839  24.607  0.00  0.00    -0.276 N 
ATOM     17  C   UNL     1      -1.763  -1.530  24.554  0.00  0.00    +0.099 C 
ATOM     18  C   UNL     1      -1.707  -0.026  24.701  0.00  0.00    +0.249 C 
ATOM     19  O   UNL     1      -2.467   0.278  24.811  0.00  0.00    -0.270 OA
ATOM     26  C   UNL     1      -2.588  -1.463  24.646  0.00  0.00    +0.110 C 
ATOM     27  N   UNL     1      -2.593  -0.797  24.715  0.00  0.00    -0.299 N 
ATOM     28  C   UNL     1      -2.875  -0.029  24.822  0.00  0.00    +0.261 A 
ATOM     29  O   UNL     1      -2.570   0.735  24.868  0.00  0.00    -0.267 OA
ENDROOT
BRANCH  18  20
ATOM     20  C   UNL     1      -1.058   0.481  24.685  0.00  0.00    +0.054 A 
ATOM     21  C   UNL     1      -0.758   0.790  25.389  0.00  0.00    +0.005 A 
ATOM     22  C   UNL     1      -0.107   1.299  25.373  0.00  0.00    +0.000 A 
ATOM     23  C   UNL     1       0.242   1.497  24.653  0.00  0.00    +0.000 A 
ATOM     24  C   UNL     1      -0.057   1.189  23.949  0.00  0.00    +0.000 A 
ATOM     25  C   UNL     1      -0.707   0.681  23.965  0.00  0.00    +0.005 A 
ENDBRANCH  18  20
BRANCH   8   7
ATOM      6  C   UNL     1      -4.778   1.005  25.091  0.00  0.00    +0.000 C 
ATOM      7  C   UNL     1      -3.967   0.869  25.027  0.00  0.00    +0.005 C 
BRANCH   6   5
ATOM      1 CL   UNL     1      -5.910   4.075  25.521  0.00  0.00    -0.082 Cl
ATOM      2  C   UNL     1      -5.627   3.307  25.414  0.00  0.00    +0.058 A 
ATOM      3  C   UNL     1      -5.098   3.145  24.803  0.00  0.00    +0.011 A 
ATOM      4  C   UNL     1      -4.815   2.378  24.695  0.00  0.00    +0.001 A 
ATOM      5  C   UNL     1      -5.061   1.773  25.199  0.00  0.00    +0.000 A 
ATOM     30  C   UNL     1      -5.591   1.934  25.811  0.00  0.00    +0.001 A 
ATOM     31  C   UNL     1      -5.874   2.703  25.918  0.00  0.00    +0.011 A 
ENDBRANCH   6   5
ENDBRANCH   8   7
TORSDOF 3
ENDMDL
MODEL 5
REMARK VINA RESULT:     -14.3      2.348      4.590
REMARK  Name = 
REMARK  3 active torsions:
REMARK  status: ('A' for Active; 'I' for Inactive)
REMARK    1  A    between atoms: C_5  and  C_6
REMARK    2  A    between atoms: C_7  and  C_8
REMARK    3  A    between atoms: C_18  and  C_20
REMARK                            x       y       z     vdW  Elec       q    Type
REMARK                         _______ _______ _______ _____ _____    ______ ____
ROOT
ATOM      8  C   UNL     1      -3.442   0.650  24.649  0.00  0.00    +0.056 A 
ATOM      9  C   UNL     1      -4.250   0.645  24.482  0.00  0.00    +0.006 A 
ATOM     10  C   UNL     1      -4.626  -0.062  24.285  0.00  0.00    +0.013 A 
ATOM     11  C   UNL     1      -4.195  -0.764  24.254  0.00  0.00    +0.041 A 
ATOM     12  C   UNL     1      -4.301  -1.660  24.080  0.00  0.00    +0.058 C 
ATOM     13  C   UNL     1      -4.789  -2.132  23.900  0.00  0.00    +0.011 C 
ATOM     14  C   UNL     1      -3.991  -2.123  24.065  0.00  0.00    +0.043 C 
ATOM     15  C   UNL     1      -3.036  -2.316  24.228  0.00  0.00    +0.096 C 
ATOM     16  N   UNL     1      -2.768  -1.547  24.413  0.00  0.00    -0.276 N 
ATOM     17  C   UNL     1      -3.381  -1.862  24.234  0.00  0.00    +0.099 C 
ATOM     18  C   UNL     1      -2.245  -0.943  24.623  0.00  0.00    +0.249 C 
ATOM     19  O   UNL     1      -2.518  -0.168  24.699  0.00  0.00    -0.270 OA
ATOM     26  C   UNL     1      -3.870  -1.189  24.248  0.00  0.00    +0.110 C 
ATOM     27  N   UNL     1      -3.387  -0.759  24.421  0.00  0.00    -0.299 N 
ATOM     28  C   UNL     1      -3.010  -0.052  24.618  0.00  0.00    +0.261 A 
ATOM     29  O   UNL     1      -2.252   0.203  24.817  0.00  0.00    -0.267 OA
ENDROOT
BRANCH  18  20
ATOM     20  C   UNL     1      -1.450  -1.115  24.757  0.00  0.00    +0.054 A 
ATOM     21  C   UNL     1      -1.203  -1.381  25.498  0.00  0.00    +0.005 A 
ATOM     22  C   UNL     1      -0.407  -1.553  25.632  0.00  0.00    +0.000 A 
ATOM     23  C   UNL     1       0.142  -1.459  25.024  0.00  0.00    +0.000 A 
ATOM     24  C   UNL     1      -0.103  -1.193  24.283  0.00  0.00    +0.000 A 
ATOM     25  C   UNL     1      -0.899  -1.021  24.149  0.00  0.00    +0.005 A 
ENDBRANCH  18  20
BRANCH   8   7
ATOM      6  C   UNL     1      -3.454   2.076  24.732  0.00  0.00    +0.000 C 
ATOM      7  C   UNL     1      -3.066   1.357  24.846  0.00  0.00    +0.005 C 
BRANCH   6   5
ATOM      1 CL   UNL     1      -1.949   4.905  25.522  0.00  0.00    -0.082 Cl
ATOM      2  C   UNL     1      -2.325   4.198  25.324  0.00  0.00    +0.058 A 
ATOM      3  C   UNL     1      -2.125   3.805  24.629  0.00  0.00    +0.011 A 
ATOM      4  C   UNL     1      -2.500   3.098  24.431  0.00  0.00    +0.001 A 
ATOM      5  C   UNL     1      -3.077   2.784  24.930  0.00  0.00    +0.000 A 
ATOM     30  C   UNL     1      -3.279   3.177  25.627  0.00  0.00    +0.001 A 
ATOM     31  C   UNL     1      -2.902   3.885  25.824  0.00  0.00    +0.011 A 
ENDBRANCH   6   5
ENDBRANCH   8   7
TORSDOF 3
ENDMDL
MODEL 6
REMARK VINA RESULT:     -14.2      2.396      4.934
REMARK  Name = 
REMARK  3 active torsions:
REMARK  status: ('A' for Active; 'I' for Inactive)
REMARK    1  A    between atoms: C_5  and  C_6
REMARK    2  A    between atoms: C_7  and  C_8
REMARK    3  A    between atoms: C_18  and  C_20
REMARK                            x       y       z     vdW  Elec       q    Type
REMARK                         _______ _______ _______ _____ _____    ______ ____
ROOT
ATOM      8  C   UNL     1      -2.065   1.392  24.560  0.00  0.00    +0.056 A 
ATOM      9  C   UNL     1      -1.422   1.859  24.340  0.00  0.00    +0.006 A 
ATOM     10  C   UNL     1      -0.710   1.504  24.120  0.00  0.00    +0.013 A 
ATOM     11  C   UNL     1      -0.642   0.682  24.120  0.00  0.00    +0.041 A 
ATOM     12  C   UNL     1      -0.034   0.016  23.942  0.00  0.00    +0.058 C 
ATOM     13  C   UNL     1       0.628  -0.083  23.731  0.00  0.00    +0.011 C 
ATOM     14  C   UNL     1      -0.010  -0.541  23.949  0.00  0.00    +0.043 C 
ATOM     15  C   UNL     1      -0.655  -1.254  24.176  0.00  0.00    +0.096 C 
ATOM     16  N   UNL     1      -1.317  -0.785  24.377  0.00  0.00    -0.276 N 
ATOM     17  C   UNL     1      -0.646  -0.685  24.158  0.00  0.00    +0.099 C 
ATOM     18  C   UNL     1      -2.084  -0.600  24.620  0.00  0.00    +0.249 C 
ATOM     19  O   UNL     1      -2.320   0.189  24.674  0.00  0.00    -0.270 OA
ATOM     26  C   UNL     1      -0.652   0.148  24.138  0.00  0.00    +0.110 C 
ATOM     27  N   UNL     1      -1.286   0.215  24.340  0.00  0.00    -0.299 N 
ATOM     28  C   UNL     1      -1.997   0.570  24.560  0.00  0.00    +0.261 A 
ATOM     29  O   UNL     1      -2.748   0.336  24.809  0.00  0.00    -0.267 OA
ENDROOT
BRANCH  18  20
ATOM     20  C   UNL     1      -2.614  -1.203  24.807  0.00  0.00    +0.054 A 
ATOM     21  C   UNL     1      -2.697  -1.452  25.589  0.00  0.00    +0.005 A 
ATOM     22  C   UNL     1      -3.228  -2.056  25.776  0.00  0.00    +0.000 A 
ATOM     23  C   UNL     1      -3.675  -2.410  25.180  0.00  0.00    +0.000 A 
ATOM     24  C   UNL     1      -3.593  -2.162  24.399  0.00  0.00    +0.000 A 
ATOM     25  C   UNL     1      -3.062  -1.558  24.211  0.00  0.00    +0.005 A 
ENDBRANCH  18  20
BRANCH   8   7
ATOM      6  C   UNL     1      -2.867   2.564  24.711  0.00  0.00    +0.000 C 
ATOM      7  C   UNL     1      -2.776   1.747  24.779  0.00  0.00    +0.005 C 
BRANCH   6   5
ATOM      1 CL   UNL     1      -5.713   3.986  25.590  0.00  0.00    -0.082 Cl
ATOM      2  C   UNL     1      -5.002   3.630  25.370  0.00  0.00    +0.058 A 
ATOM      3  C   UNL     1      -4.975   3.135  24.712  0.00  0.00    +0.011 A 
ATOM      4  C   UNL     1      -4.264   2.780  24.492  0.00  0.00    +0.001 A 
ATOM      5  C   UNL     1      -3.580   2.920  24.931  0.00  0.00    +0.000 A 
ATOM     30  C   UNL     1      -3.606   3.415  25.590  0.00  0.00    +0.001 A 
ATOM     31  C   UNL     1      -4.318   3.771  25.810  0.00  0.00    +0.011 A 
ENDBRANCH   6   5
ENDBRANCH   8   7
TORSDOF 3
ENDMDL
MODEL 7
REMARK VINA RESULT:     -13.9      2.177      4.841
REMARK  Name = 
REMARK  3 active torsions:
REMARK  status: ('A' for Active; 'I' for Inactive)
REMARK    1  A    between atoms: C_5  and  C_6
REMARK    2  A    between atoms: C_7  and  C_8
REMARK    3  A    between atoms: C_18  and  C_20
REMARK                            x       y       z     vdW  Elec       q    Type
REMARK                         _______ _______ _______ _____ _____    ______ ____
ROOT
ATOM      8  C   UNL     1      -2.248   1.378  24.876  0.00  0.00    +0.056 A 
ATOM      9  C   UNL     1      -1.610   0.857  24.830  0.00  0.00    +0.006 A 
ATOM     10  C   UNL     1      -1.739   0.043  24.858  0.00  0.00    +0.013 A 
ATOM     11  C   UNL     1      -2.507  -0.251  24.930  0.00  0.00    +0.041 A 
ATOM     12  C   UNL     1      -2.965  -1.045  24.986  0.00  0.00    +0.058 C 
ATOM     13  C   UNL     1      -2.863  -1.740  24.991  0.00  0.00    +0.011 C 
ATOM     14  C   UNL     1      -3.491  -1.223  25.035  0.00  0.00    +0.043 C 
ATOM     15  C   UNL     1      -4.365  -0.767  25.102  0.00  0.00    +0.096 C 
ATOM     16  N   UNL     1      -4.112   0.028  25.065  0.00  0.00    -0.276 N 
ATOM     17  C   UNL     1      -3.817  -0.620  25.052  0.00  0.00    +0.099 C 
ATOM     18  C   UNL     1      -4.162   0.852  25.053  0.00  0.00    +0.249 C 
ATOM     19  O   UNL     1      -3.476   1.306  24.984  0.00  0.00    -0.270 OA
ATOM     26  C   UNL     1      -3.021  -0.387  24.978  0.00  0.00    +0.110 C 
ATOM     27  N   UNL     1      -3.145   0.270  24.976  0.00  0.00    -0.299 N 
ATOM     28  C   UNL     1      -3.016   1.085  24.948  0.00  0.00    +0.261 A 
ATOM     29  O   UNL     1      -3.463   1.777  24.974  0.00  0.00    -0.267 OA
ENDROOT
BRANCH  18  20
ATOM     20  C   UNL     1      -4.897   1.221  25.109  0.00  0.00    +0.054 A 
ATOM     21  C   UNL     1      -5.335   1.376  24.428  0.00  0.00    +0.005 A 
ATOM     22  C   UNL     1      -6.071   1.746  24.485  0.00  0.00    +0.000 A 
ATOM     23  C   UNL     1      -6.368   1.960  25.224  0.00  0.00    +0.000 A 
ATOM     24  C   UNL     1      -5.931   1.806  25.905  0.00  0.00    +0.000 A 
ATOM     25  C   UNL     1      -5.195   1.436  25.849  0.00  0.00    +0.005 A 
ENDBRANCH  18  20
BRANCH   8   7
ATOM      6  C   UNL     1      -1.373   2.497  25.028  0.00  0.00    +0.000 C 
ATOM      7  C   UNL     1      -2.118   2.192  24.848  0.00  0.00    +0.005 C 
BRANCH   6   5
ATOM      1 CL   UNL     1      -0.855   5.755  24.917  0.00  0.00    -0.082 Cl
ATOM      2  C   UNL     1      -0.985   4.941  24.945  0.00  0.00    +0.058 A 
ATOM      3  C   UNL     1      -1.567   4.632  25.440  0.00  0.00    +0.011 A 
ATOM      4  C   UNL     1      -1.697   3.818  25.468  0.00  0.00    +0.001 A 
ATOM      5  C   UNL     1      -1.244   3.312  25.000  0.00  0.00    +0.000 A 
ATOM     30  C   UNL     1      -0.660   3.620  24.504  0.00  0.00    +0.001 A 
ATOM     31  C   UNL     1      -0.531   4.435  24.477  0.00  0.00    +0.011 A 
ENDBRANCH   6   5
ENDBRANCH   8   7
TORSDOF 3
ENDMDL
MODEL 8
REMARK VINA RESULT:     -13.7      1.839      3.963
REMARK  Name = 
REMARK  3 active torsions:
REMARK  status: ('A' for Active; 'I' for Inactive)
REMARK    1  A    between atoms: C_5  and  C_6
REMARK    2  A    between atoms: C_7  and  C_8
REMARK    3  A    between atoms: C_18  and  C_20
REMARK                            x       y       z     vdW  Elec       q    Type
REMARK                         _______ _______ _______ _____ _____    ______ ____
ROOT
ATOM      8  C   UNL     1      -2.291   1.233  24.301  0.00  0.00    +0.056 A 
ATOM      9  C   UNL     1      -2.401   2.047  24.382  0.00  0.00    +0.006 A 
ATOM     10  C   UNL     1      -3.136   2.343  24.610  0.00  0.00    +0.013 A 
ATOM     11  C   UNL     1      -3.761   1.826  24.758  0.00  0.00    +0.041 A 
ATOM     12  C   UNL     1      -4.645   1.828  25.011  0.00  0.00    +0.058 C 
ATOM     13  C   UNL     1      -5.166   2.263  25.186  0.00  0.00    +0.011 C 
ATOM     14  C   UNL     1      -5.054   1.461  25.105  0.00  0.00    +0.043 C 
ATOM     15  C   UNL     1      -5.116   0.475  25.063  0.00  0.00    +0.096 C 
ATOM     16  N   UNL     1      -4.334   0.296  24.829  0.00  0.00    -0.276 N 
ATOM     17  C   UNL     1      -4.721   0.876  24.974  0.00  0.00    +0.099 C 
ATOM     18  C   UNL     1      -3.681  -0.160  24.614  0.00  0.00    +0.249 C 
ATOM     19  O   UNL     1      -2.964   0.207  24.431  0.00  0.00    -0.270 OA
ATOM     26  C   UNL     1      -4.131   1.449  24.840  0.00  0.00    +0.110 C 
ATOM     27  N   UNL     1      -3.651   1.012  24.677  0.00  0.00    -0.299 N 
ATOM     28  C   UNL     1      -2.916   0.716  24.448  0.00  0.00    +0.261 A 
ATOM     29  O   UNL     1      -2.569  -0.018  24.304  0.00  0.00    -0.267 OA
ENDROOT
BRANCH  18  20
ATOM     20  C   UNL     1      -3.743  -0.981  24.582  0.00  0.00    +0.054 A 
ATOM     21  C   UNL     1      -4.055  -1.346  23.911  0.00  0.00    +0.005 A 
ATOM     22  C   UNL     1      -4.118  -2.169  23.879  0.00  0.00    +0.000 A 
ATOM     23  C   UNL     1      -3.869  -2.626  24.519  0.00  0.00    +0.000 A 
ATOM     24  C   UNL     1      -3.558  -2.262  25.190  0.00  0.00    +0.000 A 
ATOM     25  C   UNL     1      -3.495  -1.439  25.222  0.00  0.00    +0.005 A 
ENDBRANCH  18  20
BRANCH   8   7
ATOM      6  C   UNL     1      -0.910   1.447  24.003  0.00  0.00    +0.000 C 
ATOM      7  C   UNL     1      -1.555   0.938  24.072  0.00  0.00    +0.005 C 
BRANCH   6   5
ATOM      1 CL   UNL     1       2.032   0.263  23.089  0.00  0.00    -0.082 Cl
ATOM      2  C   UNL     1       1.297   0.559  23.317  0.00  0.00    +0.058 A 
ATOM      3  C   UNL     1       0.607   0.163  23.099  0.00  0.00    +0.011 A 
ATOM      4  C   UNL     1      -0.128   0.459  23.327  0.00  0.00    +0.001 A 
ATOM      5  C   UNL     1      -0.174   1.151  23.774  0.00  0.00    +0.000 A 
ATOM     30  C   UNL     1       0.516   1.547  23.993  0.00  0.00    +0.001 A 
ATOM     31  C   UNL     1       1.252   1.251  23.765  0.00  0.00    +0.011 A 
ENDBRANCH   6   5
ENDBRANCH   8   7
TORSDOF 3
ENDMDL
