MODEL 1
REMARK VINA RESULT:     -12.3      0.000      0.000
REMARK  Name = 
REMARK  4 active torsions:
REMARK  status: ('A' for Active; 'I' for Inactive)
REMARK    1  A    between atoms: C_2  and  C_5
REMARK    2  A    between atoms: C_8  and  C_11
REMARK    3  A    between atoms: C_18  and  O_20
REMARK    4  A    between atoms: O_20  and  C_21
REMARK                            x       y       z     vdW  Elec       q    Type
REMARK                         _______ _______ _______ _____ _____    ______ ____
ROOT
ATOM     11  C   UNL     1      -4.025   0.447  24.584  0.00  0.00    +0.249 C 
ATOM     12  O   UNL     1      -4.730   0.802  24.827  0.00  0.00    -0.270 OA
ATOM     13  N   UNL     1      -3.390   0.915  24.343  0.00  0.00    -0.270 N 
ATOM     14  C   UNL     1      -2.712   0.505  24.111  0.00  0.00    +0.126 C 
ATOM     15  C   UNL     1      -1.994   0.810  23.845  0.00  0.00    +0.164 C 
ATOM     16  O   UNL     1      -1.775   1.599  23.744  0.00  0.00    -0.348 OA
ATOM     17  C   UNL     1      -2.222   2.278  23.884  0.00  0.00    +0.187 C 
ATOM     18  C   UNL     1      -2.997   2.336  24.161  0.00  0.00    +0.217 C 
ATOM     19  C   UNL     1      -3.516   1.729  24.364  0.00  0.00    +0.140 C 
ENDROOT
BRANCH  11   8
ATOM      5  C   UNL     1      -3.818  -2.019  24.581  0.00  0.00    +0.071 A 
ATOM      6  C   UNL     1      -4.104  -1.628  23.914  0.00  0.00    +0.004 A 
ATOM      7  C   UNL     1      -4.173  -0.807  23.915  0.00  0.00    +0.004 A 
ATOM      8  C   UNL     1      -3.956  -0.375  24.583  0.00  0.00    +0.054 A 
ATOM      9  C   UNL     1      -3.670  -0.766  25.252  0.00  0.00    +0.004 A 
ATOM     10  C   UNL     1      -3.601  -1.588  25.251  0.00  0.00    +0.004 A 
BRANCH   5   2
ATOM      1  F   UNL     1      -3.680  -3.664  24.579  0.00  0.00    -0.166 F 
ATOM      2  C   UNL     1      -3.749  -2.842  24.580  0.00  0.00    +0.419 C 
ATOM      3  F   UNL     1      -4.156  -2.875  23.863  0.00  0.00    -0.166 F 
ATOM      4  F   UNL     1      -3.342  -2.808  25.297  0.00  0.00    -0.166 F 
ENDBRANCH   5   2
ENDBRANCH  11   8
BRANCH  18  20
ATOM     20  O   UNL     1      -3.291   3.103  24.244  0.00  0.00    -0.459 OA
BRANCH  20  21
ATOM     21  C   UNL     1      -3.028   3.579  24.863  0.00  0.00    +0.245 A 
ATOM     22  C   UNL     1      -2.372   4.069  24.757  0.00  0.00    +0.156 A 
ATOM     23  N   UNL     1      -2.109   4.546  25.378  0.00  0.00    -0.236 NA
ATOM     24  C   UNL     1      -2.502   4.533  26.103  0.00  0.00    +0.120 A 
ATOM     25  C   UNL     1      -3.158   4.044  26.209  0.00  0.00    +0.123 A 
ATOM     26  N   UNL     1      -3.420   3.568  25.588  0.00  0.00    -0.207 NA
ENDBRANCH  20  21
ENDBRANCH  18  20
TORSDOF 4
ENDMDL
MODEL 2
REMARK VINA RESULT:     -11.5      3.118      5.321
REMARK  Name = 
REMARK  4 active torsions:
REMARK  status: ('A' for Active; 'I' for Inactive)
REMARK    1  A    between atoms: C_2  and  C_5
REMARK    2  A    between atoms: C_8  and  C_11
REMARK    3  A    between atoms: C_18  and  O_20
REMARK    4  A    between atoms: O_20  and  C_21
REMARK                            x       y       z     vdW  Elec       q    Type
REMARK                         _______ _______ _______ _____ _____    ______ ____
ROOT
ATOM     11  C   UNL     1      -3.099   2.535  25.230  0.00  0.00    +0.249 C 
ATOM     12  O   UNL     1      -3.585   2.426  25.888  0.00  0.00    -0.270 OA
ATOM     13  N   UNL     1      -3.107   1.985  24.615  0.00  0.00    -0.270 N 
ATOM     14  C   UNL     1      -2.601   2.147  23.984  0.00  0.00    +0.126 C 
ATOM     15  C   UNL     1      -2.483   1.709  23.295  0.00  0.00    +0.164 C 
ATOM     16  O   UNL     1      -2.841   1.002  23.066  0.00  0.00    -0.348 OA
ATOM     17  C   UNL     1      -3.406   0.558  23.471  0.00  0.00    +0.187 C 
ATOM     18  C   UNL     1      -3.753   0.711  24.204  0.00  0.00    +0.217 C 
ATOM     19  C   UNL     1      -3.619   1.346  24.713  0.00  0.00    +0.140 C 
ENDROOT
BRANCH  11   8
ATOM      5  C   UNL     1      -1.619   4.515  25.100  0.00  0.00    +0.071 A 
ATOM      6  C   UNL     1      -1.340   3.811  25.426  0.00  0.00    +0.004 A 
ATOM      7  C   UNL     1      -1.832   3.152  25.469  0.00  0.00    +0.004 A 
ATOM      8  C   UNL     1      -2.606   3.195  25.187  0.00  0.00    +0.054 A 
ATOM      9  C   UNL     1      -2.887   3.900  24.860  0.00  0.00    +0.004 A 
ATOM     10  C   UNL     1      -2.394   4.559  24.817  0.00  0.00    +0.004 A 
BRANCH   5   2
ATOM      1  F   UNL     1      -0.633   5.835  25.014  0.00  0.00    -0.166 F 
ATOM      2  C   UNL     1      -1.126   5.175  25.057  0.00  0.00    +0.419 C 
ATOM      3  F   UNL     1      -0.595   4.748  24.592  0.00  0.00    -0.166 F 
ATOM      4  F   UNL     1      -1.657   5.602  25.522  0.00  0.00    -0.166 F 
ENDBRANCH   5   2
ENDBRANCH  11   8
BRANCH  18  20
ATOM     20  O   UNL     1      -4.306   0.155  24.462  0.00  0.00    -0.459 OA
BRANCH  20  21
ATOM     21  C   UNL     1      -4.068  -0.618  24.623  0.00  0.00    +0.245 A 
ATOM     22  C   UNL     1      -4.207  -1.215  24.071  0.00  0.00    +0.156 A 
ATOM     23  N   UNL     1      -3.969  -1.989  24.232  0.00  0.00    -0.236 NA
ATOM     24  C   UNL     1      -3.592  -2.165  24.944  0.00  0.00    +0.120 A 
ATOM     25  C   UNL     1      -3.453  -1.568  25.496  0.00  0.00    +0.123 A 
ATOM     26  N   UNL     1      -3.691  -0.794  25.334  0.00  0.00    -0.207 NA
ENDBRANCH  20  21
ENDBRANCH  18  20
TORSDOF 4
ENDMDL
