MODEL 1
REMARK VINA RESULT:     -10.6      0.000      0.000
REMARK  Name = 
REMARK  8 active torsions:
REMARK  status: ('A' for Active; 'I' for Inactive)
REMARK    1  A    between atoms: C_3  and  C_7
REMARK    2  A    between atoms: N_9  and  C_10
REMARK    3  A    between atoms: C_14  and  C_16
REMARK    4  A    between atoms: N_18  and  C_19
REMARK    5  A    between atoms: C_19  and  C_20
REMARK    6  A    between atoms: C_19  and  C_26
REMARK    7  A    between atoms: C_20  and  C_21
REMARK    8  A    between atoms: C_29  and  C_31
REMARK                            x       y       z     vdW  Elec       q    Type
REMARK                         _______ _______ _______ _____ _____    ______ ____
ROOT
ATOM     10  C   UNL     1      -4.056   0.887  25.266  0.00  0.00    +0.100 C 
ATOM     11  C   UNL     1      -4.487   0.202  25.104  0.00  0.00    +0.043 C 
ATOM     12  C   UNL     1      -4.097  -0.479  24.850  0.00  0.00    +0.096 C 
ATOM     13  N   UNL     1      -3.277  -0.476  24.757  0.00  0.00    -0.267 N 
ATOM     14  C   UNL     1      -2.847   0.210  24.919  0.00  0.00    +0.155 C 
ATOM     15  C   UNL     1      -3.236   0.891  25.173  0.00  0.00    +0.051 C 
ATOM     29  C   UNL     1      -2.887  -1.157  24.503  0.00  0.00    +0.284 C 
ATOM     30  O   UNL     1      -2.068  -1.154  24.411  0.00  0.00    -0.267 OA
ENDROOT
BRANCH  29  31
ATOM     31  C   UNL     1      -3.318  -1.842  24.342  0.00  0.00    +0.199 A 
ATOM     32  C   UNL     1      -3.339  -2.523  24.806  0.00  0.00    +0.045 A 
ATOM     33  C   UNL     1      -3.837  -3.067  24.438  0.00  0.00    +0.044 A 
ATOM     34  C   UNL     1      -4.125  -2.723  23.746  0.00  0.00    +0.180 A 
ATOM     35  O   UNL     1      -3.804  -1.965  23.686  0.00  0.00    -0.446 OA
ENDBRANCH  29  31
BRANCH  10   9
ATOM      7  C   UNL     1      -4.715   2.120  24.968  0.00  0.00    +0.273 C 
ATOM      8  O   UNL     1      -4.595   1.989  24.162  0.00  0.00    -0.268 OA
ATOM      9  N   UNL     1      -4.446   1.569  25.520  0.00  0.00    -0.203 NA
BRANCH   7   3
ATOM      1  C   UNL     1      -4.140   3.806  24.753  0.00  0.00    +0.055 C 
ATOM      2  C   UNL     1      -4.841   3.576  25.124  0.00  0.00    +0.093 A 
ATOM      3  C   UNL     1      -5.105   2.802  25.222  0.00  0.00    +0.119 A 
ATOM      4  S   UNL     1      -5.827   2.828  25.620  0.00  0.00    +0.042 S 
ATOM      5  N   UNL     1      -6.009   3.618  25.766  0.00  0.00    -0.110 NA
ATOM      6  N   UNL     1      -5.400   4.081  25.460  0.00  0.00    -0.145 NA
ENDBRANCH   7   3
ENDBRANCH  10   9
BRANCH  14  16
ATOM     16  C   UNL     1      -2.027   0.213  24.827  0.00  0.00    +0.260 C 
ATOM     17  O   UNL     1      -1.587  -0.455  25.030  0.00  0.00    -0.272 OA
ATOM     18  N   UNL     1      -1.648   0.883  24.531  0.00  0.00    -0.196 NA
BRANCH  18  19
ATOM     19  C   UNL     1      -0.828   0.885  24.439  0.00  0.00    +0.179 C 
BRANCH  19  26
ATOM     26  C   UNL     1      -0.494   0.714  23.704  0.00  0.00    +0.281 C 
ATOM     27  N   UNL     1       0.151   0.203  23.652  0.00  0.00    -0.086 NA
ATOM     28  O   UNL     1      -0.807   1.055  23.021  0.00  0.00    -0.270 OA
ENDBRANCH  19  26
BRANCH  19  20
ATOM     20  C   UNL     1      -0.341   1.058  25.082  0.00  0.00    +0.064 C 
BRANCH  20  21
ATOM     21  C   UNL     1      -0.247   1.840  25.330  0.00  0.00    +0.010 A 
ATOM     22  C   UNL     1      -0.204   2.502  24.841  0.00  0.00    +0.003 A 
ATOM     23  C   UNL     1      -0.110   3.168  25.318  0.00  0.00    +0.007 A 
ATOM     24  C   UNL     1      -0.095   2.916  26.104  0.00  0.00    +0.035 A 
ATOM     25  S   UNL     1      -0.179   2.096  26.112  0.00  0.00    -0.091 S 
ENDBRANCH  20  21
ENDBRANCH  19  20
ENDBRANCH  18  19
ENDBRANCH  14  16
TORSDOF 8
ENDMDL
MODEL 2
REMARK VINA RESULT:     -10.4      1.739      4.894
REMARK  Name = 
REMARK  8 active torsions:
REMARK  status: ('A' for Active; 'I' for Inactive)
REMARK    1  A    between atoms: C_3  and  C_7
REMARK    2  A    between atoms: N_9  and  C_10
REMARK    3  A    between atoms: C_14  and  C_16
REMARK    4  A    between atoms: N_18  and  C_19
REMARK    5  A    between atoms: C_19  and  C_20
REMARK    6  A    between atoms: C_19  and  C_26
REMARK    7  A    between atoms: C_20  and  C_21
REMARK    8  A    between atoms: C_29  and  C_31
REMARK                            x       y       z     vdW  Elec       q    Type
REMARK                         _______ _______ _______ _____ _____    ______ ____
ROOT
ATOM     10  C   UNL     1      -1.993   0.153  24.699  0.00  0.00    +0.100 C 
ATOM     11  C   UNL     1      -1.301   0.229  25.142  0.00  0.00    +0.043 C 
ATOM     12  C   UNL     1      -1.066   0.972  25.414  0.00  0.00    +0.096 C 
ATOM     13  N   UNL     1      -1.522   1.638  25.243  0.00  0.00    -0.267 N 
ATOM     14  C   UNL     1      -2.214   1.560  24.800  0.00  0.00    +0.155 C 
ATOM     15  C   UNL     1      -2.449   0.819  24.528  0.00  0.00    +0.051 C 
ATOM     29  C   UNL     1      -1.287   2.380  25.516  0.00  0.00    +0.284 C 
ATOM     30  O   UNL     1      -1.744   3.046  25.345  0.00  0.00    -0.267 OA
ENDROOT
BRANCH  29  31
ATOM     31  C   UNL     1      -0.596   2.457  25.959  0.00  0.00    +0.199 A 
ATOM     32  C   UNL     1       0.144   2.679  25.669  0.00  0.00    +0.045 A 
ATOM     33  C   UNL     1       0.674   2.683  26.301  0.00  0.00    +0.044 A 
ATOM     34  C   UNL     1       0.262   2.464  26.982  0.00  0.00    +0.180 A 
ATOM     35  O   UNL     1      -0.523   2.324  26.770  0.00  0.00    -0.446 OA
ENDBRANCH  29  31
BRANCH  10   9
ATOM      7  C   UNL     1      -2.716  -1.064  24.892  0.00  0.00    +0.273 C 
ATOM      8  O   UNL     1      -2.969  -0.796  25.631  0.00  0.00    -0.268 OA
ATOM      9  N   UNL     1      -2.228  -0.590  24.426  0.00  0.00    -0.203 NA
BRANCH   7   3
ATOM      1  C   UNL     1      -4.320  -1.474  24.199  0.00  0.00    +0.055 C 
ATOM      2  C   UNL     1      -3.688  -1.995  24.301  0.00  0.00    +0.093 A 
ATOM      3  C   UNL     1      -2.951  -1.807  24.620  0.00  0.00    +0.119 A 
ATOM      4  S   UNL     1      -2.491  -2.491  24.618  0.00  0.00    +0.042 S 
ATOM      5  N   UNL     1      -2.943  -3.102  24.299  0.00  0.00    -0.110 NA
ATOM      6  N   UNL     1      -3.683  -2.796  24.103  0.00  0.00    -0.145 NA
ENDBRANCH   7   3
ENDBRANCH  10   9
BRANCH  14  16
ATOM     16  C   UNL     1      -2.671   2.227  24.630  0.00  0.00    +0.260 C 
ATOM     17  O   UNL     1      -2.318   2.973  24.608  0.00  0.00    -0.272 OA
ATOM     18  N   UNL     1      -3.478   2.147  24.482  0.00  0.00    -0.196 NA
BRANCH  18  19
ATOM     19  C   UNL     1      -3.933   2.814  24.311  0.00  0.00    +0.179 C 
BRANCH  19  26
ATOM     26  C   UNL     1      -3.907   3.150  23.559  0.00  0.00    +0.281 C 
ATOM     27  N   UNL     1      -3.900   3.971  23.474  0.00  0.00    -0.086 NA
ATOM     28  O   UNL     1      -3.888   2.666  22.891  0.00  0.00    -0.270 OA
ENDBRANCH  19  26
BRANCH  19  20
ATOM     20  C   UNL     1      -4.416   3.144  24.894  0.00  0.00    +0.064 C 
BRANCH  20  21
ATOM     21  C   UNL     1      -5.078   2.732  25.164  0.00  0.00    +0.010 A 
ATOM     22  C   UNL     1      -5.525   2.193  24.727  0.00  0.00    +0.003 A 
ATOM     23  C   UNL     1      -6.132   1.914  25.211  0.00  0.00    +0.007 A 
ATOM     24  C   UNL     1      -6.060   2.281  25.947  0.00  0.00    +0.035 A 
ATOM     25  S   UNL     1      -5.409   2.786  25.918  0.00  0.00    -0.091 S 
ENDBRANCH  20  21
ENDBRANCH  19  20
ENDBRANCH  18  19
ENDBRANCH  14  16
TORSDOF 8
ENDMDL
MODEL 3
REMARK VINA RESULT:     -10.0      1.743      4.126
REMARK  Name = 
REMARK  8 active torsions:
REMARK  status: ('A' for Active; 'I' for Inactive)
REMARK    1  A    between atoms: C_3  and  C_7
REMARK    2  A    between atoms: N_9  and  C_10
REMARK    3  A    between atoms: C_14  and  C_16
REMARK    4  A    between atoms: N_18  and  C_19
REMARK    5  A    between atoms: C_19  and  C_20
REMARK    6  A    between atoms: C_19  and  C_26
REMARK    7  A    between atoms: C_20  and  C_21
REMARK    8  A    between atoms: C_29  and  C_31
REMARK                            x       y       z     vdW  Elec       q    Type
REMARK                         _______ _______ _______ _____ _____    ______ ____
ROOT
ATOM     10  C   UNL     1      -3.757   0.374  24.377  0.00  0.00    +0.100 C 
ATOM     11  C   UNL     1      -4.449   0.768  24.591  0.00  0.00    +0.043 C 
ATOM     12  C   UNL     1      -4.416   1.555  24.837  0.00  0.00    +0.096 C 
ATOM     13  N   UNL     1      -3.691   1.947  24.868  0.00  0.00    -0.267 N 
ATOM     14  C   UNL     1      -2.999   1.552  24.654  0.00  0.00    +0.155 C 
ATOM     15  C   UNL     1      -3.032   0.766  24.408  0.00  0.00    +0.051 C 
ATOM     29  C   UNL     1      -3.657   2.735  25.114  0.00  0.00    +0.284 C 
ATOM     30  O   UNL     1      -2.932   3.127  25.146  0.00  0.00    -0.267 OA
ENDROOT
BRANCH  29  31
ATOM     31  C   UNL     1      -4.350   3.129  25.329  0.00  0.00    +0.199 A 
ATOM     32  C   UNL     1      -4.752   3.687  24.873  0.00  0.00    +0.045 A 
ATOM     33  C   UNL     1      -5.412   3.936  25.300  0.00  0.00    +0.044 A 
ATOM     34  C   UNL     1      -5.418   3.533  26.020  0.00  0.00    +0.180 A 
ATOM     35  O   UNL     1      -4.761   3.034  26.038  0.00  0.00    -0.446 OA
ENDBRANCH  29  31
BRANCH  10   9
ATOM      7  C   UNL     1      -3.854  -1.017  24.688  0.00  0.00    +0.273 C 
ATOM      8  O   UNL     1      -3.884  -0.834  25.492  0.00  0.00    -0.268 OA
ATOM      9  N   UNL     1      -3.790  -0.413  24.130  0.00  0.00    -0.203 NA
BRANCH   7   3
ATOM      1  C   UNL     1      -2.923  -2.382  25.390  0.00  0.00    +0.055 C 
ATOM      2  C   UNL     1      -3.459  -2.431  24.765  0.00  0.00    +0.093 A 
ATOM      3  C   UNL     1      -3.887  -1.805  24.442  0.00  0.00    +0.119 A 
ATOM      4  S   UNL     1      -4.354  -2.102  23.831  0.00  0.00    +0.042 S 
ATOM      5  N   UNL     1      -4.215  -2.912  23.776  0.00  0.00    -0.110 NA
ATOM      6  N   UNL     1      -3.662  -3.116  24.353  0.00  0.00    -0.145 NA
ENDBRANCH   7   3
ENDBRANCH  10   9
BRANCH  14  16
ATOM     16  C   UNL     1      -2.273   1.945  24.686  0.00  0.00    +0.260 C 
ATOM     17  O   UNL     1      -2.227   2.741  24.473  0.00  0.00    -0.272 OA
ATOM     18  N   UNL     1      -1.597   1.543  24.929  0.00  0.00    -0.196 NA
BRANCH  18  19
ATOM     19  C   UNL     1      -0.872   1.936  24.961  0.00  0.00    +0.179 C 
BRANCH  19  26
ATOM     26  C   UNL     1      -0.576   2.200  25.684  0.00  0.00    +0.281 C 
ATOM     27  N   UNL     1      -0.304   2.974  25.762  0.00  0.00    -0.086 NA
ATOM     28  O   UNL     1      -0.553   1.688  26.331  0.00  0.00    -0.270 OA
ENDBRANCH  19  26
BRANCH  19  20
ATOM     20  C   UNL     1      -0.442   2.065  24.268  0.00  0.00    +0.064 C 
BRANCH  20  21
ATOM     21  C   UNL     1       0.072   1.485  23.987  0.00  0.00    +0.010 A 
ATOM     22  C   UNL     1      -0.138   0.724  23.749  0.00  0.00    +0.003 A 
ATOM     23  C   UNL     1       0.548   0.332  23.510  0.00  0.00    +0.007 A 
ATOM     24  C   UNL     1       1.182   0.852  23.601  0.00  0.00    +0.035 A 
ATOM     25  S   UNL     1       0.889   1.564  23.896  0.00  0.00    -0.091 S 
ENDBRANCH  20  21
ENDBRANCH  19  20
ENDBRANCH  18  19
ENDBRANCH  14  16
TORSDOF 8
ENDMDL
MODEL 4
REMARK VINA RESULT:      -9.8      1.617      2.167
REMARK  Name = 
REMARK  8 active torsions:
REMARK  status: ('A' for Active; 'I' for Inactive)
REMARK    1  A    between atoms: C_3  and  C_7
REMARK    2  A    between atoms: N_9  and  C_10
REMARK    3  A    between atoms: C_14  and  C_16
REMARK    4  A    between atoms: N_18  and  C_19
REMARK    5  A    between atoms: C_19  and  C_20
REMARK    6  A    between atoms: C_19  and  C_26
REMARK    7  A    between atoms: C_20  and  C_21
REMARK    8  A    between atoms: C_29  and  C_31
REMARK                            x       y       z     vdW  Elec       q    Type
REMARK                         _______ _______ _______ _____ _____    ______ ____
ROOT
ATOM     10  C   UNL     1      -3.477   0.935  24.546  0.00  0.00    +0.100 C 
ATOM     11  C   UNL     1      -3.406   0.114  24.529  0.00  0.00    +0.043 C 
ATOM     12  C   UNL     1      -2.661  -0.237  24.587  0.00  0.00    +0.096 C 
ATOM     13  N   UNL     1      -1.988   0.235  24.663  0.00  0.00    -0.267 N 
ATOM     14  C   UNL     1      -2.061   1.057  24.680  0.00  0.00    +0.155 C 
ATOM     15  C   UNL     1      -2.805   1.407  24.622  0.00  0.00    +0.051 C 
ATOM     29  C   UNL     1      -1.243  -0.115  24.721  0.00  0.00    +0.284 C 
ATOM     30  O   UNL     1      -0.570   0.357  24.796  0.00  0.00    -0.267 OA
ENDROOT
BRANCH  29  31
ATOM     31  C   UNL     1      -1.171  -0.937  24.703  0.00  0.00    +0.199 A 
ATOM     32  C   UNL     1      -1.015  -1.424  25.350  0.00  0.00    +0.045 A 
ATOM     33  C   UNL     1      -0.991  -2.203  25.082  0.00  0.00    +0.044 A 
ATOM     34  C   UNL     1      -1.132  -2.199  24.269  0.00  0.00    +0.180 A 
ATOM     35  O   UNL     1      -1.244  -1.415  24.035  0.00  0.00    -0.446 OA
ENDBRANCH  29  31
BRANCH  10   9
ATOM      7  C   UNL     1      -4.722   1.304  25.145  0.00  0.00    +0.273 C 
ATOM      8  O   UNL     1      -4.476   0.972  25.859  0.00  0.00    -0.268 OA
ATOM      9  N   UNL     1      -4.223   1.285  24.488  0.00  0.00    -0.203 NA
BRANCH   7   3
ATOM      1  C   UNL     1      -5.187   2.909  25.800  0.00  0.00    +0.055 C 
ATOM      2  C   UNL     1      -5.681   2.391  25.388  0.00  0.00    +0.093 A 
ATOM      3  C   UNL     1      -5.467   1.654  25.087  0.00  0.00    +0.119 A 
ATOM      4  S   UNL     1      -6.128   1.328  24.717  0.00  0.00    +0.042 S 
ATOM      5  N   UNL     1      -6.750   1.863  24.790  0.00  0.00    -0.110 NA
ATOM      6  N   UNL     1      -6.474   2.521  25.204  0.00  0.00    -0.145 NA
ENDBRANCH   7   3
ENDBRANCH  10   9
BRANCH  14  16
ATOM     16  C   UNL     1      -1.387   1.528  24.755  0.00  0.00    +0.260 C 
ATOM     17  O   UNL     1      -0.725   1.378  24.287  0.00  0.00    -0.272 OA
ATOM     18  N   UNL     1      -1.377   2.149  25.298  0.00  0.00    -0.196 NA
BRANCH  18  19
ATOM     19  C   UNL     1      -0.703   2.620  25.373  0.00  0.00    +0.179 C 
BRANCH  19  26
ATOM     26  C   UNL     1      -0.180   2.495  25.998  0.00  0.00    +0.281 C 
ATOM     27  N   UNL     1       0.631   2.440  25.853  0.00  0.00    -0.086 NA
ATOM     28  O   UNL     1      -0.467   2.425  26.769  0.00  0.00    -0.270 OA
ENDBRANCH  19  26
BRANCH  19  20
ATOM     20  C   UNL     1      -0.553   3.216  24.822  0.00  0.00    +0.064 C 
BRANCH  20  21
ATOM     21  C   UNL     1      -0.876   3.967  24.930  0.00  0.00    +0.010 A 
ATOM     22  C   UNL     1      -1.576   4.142  25.330  0.00  0.00    +0.003 A 
ATOM     23  C   UNL     1      -1.689   4.959  25.304  0.00  0.00    +0.007 A 
ATOM     24  C   UNL     1      -1.057   5.289  24.887  0.00  0.00    +0.035 A 
ATOM     25  S   UNL     1      -0.555   4.677  24.656  0.00  0.00    -0.091 S 
ENDBRANCH  20  21
ENDBRANCH  19  20
ENDBRANCH  18  19
ENDBRANCH  14  16
TORSDOF 8
ENDMDL
MODEL 5
REMARK VINA RESULT:      -9.7      1.782      4.366
REMARK  Name = 
REMARK  8 active torsions:
REMARK  status: ('A' for Active; 'I' for Inactive)
REMARK    1  A    between atoms: C_3  and  C_7
REMARK    2  A    between atoms: N_9  and  C_10
REMARK    3  A    between atoms: C_14  and  C_16
REMARK    4  A    between atoms: N_18  and  C_19
REMARK    5  A    between atoms: C_19  and  C_20
REMARK    6  A    between atoms: C_19  and  C_26
REMARK    7  A    between atoms: C_20  and  C_21
REMARK    8  A    between atoms: C_29  and  C_31
REMARK                            x       y       z     vdW  Elec       q    Type
REMARK                         _______ _______ _______ _____ _____    ______ ____
ROOT
ATOM     10  C   UNL     1      -0.429  -0.074  24.187  0.00  0.00    +0.100 C 
ATOM     11  C   UNL     1      -0.728  -0.842  24.205  0.00  0.00    +0.043 C 
ATOM     12  C   UNL     1      -1.519  -0.972  24.403  0.00  0.00    +0.096 C 
ATOM     13  N   UNL     1      -2.009  -0.333  24.582  0.00  0.00    -0.267 N 
ATOM     14  C   UNL     1      -1.709   0.435  24.564  0.00  0.00    +0.155 C 
ATOM     15  C   UNL     1      -0.919   0.565  24.366  0.00  0.00    +0.051 C 
ATOM     29  C   UNL     1      -2.800  -0.463  24.780  0.00  0.00    +0.284 C 
ATOM     30  O   UNL     1      -3.291   0.176  24.959  0.00  0.00    -0.267 OA
ENDROOT
BRANCH  29  31
ATOM     31  C   UNL     1      -3.100  -1.231  24.799  0.00  0.00    +0.199 A 
ATOM     32  C   UNL     1      -3.556  -1.588  24.211  0.00  0.00    +0.045 A 
ATOM     33  C   UNL     1      -3.733  -2.355  24.459  0.00  0.00    +0.044 A 
ATOM     34  C   UNL     1      -3.387  -2.472  25.198  0.00  0.00    +0.180 A 
ATOM     35  O   UNL     1      -2.995  -1.777  25.409  0.00  0.00    -0.446 OA
ENDBRANCH  29  31
BRANCH  10   9
ATOM      7  C   UNL     1       0.591   0.076  23.197  0.00  0.00    +0.273 C 
ATOM      8  O   UNL     1       0.029  -0.033  22.602  0.00  0.00    -0.268 OA
ATOM      9  N   UNL     1       0.362   0.055  23.989  0.00  0.00    -0.203 NA
BRANCH   7   3
ATOM      1  C   UNL     1       1.445  -0.598  21.770  0.00  0.00    +0.055 C 
ATOM      2  C   UNL     1       1.774  -0.105  22.343  0.00  0.00    +0.093 A 
ATOM      3  C   UNL     1       1.382   0.205  22.999  0.00  0.00    +0.119 A 
ATOM      4  S   UNL     1       1.918   0.667  23.422  0.00  0.00    +0.042 S 
ATOM      5  N   UNL     1       2.641   0.643  23.028  0.00  0.00    -0.110 NA
ATOM      6  N   UNL     1       2.553   0.166  22.362  0.00  0.00    -0.145 NA
ENDBRANCH   7   3
ENDBRANCH  10   9
BRANCH  14  16
ATOM     16  C   UNL     1      -2.200   1.074  24.743  0.00  0.00    +0.260 C 
ATOM     17  O   UNL     1      -2.786   0.994  25.319  0.00  0.00    -0.272 OA
ATOM     18  N   UNL     1      -2.106   1.791  24.347  0.00  0.00    -0.196 NA
BRANCH  18  19
ATOM     19  C   UNL     1      -2.597   2.429  24.527  0.00  0.00    +0.179 C 
BRANCH  19  26
ATOM     26  C   UNL     1      -3.221   2.623  24.024  0.00  0.00    +0.281 C 
ATOM     27  N   UNL     1      -3.968   2.785  24.337  0.00  0.00    -0.086 NA
ATOM     28  O   UNL     1      -3.099   2.657  23.209  0.00  0.00    -0.270 OA
ENDBRANCH  19  26
BRANCH  19  20
ATOM     20  C   UNL     1      -2.463   2.873  25.210  0.00  0.00    +0.064 C 
BRANCH  20  21
ATOM     21  C   UNL     1      -1.986   3.545  25.178  0.00  0.00    +0.010 A 
ATOM     22  C   UNL     1      -1.196   3.569  24.943  0.00  0.00    +0.003 A 
ATOM     23  C   UNL     1      -0.937   4.350  24.995  0.00  0.00    +0.007 A 
ATOM     24  C   UNL     1      -1.568   4.810  25.262  0.00  0.00    +0.035 A 
ATOM     25  S   UNL     1      -2.216   4.313  25.375  0.00  0.00    -0.091 S 
ENDBRANCH  20  21
ENDBRANCH  19  20
ENDBRANCH  18  19
ENDBRANCH  14  16
TORSDOF 8
ENDMDL
MODEL 6
REMARK VINA RESULT:      -9.7      2.058      4.157
REMARK  Name = 
REMARK  8 active torsions:
REMARK  status: ('A' for Active; 'I' for Inactive)
REMARK    1  A    between atoms: C_3  and  C_7
REMARK    2  A    between atoms: N_9  and  C_10
REMARK    3  A    between atoms: C_14  and  C_16
REMARK    4  A    between atoms: N_18  and  C_19
REMARK    5  A    between atoms: C_19  and  C_20
REMARK    6  A    between atoms: C_19  and  C_26
REMARK    7  A    between atoms: C_20  and  C_21
REMARK    8  A    between atoms: C_29  and  C_31
REMARK                            x       y       z     vdW  Elec       q    Type
REMARK                         _______ _______ _______ _____ _____    ______ ____
ROOT
ATOM     10  C   UNL     1      -1.344   2.010  24.472  0.00  0.00    +0.100 C 
ATOM     11  C   UNL     1      -0.688   2.022  23.973  0.00  0.00    +0.043 C 
ATOM     12  C   UNL     1      -0.293   1.320  23.793  0.00  0.00    +0.096 C 
ATOM     13  N   UNL     1      -0.556   0.606  24.113  0.00  0.00    -0.267 N 
ATOM     14  C   UNL     1      -1.212   0.595  24.612  0.00  0.00    +0.155 C 
ATOM     15  C   UNL     1      -1.607   1.297  24.792  0.00  0.00    +0.051 C 
ATOM     29  C   UNL     1      -0.161  -0.096  23.934  0.00  0.00    +0.284 C 
ATOM     30  O   UNL     1      -0.424  -0.810  24.253  0.00  0.00    -0.267 OA
ENDROOT
BRANCH  29  31
ATOM     31  C   UNL     1       0.495  -0.084  23.434  0.00  0.00    +0.199 A 
ATOM     32  C   UNL     1       0.513  -0.336  22.649  0.00  0.00    +0.045 A 
ATOM     33  C   UNL     1       1.279  -0.225  22.363  0.00  0.00    +0.044 A 
ATOM     34  C   UNL     1       1.735   0.096  22.971  0.00  0.00    +0.180 A 
ATOM     35  O   UNL     1       1.250   0.183  23.634  0.00  0.00    -0.446 OA
ENDBRANCH  29  31
BRANCH  10   9
ATOM      7  C   UNL     1      -1.436   3.221  25.226  0.00  0.00    +0.273 C 
ATOM      8  O   UNL     1      -0.738   3.026  25.622  0.00  0.00    -0.268 OA
ATOM      9  N   UNL     1      -1.739   2.713  24.651  0.00  0.00    -0.203 NA
BRANCH   7   3
ATOM      1  C   UNL     1      -0.841   4.880  24.889  0.00  0.00    +0.055 C 
ATOM      2  C   UNL     1      -1.557   4.685  25.251  0.00  0.00    +0.093 A 
ATOM      3  C   UNL     1      -1.830   3.923  25.406  0.00  0.00    +0.119 A 
ATOM      4  S   UNL     1      -2.567   3.986  25.771  0.00  0.00    +0.042 S 
ATOM      5  N   UNL     1      -2.748   4.786  25.842  0.00  0.00    -0.110 NA
ATOM      6  N   UNL     1      -2.125   5.219  25.521  0.00  0.00    -0.145 NA
ENDBRANCH   7   3
ENDBRANCH  10   9
BRANCH  14  16
ATOM     16  C   UNL     1      -1.475  -0.120  24.932  0.00  0.00    +0.260 C 
ATOM     17  O   UNL     1      -0.937  -0.631  25.292  0.00  0.00    -0.272 OA
ATOM     18  N   UNL     1      -2.273  -0.321  24.892  0.00  0.00    -0.196 NA
BRANCH  18  19
ATOM     19  C   UNL     1      -2.534  -1.036  25.211  0.00  0.00    +0.179 C 
BRANCH  19  26
ATOM     26  C   UNL     1      -2.781  -1.070  25.998  0.00  0.00    +0.281 C 
ATOM     27  N   UNL     1      -2.401  -1.574  26.528  0.00  0.00    -0.086 NA
ATOM     28  O   UNL     1      -3.410  -0.600  26.253  0.00  0.00    -0.270 OA
ENDBRANCH  19  26
BRANCH  19  20
ATOM     20  C   UNL     1      -2.549  -1.716  24.744  0.00  0.00    +0.064 C 
BRANCH  20  21
ATOM     21  C   UNL     1      -3.243  -1.937  24.359  0.00  0.00    +0.010 A 
ATOM     22  C   UNL     1      -3.760  -1.432  23.961  0.00  0.00    +0.003 A 
ATOM     23  C   UNL     1      -4.380  -1.885  23.660  0.00  0.00    +0.007 A 
ATOM     24  C   UNL     1      -4.246  -2.671  23.872  0.00  0.00    +0.035 A 
ATOM     25  S   UNL     1      -3.545  -2.704  24.304  0.00  0.00    -0.091 S 
ENDBRANCH  20  21
ENDBRANCH  19  20
ENDBRANCH  18  19
ENDBRANCH  14  16
TORSDOF 8
ENDMDL
MODEL 7
REMARK VINA RESULT:      -9.7      1.250      3.952
REMARK  Name = 
REMARK  8 active torsions:
REMARK  status: ('A' for Active; 'I' for Inactive)
REMARK    1  A    between atoms: C_3  and  C_7
REMARK    2  A    between atoms: N_9  and  C_10
REMARK    3  A    between atoms: C_14  and  C_16
REMARK    4  A    between atoms: N_18  and  C_19
REMARK    5  A    between atoms: C_19  and  C_20
REMARK    6  A    between atoms: C_19  and  C_26
REMARK    7  A    between atoms: C_20  and  C_21
REMARK    8  A    between atoms: C_29  and  C_31
REMARK                            x       y       z     vdW  Elec       q    Type
REMARK                         _______ _______ _______ _____ _____    ______ ____
ROOT
ATOM     10  C   UNL     1      -1.987   0.431  25.352  0.00  0.00    +0.100 C 
ATOM     11  C   UNL     1      -1.921  -0.387  25.272  0.00  0.00    +0.043 C 
ATOM     12  C   UNL     1      -2.569  -0.830  25.017  0.00  0.00    +0.096 C 
ATOM     13  N   UNL     1      -3.282  -0.455  24.841  0.00  0.00    -0.267 N 
ATOM     14  C   UNL     1      -3.347   0.364  24.921  0.00  0.00    +0.155 C 
ATOM     15  C   UNL     1      -2.701   0.807  25.176  0.00  0.00    +0.051 C 
ATOM     29  C   UNL     1      -3.930  -0.898  24.586  0.00  0.00    +0.284 C 
ATOM     30  O   UNL     1      -4.643  -0.523  24.410  0.00  0.00    -0.267 OA
ENDROOT
BRANCH  29  31
ATOM     31  C   UNL     1      -3.863  -1.716  24.506  0.00  0.00    +0.199 A 
ATOM     32  C   UNL     1      -3.953  -2.145  23.807  0.00  0.00    +0.045 A 
ATOM     33  C   UNL     1      -3.840  -2.943  23.982  0.00  0.00    +0.044 A 
ATOM     34  C   UNL     1      -3.681  -3.009  24.788  0.00  0.00    +0.180 A 
ATOM     35  O   UNL     1      -3.695  -2.250  25.113  0.00  0.00    -0.446 OA
ENDBRANCH  29  31
BRANCH  10   9
ATOM      7  C   UNL     1      -0.949   1.376  25.081  0.00  0.00    +0.273 C 
ATOM      8  O   UNL     1      -1.207   1.434  24.299  0.00  0.00    -0.268 OA
ATOM      9  N   UNL     1      -1.340   0.875  25.607  0.00  0.00    -0.203 NA
BRANCH   7   3
ATOM      1  C   UNL     1       0.552   1.686  24.147  0.00  0.00    +0.055 C 
ATOM      2  C   UNL     1       0.388   1.961  24.907  0.00  0.00    +0.093 A 
ATOM      3  C   UNL     1      -0.302   1.819  25.336  0.00  0.00    +0.119 A 
ATOM      4  S   UNL     1      -0.230   2.197  26.065  0.00  0.00    +0.042 S 
ATOM      5  N   UNL     1       0.503   2.573  26.087  0.00  0.00    -0.110 NA
ATOM      6  N   UNL     1       0.885   2.428  25.371  0.00  0.00    -0.145 NA
ENDBRANCH   7   3
ENDBRANCH  10   9
BRANCH  14  16
ATOM     16  C   UNL     1      -4.062   0.739  24.745  0.00  0.00    +0.260 C 
ATOM     17  O   UNL     1      -4.530   0.462  24.125  0.00  0.00    -0.272 OA
ATOM     18  N   UNL     1      -4.306   1.389  25.189  0.00  0.00    -0.196 NA
BRANCH  18  19
ATOM     19  C   UNL     1      -5.020   1.764  25.012  0.00  0.00    +0.179 C 
BRANCH  19  26
ATOM     26  C   UNL     1      -5.710   1.544  25.408  0.00  0.00    +0.281 C 
ATOM     27  N   UNL     1      -6.415   1.456  24.989  0.00  0.00    -0.086 NA
ATOM     28  O   UNL     1      -5.694   1.413  26.222  0.00  0.00    -0.270 OA
ENDBRANCH  19  26
BRANCH  19  20
ATOM     20  C   UNL     1      -5.044   2.358  24.440  0.00  0.00    +0.064 C 
BRANCH  20  21
ATOM     21  C   UNL     1      -4.710   3.096  24.598  0.00  0.00    +0.010 A 
ATOM     22  C   UNL     1      -4.844   3.556  25.269  0.00  0.00    +0.003 A 
ATOM     23  C   UNL     1      -4.400   4.248  25.198  0.00  0.00    +0.007 A 
ATOM     24  C   UNL     1      -3.991   4.215  24.482  0.00  0.00    +0.035 A 
ATOM     25  S   UNL     1      -4.182   3.504  24.111  0.00  0.00    -0.091 S 
ENDBRANCH  20  21
ENDBRANCH  19  20
ENDBRANCH  18  19
ENDBRANCH  14  16
TORSDOF 8
ENDMDL
