MODEL 1
REMARK VINA RESULT:     -10.8      0.000      0.000
REMARK  Name = 
REMARK  8 active torsions:
REMARK  status: ('A' for Active; 'I' for Inactive)
REMARK    1  A    between atoms: C_2  and  C_3
REMARK    2  A    between atoms: C_3  and  C_4
REMARK    3  A    between atoms: C_9  and  C_10
REMARK    4  A    between atoms: C_10  and  C_11
REMARK    5  A    between atoms: C_14  and  C_15
REMARK    6  A    between atoms: C_15  and  S_16
REMARK    7  A    between atoms: S_16  and  C_17
REMARK    8  A    between atoms: N_24  and  C_25
REMARK                            x       y       z     vdW  Elec       q    Type
REMARK                         _______ _______ _______ _____ _____    ______ ____
ROOT
ATOM     10  C   UNL     1      -3.874   2.778  24.534  0.00  0.00    +0.051 C 
ENDROOT
BRANCH  10   9
ATOM      4  C   UNL     1      -3.054   3.583  25.382  0.00  0.00    +0.012 C 
ATOM      5  C   UNL     1      -2.973   4.079  26.037  0.00  0.00    +0.019 C 
ATOM      6  C   UNL     1      -3.632   4.265  26.497  0.00  0.00    +0.089 C 
ATOM      7  N   UNL     1      -4.372   3.955  26.302  0.00  0.00    -0.218 NA
ATOM      8  C   UNL     1      -4.452   3.460  25.648  0.00  0.00    +0.089 C 
ATOM      9  C   UNL     1      -3.793   3.273  25.188  0.00  0.00    +0.024 C 
BRANCH   4   3
ATOM      3  C   UNL     1      -2.395   3.397  24.922  0.00  0.00    +0.087 C 
BRANCH   3   2
ATOM      1  O   UNL     1      -1.284   4.128  25.447  0.00  0.00    -0.273 OA
ATOM      2  C   UNL     1      -1.641   3.409  25.257  0.00  0.00    +0.241 C 
ATOM     24  N   UNL     1      -1.243   2.700  25.403  0.00  0.00    -0.207 NA
BRANCH  24  25
ATOM     25  C   UNL     1      -0.490   2.712  25.738  0.00  0.00    +0.095 C 
ATOM     26  C   UNL     1       0.258   3.054  25.804  0.00  0.00    +0.023 C 
ATOM     27  C   UNL     1       0.069   2.388  26.253  0.00  0.00    +0.023 C 
ENDBRANCH  24  25
ENDBRANCH   3   2
ENDBRANCH   4   3
ENDBRANCH  10   9
BRANCH  10  11
ATOM     11  C   UNL     1      -4.296   2.073  24.600  0.00  0.00    +0.100 A 
ATOM     12  N   UNL     1      -5.117   1.999  24.626  0.00  0.00    -0.082 NA
ATOM     13  O   UNL     1      -5.301   1.198  24.695  0.00  0.00    -0.357 OA
ATOM     14  C   UNL     1      -4.592   0.775  24.710  0.00  0.00    +0.165 A 
ATOM     23  C   UNL     1      -3.971   1.316  24.652  0.00  0.00    +0.054 A 
BRANCH  14  15
ATOM     15  C   UNL     1      -4.516  -0.044  24.773  0.00  0.00    +0.129 C 
BRANCH  15  16
ATOM     16  S   UNL     1      -3.914  -0.434  24.364  0.00  0.00    -0.105 S 
BRANCH  16  17
ATOM     17  C   UNL     1      -3.847  -1.254  24.415  0.00  0.00    +0.026 A 
ATOM     18  C   UNL     1      -4.196  -1.733  23.840  0.00  0.00    +0.006 A 
ATOM     19  C   UNL     1      -4.128  -2.553  23.890  0.00  0.00    +0.001 A 
ATOM     20  C   UNL     1      -3.712  -2.896  24.515  0.00  0.00    +0.000 A 
ATOM     21  C   UNL     1      -3.364  -2.417  25.090  0.00  0.00    +0.001 A 
ATOM     22  C   UNL     1      -3.431  -1.597  25.039  0.00  0.00    +0.006 A 
ENDBRANCH  16  17
ENDBRANCH  15  16
ENDBRANCH  14  15
ENDBRANCH  10  11
TORSDOF 8
ENDMDL
MODEL 2
REMARK VINA RESULT:     -10.4      1.173      1.373
REMARK  Name = 
REMARK  8 active torsions:
REMARK  status: ('A' for Active; 'I' for Inactive)
REMARK    1  A    between atoms: C_2  and  C_3
REMARK    2  A    between atoms: C_3  and  C_4
REMARK    3  A    between atoms: C_9  and  C_10
REMARK    4  A    between atoms: C_10  and  C_11
REMARK    5  A    between atoms: C_14  and  C_15
REMARK    6  A    between atoms: C_15  and  S_16
REMARK    7  A    between atoms: S_16  and  C_17
REMARK    8  A    between atoms: N_24  and  C_25
REMARK                            x       y       z     vdW  Elec       q    Type
REMARK                         _______ _______ _______ _____ _____    ______ ____
ROOT
ATOM     10  C   UNL     1      -4.360   2.221  24.377  0.00  0.00    +0.051 C 
ENDROOT
BRANCH  10   9
ATOM      4  C   UNL     1      -3.896   3.277  25.220  0.00  0.00    +0.012 C 
ATOM      5  C   UNL     1      -4.033   3.820  25.827  0.00  0.00    +0.019 C 
ATOM      6  C   UNL     1      -4.770   3.849  26.194  0.00  0.00    +0.089 C 
ATOM      7  N   UNL     1      -5.371   3.336  25.957  0.00  0.00    -0.218 NA
ATOM      8  C   UNL     1      -5.234   2.794  25.351  0.00  0.00    +0.089 C 
ATOM      9  C   UNL     1      -4.497   2.764  24.983  0.00  0.00    +0.024 C 
BRANCH   4   3
ATOM      3  C   UNL     1      -3.158   3.248  24.852  0.00  0.00    +0.087 C 
BRANCH   3   2
ATOM      1  O   UNL     1      -2.992   4.644  24.596  0.00  0.00    -0.273 OA
ATOM      2  C   UNL     1      -2.679   3.919  24.834  0.00  0.00    +0.241 C 
ATOM     24  N   UNL     1      -1.885   3.865  25.053  0.00  0.00    -0.207 NA
BRANCH  24  25
ATOM     25  C   UNL     1      -1.406   4.536  25.035  0.00  0.00    +0.095 C 
ATOM     26  C   UNL     1      -1.322   5.355  25.077  0.00  0.00    +0.023 C 
ATOM     27  C   UNL     1      -0.658   4.879  24.961  0.00  0.00    +0.023 C 
ENDBRANCH  24  25
ENDBRANCH   3   2
ENDBRANCH   4   3
ENDBRANCH  10   9
BRANCH  10  11
ATOM     11  C   UNL     1      -4.503   1.419  24.502  0.00  0.00    +0.100 A 
ATOM     12  N   UNL     1      -5.162   1.097  24.879  0.00  0.00    -0.082 NA
ATOM     13  O   UNL     1      -5.080   0.276  24.883  0.00  0.00    -0.357 OA
ATOM     14  C   UNL     1      -4.369   0.090  24.508  0.00  0.00    +0.165 A 
ATOM     23  C   UNL     1      -4.012   0.797  24.273  0.00  0.00    +0.054 A 
BRANCH  14  15
ATOM     15  C   UNL     1      -4.066  -0.668  24.389  0.00  0.00    +0.129 C 
BRANCH  15  16
ATOM     16  S   UNL     1      -3.625  -1.034  24.983  0.00  0.00    -0.105 S 
BRANCH  16  17
ATOM     17  C   UNL     1      -3.208  -1.726  24.820  0.00  0.00    +0.026 A 
ATOM     18  C   UNL     1      -3.616  -2.433  24.697  0.00  0.00    +0.006 A 
ATOM     19  C   UNL     1      -3.199  -3.126  24.534  0.00  0.00    +0.001 A 
ATOM     20  C   UNL     1      -2.375  -3.113  24.495  0.00  0.00    +0.000 A 
ATOM     21  C   UNL     1      -1.968  -2.405  24.618  0.00  0.00    +0.001 A 
ATOM     22  C   UNL     1      -2.385  -1.713  24.781  0.00  0.00    +0.006 A 
ENDBRANCH  16  17
ENDBRANCH  15  16
ENDBRANCH  14  15
ENDBRANCH  10  11
TORSDOF 8
ENDMDL
MODEL 3
REMARK VINA RESULT:     -10.1      1.497      3.037
REMARK  Name = 
REMARK  8 active torsions:
REMARK  status: ('A' for Active; 'I' for Inactive)
REMARK    1  A    between atoms: C_2  and  C_3
REMARK    2  A    between atoms: C_3  and  C_4
REMARK    3  A    between atoms: C_9  and  C_10
REMARK    4  A    between atoms: C_10  and  C_11
REMARK    5  A    between atoms: C_14  and  C_15
REMARK    6  A    between atoms: C_15  and  S_16
REMARK    7  A    between atoms: S_16  and  C_17
REMARK    8  A    between atoms: N_24  and  C_25
REMARK                            x       y       z     vdW  Elec       q    Type
REMARK                         _______ _______ _______ _____ _____    ______ ____
ROOT
ATOM     10  C   UNL     1      -1.041   1.814  25.745  0.00  0.00    +0.051 C 
ENDROOT
BRANCH  10   9
ATOM      4  C   UNL     1      -1.300   3.161  25.346  0.00  0.00    +0.012 C 
ATOM      5  C   UNL     1      -1.126   3.811  24.868  0.00  0.00    +0.019 C 
ATOM      6  C   UNL     1      -0.519   3.762  24.311  0.00  0.00    +0.089 C 
ATOM      7  N   UNL     1      -0.087   3.064  24.232  0.00  0.00    -0.218 NA
ATOM      8  C   UNL     1      -0.260   2.415  24.710  0.00  0.00    +0.089 C 
ATOM      9  C   UNL     1      -0.867   2.463  25.267  0.00  0.00    +0.024 C 
BRANCH   4   3
ATOM      3  C   UNL     1      -1.906   3.210  25.903  0.00  0.00    +0.087 C 
BRANCH   3   2
ATOM      1  O   UNL     1      -2.587   4.433  25.614  0.00  0.00    -0.273 OA
ATOM      2  C   UNL     1      -2.602   3.615  25.722  0.00  0.00    +0.241 C 
ATOM     24  N   UNL     1      -3.313   3.202  25.647  0.00  0.00    -0.207 NA
BRANCH  24  25
ATOM     25  C   UNL     1      -4.008   3.607  25.466  0.00  0.00    +0.095 C 
ATOM     26  C   UNL     1      -4.426   4.127  24.982  0.00  0.00    +0.023 C 
ATOM     27  C   UNL     1      -4.795   3.788  25.637  0.00  0.00    +0.023 C 
ENDBRANCH  24  25
ENDBRANCH   3   2
ENDBRANCH   4   3
ENDBRANCH  10   9
BRANCH  10  11
ATOM     11  C   UNL     1      -1.030   1.053  25.427  0.00  0.00    +0.100 A 
ATOM     12  N   UNL     1      -0.358   0.594  25.290  0.00  0.00    -0.082 NA
ATOM     13  O   UNL     1      -0.600  -0.126  24.968  0.00  0.00    -0.357 OA
ATOM     14  C   UNL     1      -1.423  -0.112  24.906  0.00  0.00    +0.165 A 
ATOM     23  C   UNL     1      -1.688   0.616  25.190  0.00  0.00    +0.054 A 
BRANCH  14  15
ATOM     15  C   UNL     1      -1.898  -0.720  24.613  0.00  0.00    +0.129 C 
BRANCH  15  16
ATOM     16  S   UNL     1      -2.583  -0.939  25.018  0.00  0.00    -0.105 S 
BRANCH  16  17
ATOM     17  C   UNL     1      -3.097  -1.493  24.688  0.00  0.00    +0.026 A 
ATOM     18  C   UNL     1      -3.729  -1.242  24.221  0.00  0.00    +0.006 A 
ATOM     19  C   UNL     1      -4.243  -1.797  23.891  0.00  0.00    +0.001 A 
ATOM     20  C   UNL     1      -4.126  -2.602  24.029  0.00  0.00    +0.000 A 
ATOM     21  C   UNL     1      -3.494  -2.852  24.497  0.00  0.00    +0.001 A 
ATOM     22  C   UNL     1      -2.980  -2.298  24.826  0.00  0.00    +0.006 A 
ENDBRANCH  16  17
ENDBRANCH  15  16
ENDBRANCH  14  15
ENDBRANCH  10  11
TORSDOF 8
ENDMDL
MODEL 4
REMARK VINA RESULT:      -9.9      1.617      3.071
REMARK  Name = 
REMARK  8 active torsions:
REMARK  status: ('A' for Active; 'I' for Inactive)
REMARK    1  A    between atoms: C_2  and  C_3
REMARK    2  A    between atoms: C_3  and  C_4
REMARK    3  A    between atoms: C_9  and  C_10
REMARK    4  A    between atoms: C_10  and  C_11
REMARK    5  A    between atoms: C_14  and  C_15
REMARK    6  A    between atoms: C_15  and  S_16
REMARK    7  A    between atoms: S_16  and  C_17
REMARK    8  A    between atoms: N_24  and  C_25
REMARK                            x       y       z     vdW  Elec       q    Type
REMARK                         _______ _______ _______ _____ _____    ______ ____
ROOT
ATOM     10  C   UNL     1      -0.886   1.755  24.309  0.00  0.00    +0.051 C 
ENDROOT
BRANCH  10   9
ATOM      4  C   UNL     1      -1.300   2.825  25.160  0.00  0.00    +0.012 C 
ATOM      5  C   UNL     1      -1.200   3.272  25.847  0.00  0.00    +0.019 C 
ATOM      6  C   UNL     1      -0.586   3.094  26.368  0.00  0.00    +0.089 C 
ATOM      7  N   UNL     1      -0.072   2.470  26.203  0.00  0.00    -0.218 NA
ATOM      8  C   UNL     1      -0.172   2.024  25.517  0.00  0.00    +0.089 C 
ATOM      9  C   UNL     1      -0.786   2.201  24.995  0.00  0.00    +0.024 C 
BRANCH   4   3
ATOM      3  C   UNL     1      -1.914   3.002  24.639  0.00  0.00    +0.087 C 
BRANCH   3   2
ATOM      1  O   UNL     1      -2.543   4.155  25.203  0.00  0.00    -0.273 OA
ATOM      2  C   UNL     1      -2.592   3.384  24.914  0.00  0.00    +0.241 C 
ATOM     24  N   UNL     1      -3.320   2.995  24.900  0.00  0.00    -0.207 NA
BRANCH  24  25
ATOM     25  C   UNL     1      -3.997   3.376  25.174  0.00  0.00    +0.095 C 
ATOM     26  C   UNL     1      -4.440   4.066  25.270  0.00  0.00    +0.023 C 
ATOM     27  C   UNL     1      -4.729   3.347  25.555  0.00  0.00    +0.023 C 
ENDBRANCH  24  25
ENDBRANCH   3   2
ENDBRANCH   4   3
ENDBRANCH  10   9
BRANCH  10  11
ATOM     11  C   UNL     1      -0.859   0.931  24.345  0.00  0.00    +0.100 A 
ATOM     12  N   UNL     1      -0.177   0.471  24.404  0.00  0.00    -0.082 NA
ATOM     13  O   UNL     1      -0.404  -0.322  24.424  0.00  0.00    -0.357 OA
ATOM     14  C   UNL     1      -1.227  -0.352  24.378  0.00  0.00    +0.165 A 
ATOM     23  C   UNL     1      -1.508   0.423  24.329  0.00  0.00    +0.054 A 
BRANCH  14  15
ATOM     15  C   UNL     1      -1.690  -1.035  24.380  0.00  0.00    +0.129 C 
BRANCH  15  16
ATOM     16  S   UNL     1      -2.442  -1.022  24.720  0.00  0.00    -0.105 S 
BRANCH  16  17
ATOM     17  C   UNL     1      -2.986  -1.615  24.540  0.00  0.00    +0.026 A 
ATOM     18  C   UNL     1      -2.855  -2.387  24.802  0.00  0.00    +0.006 A 
ATOM     19  C   UNL     1      -3.399  -2.980  24.622  0.00  0.00    +0.001 A 
ATOM     20  C   UNL     1      -4.074  -2.802  24.181  0.00  0.00    +0.000 A 
ATOM     21  C   UNL     1      -4.204  -2.030  23.920  0.00  0.00    +0.001 A 
ATOM     22  C   UNL     1      -3.660  -1.437  24.100  0.00  0.00    +0.006 A 
ENDBRANCH  16  17
ENDBRANCH  15  16
ENDBRANCH  14  15
ENDBRANCH  10  11
TORSDOF 8
ENDMDL
MODEL 5
REMARK VINA RESULT:      -9.7      2.024      4.965
REMARK  Name = 
REMARK  8 active torsions:
REMARK  status: ('A' for Active; 'I' for Inactive)
REMARK    1  A    between atoms: C_2  and  C_3
REMARK    2  A    between atoms: C_3  and  C_4
REMARK    3  A    between atoms: C_9  and  C_10
REMARK    4  A    between atoms: C_10  and  C_11
REMARK    5  A    between atoms: C_14  and  C_15
REMARK    6  A    between atoms: C_15  and  S_16
REMARK    7  A    between atoms: S_16  and  C_17
REMARK    8  A    between atoms: N_24  and  C_25
REMARK                            x       y       z     vdW  Elec       q    Type
REMARK                         _______ _______ _______ _____ _____    ______ ____
ROOT
ATOM     10  C   UNL     1      -3.881   0.165  25.398  0.00  0.00    +0.051 C 
ENDROOT
BRANCH  10   9
ATOM      4  C   UNL     1      -3.496  -1.115  24.895  0.00  0.00    +0.012 C 
ATOM      5  C   UNL     1      -3.597  -1.731  24.355  0.00  0.00    +0.019 C 
ATOM      6  C   UNL     1      -4.184  -1.680  23.778  0.00  0.00    +0.089 C 
ATOM      7  N   UNL     1      -4.670  -1.015  23.740  0.00  0.00    -0.218 NA
ATOM      8  C   UNL     1      -4.569  -0.400  24.280  0.00  0.00    +0.089 C 
ATOM      9  C   UNL     1      -3.982  -0.450  24.858  0.00  0.00    +0.024 C 
BRANCH   4   3
ATOM      3  C   UNL     1      -2.909  -1.166  25.472  0.00  0.00    +0.087 C 
BRANCH   3   2
ATOM      1  O   UNL     1      -2.152  -2.295  25.029  0.00  0.00    -0.273 OA
ATOM      2  C   UNL     1      -2.182  -1.514  25.293  0.00  0.00    +0.241 C 
ATOM     24  N   UNL     1      -1.485  -1.081  25.378  0.00  0.00    -0.207 NA
BRANCH  24  25
ATOM     25  C   UNL     1      -0.759  -1.428  25.199  0.00  0.00    +0.095 C 
ATOM     26  C   UNL     1      -0.187  -2.005  25.345  0.00  0.00    +0.023 C 
ATOM     27  C   UNL     1      -0.072  -1.454  24.742  0.00  0.00    +0.023 C 
ENDBRANCH  24  25
ENDBRANCH   3   2
ENDBRANCH   4   3
ENDBRANCH  10   9
BRANCH  10  11
ATOM     11  C   UNL     1      -3.877   0.947  25.137  0.00  0.00    +0.100 A 
ATOM     12  N   UNL     1      -4.529   1.367  24.855  0.00  0.00    -0.082 NA
ATOM     13  O   UNL     1      -4.277   2.127  24.655  0.00  0.00    -0.357 OA
ATOM     14  C   UNL     1      -3.469   2.176  24.813  0.00  0.00    +0.165 A 
ATOM     23  C   UNL     1      -3.222   1.447  25.111  0.00  0.00    +0.054 A 
BRANCH  14  15
ATOM     15  C   UNL     1      -2.990   2.838  24.694  0.00  0.00    +0.129 C 
BRANCH  15  16
ATOM     16  S   UNL     1      -2.580   3.168  25.330  0.00  0.00    -0.105 S 
BRANCH  16  17
ATOM     17  C   UNL     1      -2.042   3.780  25.200  0.00  0.00    +0.026 A 
ATOM     18  C   UNL     1      -1.282   3.610  24.927  0.00  0.00    +0.006 A 
ATOM     19  C   UNL     1      -0.745   4.223  24.797  0.00  0.00    +0.001 A 
ATOM     20  C   UNL     1      -0.967   5.005  24.940  0.00  0.00    +0.000 A 
ATOM     21  C   UNL     1      -1.727   5.173  25.214  0.00  0.00    +0.001 A 
ATOM     22  C   UNL     1      -2.264   4.561  25.343  0.00  0.00    +0.006 A 
ENDBRANCH  16  17
ENDBRANCH  15  16
ENDBRANCH  14  15
ENDBRANCH  10  11
TORSDOF 8
ENDMDL
MODEL 6
REMARK VINA RESULT:      -9.6      1.992      5.309
REMARK  Name = 
REMARK  8 active torsions:
REMARK  status: ('A' for Active; 'I' for Inactive)
REMARK    1  A    between atoms: C_2  and  C_3
REMARK    2  A    between atoms: C_3  and  C_4
REMARK    3  A    between atoms: C_9  and  C_10
REMARK    4  A    between atoms: C_10  and  C_11
REMARK    5  A    between atoms: C_14  and  C_15
REMARK    6  A    between atoms: C_15  and  S_16
REMARK    7  A    between atoms: S_16  and  C_17
REMARK    8  A    between atoms: N_24  and  C_25
REMARK                            x       y       z     vdW  Elec       q    Type
REMARK                         _______ _______ _______ _____ _____    ______ ____
ROOT
ATOM     10  C   UNL     1      -2.241   0.109  24.066  0.00  0.00    +0.051 C 
ENDROOT
BRANCH  10   9
ATOM      4  C   UNL     1      -3.405  -0.267  24.804  0.00  0.00    +0.012 C 
ATOM      5  C   UNL     1      -3.757  -0.703  25.410  0.00  0.00    +0.019 C 
ATOM      6  C   UNL     1      -3.298  -1.201  25.880  0.00  0.00    +0.089 C 
ATOM      7  N   UNL     1      -2.486  -1.262  25.747  0.00  0.00    -0.218 NA
ATOM      8  C   UNL     1      -2.134  -0.825  25.142  0.00  0.00    +0.089 C 
ATOM      9  C   UNL     1      -2.593  -0.328  24.671  0.00  0.00    +0.024 C 
BRANCH   4   3
ATOM      3  C   UNL     1      -3.864   0.231  24.333  0.00  0.00    +0.087 C 
BRANCH   3   2
ATOM      1  O   UNL     1      -5.163   0.084  24.911  0.00  0.00    -0.273 OA
ATOM      2  C   UNL     1      -4.553   0.567  24.638  0.00  0.00    +0.241 C 
ATOM     24  N   UNL     1      -4.632   1.389  24.670  0.00  0.00    -0.207 NA
BRANCH  24  25
ATOM     25  C   UNL     1      -5.320   1.725  24.974  0.00  0.00    +0.095 C 
ATOM     26  C   UNL     1      -6.144   1.757  25.012  0.00  0.00    +0.023 C 
ATOM     27  C   UNL     1      -5.690   2.276  25.465  0.00  0.00    +0.023 C 
ENDBRANCH  24  25
ENDBRANCH   3   2
ENDBRANCH   4   3
ENDBRANCH  10   9
BRANCH  10  11
ATOM     11  C   UNL     1      -1.613   0.617  24.236  0.00  0.00    +0.100 A 
ATOM     12  N   UNL     1      -0.841   0.390  24.414  0.00  0.00    -0.082 NA
ATOM     13  O   UNL     1      -0.397   1.073  24.545  0.00  0.00    -0.357 OA
ATOM     14  C   UNL     1      -0.897   1.723  24.449  0.00  0.00    +0.165 A 
ATOM     23  C   UNL     1      -1.648   1.440  24.257  0.00  0.00    +0.054 A 
BRANCH  14  15
ATOM     15  C   UNL     1      -0.684   2.516  24.529  0.00  0.00    +0.129 C 
BRANCH  15  16
ATOM     16  S   UNL     1      -0.903   2.935  25.206  0.00  0.00    -0.105 S 
BRANCH  16  17
ATOM     17  C   UNL     1      -1.053   3.744  25.159  0.00  0.00    +0.026 A 
ATOM     18  C   UNL     1      -1.762   4.049  25.453  0.00  0.00    +0.006 A 
ATOM     19  C   UNL     1      -1.912   4.859  25.406  0.00  0.00    +0.001 A 
ATOM     20  C   UNL     1      -1.356   5.364  25.065  0.00  0.00    +0.000 A 
ATOM     21  C   UNL     1      -0.648   5.058  24.771  0.00  0.00    +0.001 A 
ATOM     22  C   UNL     1      -0.497   4.248  24.818  0.00  0.00    +0.006 A 
ENDBRANCH  16  17
ENDBRANCH  15  16
ENDBRANCH  14  15
ENDBRANCH  10  11
TORSDOF 8
ENDMDL
MODEL 7
REMARK VINA RESULT:      -9.6      2.509      5.997
REMARK  Name = 
REMARK  8 active torsions:
REMARK  status: ('A' for Active; 'I' for Inactive)
REMARK    1  A    between atoms: C_2  and  C_3
REMARK    2  A    between atoms: C_3  and  C_4
REMARK    3  A    between atoms: C_9  and  C_10
REMARK    4  A    between atoms: C_10  and  C_11
REMARK    5  A    between atoms: C_14  and  C_15
REMARK    6  A    between atoms: C_15  and  S_16
REMARK    7  A    between atoms: S_16  and  C_17
REMARK    8  A    between atoms: N_24  and  C_25
REMARK                            x       y       z     vdW  Elec       q    Type
REMARK                         _______ _______ _______ _____ _____    ______ ____
ROOT
ATOM     10  C   UNL     1      -1.131   0.084  25.622  0.00  0.00    +0.051 C 
ENDROOT
BRANCH  10   9
ATOM      4  C   UNL     1      -1.185  -1.022  24.719  0.00  0.00    +0.012 C 
ATOM      5  C   UNL     1      -0.894  -1.419  24.057  0.00  0.00    +0.019 C 
ATOM      6  C   UNL     1      -0.257  -1.106  23.636  0.00  0.00    +0.089 C 
ATOM      7  N   UNL     1       0.088  -0.396  23.876  0.00  0.00    -0.218 NA
ATOM      8  C   UNL     1      -0.203  -0.000  24.538  0.00  0.00    +0.089 C 
ATOM      9  C   UNL     1      -0.840  -0.312  24.960  0.00  0.00    +0.024 C 
BRANCH   4   3
ATOM      3  C   UNL     1      -1.821  -1.335  25.140  0.00  0.00    +0.087 C 
BRANCH   3   2
ATOM      1  O   UNL     1      -2.108  -2.560  24.462  0.00  0.00    -0.273 OA
ATOM      2  C   UNL     1      -2.359  -1.835  24.764  0.00  0.00    +0.241 C 
ATOM     24  N   UNL     1      -3.151  -1.610  24.691  0.00  0.00    -0.207 NA
BRANCH  24  25
ATOM     25  C   UNL     1      -3.688  -2.110  24.316  0.00  0.00    +0.095 C 
ATOM     26  C   UNL     1      -3.972  -2.869  24.164  0.00  0.00    +0.023 C 
ATOM     27  C   UNL     1      -4.337  -2.216  23.816  0.00  0.00    +0.023 C 
ENDBRANCH  24  25
ENDBRANCH   3   2
ENDBRANCH   4   3
ENDBRANCH  10   9
BRANCH  10  11
ATOM     11  C   UNL     1      -0.948   0.880  25.739  0.00  0.00    +0.100 A 
ATOM     12  N   UNL     1      -0.245   1.174  26.056  0.00  0.00    -0.082 NA
ATOM     13  O   UNL     1      -0.298   1.997  26.074  0.00  0.00    -0.357 OA
ATOM     14  C   UNL     1      -1.033   2.212  25.767  0.00  0.00    +0.165 A 
ATOM     23  C   UNL     1      -1.434   1.521  25.560  0.00  0.00    +0.054 A 
BRANCH  14  15
ATOM     15  C   UNL     1      -1.318   2.982  25.681  0.00  0.00    +0.129 C 
BRANCH  15  16
ATOM     16  S   UNL     1      -0.978   3.486  25.123  0.00  0.00    -0.105 S 
BRANCH  16  17
ATOM     17  C   UNL     1      -1.215   4.276  25.084  0.00  0.00    +0.026 A 
ATOM     18  C   UNL     1      -1.974   4.491  25.328  0.00  0.00    +0.006 A 
ATOM     19  C   UNL     1      -2.210   5.280  25.289  0.00  0.00    +0.001 A 
ATOM     20  C   UNL     1      -1.688   5.855  25.007  0.00  0.00    +0.000 A 
ATOM     21  C   UNL     1      -0.930   5.638  24.764  0.00  0.00    +0.001 A 
ATOM     22  C   UNL     1      -0.694   4.849  24.803  0.00  0.00    +0.006 A 
ENDBRANCH  16  17
ENDBRANCH  15  16
ENDBRANCH  14  15
ENDBRANCH  10  11
TORSDOF 8
ENDMDL
MODEL 8
REMARK VINA RESULT:      -9.4      2.299      5.068
REMARK  Name = 
REMARK  8 active torsions:
REMARK  status: ('A' for Active; 'I' for Inactive)
REMARK    1  A    between atoms: C_2  and  C_3
REMARK    2  A    between atoms: C_3  and  C_4
REMARK    3  A    between atoms: C_9  and  C_10
REMARK    4  A    between atoms: C_10  and  C_11
REMARK    5  A    between atoms: C_14  and  C_15
REMARK    6  A    between atoms: C_15  and  S_16
REMARK    7  A    between atoms: S_16  and  C_17
REMARK    8  A    between atoms: N_24  and  C_25
REMARK                            x       y       z     vdW  Elec       q    Type
REMARK                         _______ _______ _______ _____ _____    ______ ____
ROOT
ATOM     10  C   UNL     1      -0.869   0.742  25.426  0.00  0.00    +0.051 C 
ENDROOT
BRANCH  10   9
ATOM      4  C   UNL     1      -0.750  -0.477  24.691  0.00  0.00    +0.012 C 
ATOM      5  C   UNL     1      -0.450  -0.896  24.046  0.00  0.00    +0.019 C 
ATOM      6  C   UNL     1       0.030  -0.515  23.493  0.00  0.00    +0.089 C 
ATOM      7  N   UNL     1       0.210   0.285  23.585  0.00  0.00    -0.218 NA
ATOM      8  C   UNL     1      -0.090   0.703  24.229  0.00  0.00    +0.089 C 
ATOM      9  C   UNL     1      -0.569   0.323  24.782  0.00  0.00    +0.024 C 
BRANCH   4   3
ATOM      3  C   UNL     1      -1.229  -0.858  25.243  0.00  0.00    +0.087 C 
BRANCH   3   2
ATOM      1  O   UNL     1      -1.371  -2.190  24.745  0.00  0.00    -0.273 OA
ATOM      2  C   UNL     1      -1.710  -1.486  25.009  0.00  0.00    +0.241 C 
ATOM     24  N   UNL     1      -2.532  -1.410  25.040  0.00  0.00    -0.207 NA
BRANCH  24  25
ATOM     25  C   UNL     1      -3.012  -2.038  24.806  0.00  0.00    +0.095 C 
ATOM     26  C   UNL     1      -3.232  -2.831  24.866  0.00  0.00    +0.023 C 
ATOM     27  C   UNL     1      -3.627  -2.332  24.340  0.00  0.00    +0.023 C 
ENDBRANCH  24  25
ENDBRANCH   3   2
ENDBRANCH   4   3
ENDBRANCH  10   9
BRANCH  10  11
ATOM     11  C   UNL     1      -1.198   1.490  25.314  0.00  0.00    +0.100 A 
ATOM     12  N   UNL     1      -0.791   2.169  25.082  0.00  0.00    -0.082 NA
ATOM     13  O   UNL     1      -1.333   2.790  25.039  0.00  0.00    -0.357 OA
ATOM     14  C   UNL     1      -2.075   2.494  25.245  0.00  0.00    +0.165 A 
ATOM     23  C   UNL     1      -1.991   1.691  25.415  0.00  0.00    +0.054 A 
BRANCH  14  15
ATOM     15  C   UNL     1      -2.779   2.925  25.276  0.00  0.00    +0.129 C 
BRANCH  15  16
ATOM     16  S   UNL     1      -3.416   2.706  24.800  0.00  0.00    -0.105 S 
BRANCH  16  17
ATOM     17  C   UNL     1      -4.185   2.897  25.028  0.00  0.00    +0.026 A 
ATOM     18  C   UNL     1      -4.362   3.663  25.281  0.00  0.00    +0.006 A 
ATOM     19  C   UNL     1      -5.131   3.854  25.510  0.00  0.00    +0.001 A 
ATOM     20  C   UNL     1      -5.724   3.280  25.486  0.00  0.00    +0.000 A 
ATOM     21  C   UNL     1      -5.546   2.515  25.233  0.00  0.00    +0.001 A 
ATOM     22  C   UNL     1      -4.777   2.324  25.004  0.00  0.00    +0.006 A 
ENDBRANCH  16  17
ENDBRANCH  15  16
ENDBRANCH  14  15
ENDBRANCH  10  11
TORSDOF 8
ENDMDL
