REMARK  Name = 
REMARK  8 active torsions:
REMARK  status: ('A' for Active; 'I' for Inactive)
REMARK    1  A    between atoms: O_2  and  C_3
REMARK    2  A    between atoms: C_3  and  C_5
REMARK    3  A    between atoms: C_5  and  C_6
REMARK    4  A    between atoms: C_5  and  N_13
REMARK    5  A    between atoms: C_6  and  C_7
REMARK    6  A    between atoms: C_14  and  C_16
REMARK    7  A    between atoms: N_24  and  C_25
REMARK    8  A    between atoms: C_28  and  C_30
REMARK                            x       y       z     vdW  Elec       q    Type
REMARK                         _______ _______ _______ _____ _____    ______ ____
ROOT
ATOM     16  C   UNL     1       5.443  -6.188   0.000  0.00  0.00    +0.175 C 
ATOM     17  C   UNL     1       5.856  -5.473   0.000  0.00  0.00    +0.123 C 
ATOM     18  N   UNL     1       6.681  -5.473   0.000  0.00  0.00    -0.272 N 
ATOM     19  C   UNL     1       7.093  -6.188   0.000  0.00  0.00    +0.115 C 
ATOM     20  C   UNL     1       6.681  -6.902   0.000  0.00  0.00    +0.117 C 
ATOM     21  N   UNL     1       5.856  -6.902   0.000  0.00  0.00    -0.253 N 
ATOM     22  C   UNL     1       5.443  -7.616   0.000  0.00  0.00    +0.324 C 
ATOM     23  O   UNL     1       4.618  -7.616   0.000  0.00  0.00    -0.251 OA
ATOM     24  N   UNL     1       5.856  -8.331   0.000  0.00  0.00    -0.190 NA
ATOM     28  C   UNL     1       7.093  -4.759   0.000  0.00  0.00    +0.249 C 
ATOM     29  O   UNL     1       6.681  -4.044   0.000  0.00  0.00    -0.270 OA
ENDROOT
BRANCH  28  30
ATOM     30  C   UNL     1       7.918  -4.759   0.000  0.00  0.00    +0.056 A 
ATOM     31  C   UNL     1       8.331  -4.044   0.000  0.00  0.00    +0.005 A 
ATOM     32  C   UNL     1       9.156  -4.044   0.000  0.00  0.00    +0.002 A 
ATOM     33  C   UNL     1       9.568  -4.759   0.000  0.00  0.00    +0.030 A 
ATOM     34  C   UNL     1       9.156  -5.473   0.000  0.00  0.00    +0.140 A 
ATOM     35  F   UNL     1       9.568  -6.188   0.000  0.00  0.00    -0.204 F 
ATOM     36  C   UNL     1       8.331  -5.473   0.000  0.00  0.00    +0.034 A 
ENDBRANCH  28  30
BRANCH  16  14
ATOM     13  N   UNL     1       4.206  -6.902   0.000  0.00  0.00    -0.194 NA
ATOM     14  C   UNL     1       4.618  -6.188   0.000  0.00  0.00    +0.262 C 
ATOM     15  O   UNL     1       4.206  -5.473   0.000  0.00  0.00    -0.271 OA
BRANCH  13   5
ATOM      5  C   UNL     1       3.381  -6.902   0.000  0.00  0.00    +0.198 C 
BRANCH   5   3
ATOM      3  C   UNL     1       2.968  -6.188   0.000  0.00  0.00    +0.337 C 
ATOM      4  O   UNL     1       3.381  -5.473   0.000  0.00  0.00    -0.248 OA
BRANCH   3   2
ATOM      1  C   UNL     1       1.731  -5.473   0.000  0.00  0.00    +0.256 C 
ATOM      2  O   UNL     1       2.143  -6.188   0.000  0.00  0.00    -0.443 OA
ENDBRANCH   3   2
ENDBRANCH   5   3
BRANCH   5   6
ATOM      6  C   UNL     1       2.968  -7.616   0.000  0.00  0.00    +0.061 C 
BRANCH   6   7
ATOM      7  C   UNL     1       2.143  -7.616   0.000  0.00  0.00    -0.001 A 
ATOM      8  C   UNL     1       1.731  -8.331   0.000  0.00  0.00    -0.001 A 
ATOM      9  C   UNL     1       0.906  -8.331   0.000  0.00  0.00    +0.020 A 
ATOM     10  C   UNL     1       0.493  -7.616   0.000  0.00  0.00    +0.099 A 
ATOM     11  N   UNL     1       0.906  -6.902   0.000  0.00  0.00    -0.243 NA
ATOM     12  C   UNL     1       1.731  -6.902   0.000  0.00  0.00    +0.095 A 
ENDBRANCH   6   7
ENDBRANCH   5   6
ENDBRANCH  13   5
ENDBRANCH  16  14
BRANCH  24  25
ATOM     25  C   UNL     1       6.681  -8.331   0.000  0.00  0.00    +0.097 C 
ATOM     26  C   UNL     1       7.093  -7.616   0.000  0.00  0.00    +0.023 C 
ATOM     27  C   UNL     1       7.093  -9.045   0.000  0.00  0.00    +0.023 C 
ENDBRANCH  24  25
TORSDOF 8
