MODEL 1
REMARK VINA RESULT:     -14.0      0.000      0.000
REMARK  Name = 
REMARK  3 active torsions:
REMARK  status: ('A' for Active; 'I' for Inactive)
REMARK    1  A    between atoms: C_7  and  C_8
REMARK    2  A    between atoms: C_11  and  C_13
REMARK    3  A    between atoms: C_18  and  C_20
REMARK                            x       y       z     vdW  Elec       q    Type
REMARK                         _______ _______ _______ _____ _____    ______ ____
ROOT
ATOM     13  C   UNL     1      -4.526   1.436  24.735  0.00  0.00    +0.100 C 
ATOM     14  C   UNL     1      -5.339   1.540  24.829  0.00  0.00    +0.033 C 
ATOM     15  C   UNL     1      -5.469   2.312  25.090  0.00  0.00    +0.094 C 
ATOM     16  N   UNL     1      -4.737   2.685  25.158  0.00  0.00    -0.276 N 
ATOM     17  C   UNL     1      -4.153   2.144  24.938  0.00  0.00    +0.103 C 
ATOM     18  C   UNL     1      -4.609   3.463  25.402  0.00  0.00    +0.249 C 
ATOM     19  O   UNL     1      -5.250   3.941  25.606  0.00  0.00    -0.270 OA
ENDROOT
BRANCH  18  20
ATOM     20  C   UNL     1      -3.841   3.762  25.443  0.00  0.00    +0.054 A 
ATOM     21  C   UNL     1      -3.476   4.056  24.764  0.00  0.00    +0.005 A 
ATOM     22  C   UNL     1      -2.709   4.355  24.805  0.00  0.00    +0.000 A 
ATOM     23  C   UNL     1      -2.306   4.360  25.525  0.00  0.00    +0.000 A 
ATOM     24  C   UNL     1      -2.670   4.065  26.203  0.00  0.00    +0.000 A 
ATOM     25  C   UNL     1      -3.438   3.766  26.163  0.00  0.00    +0.005 A 
ENDBRANCH  18  20
BRANCH  13  11
ATOM      8  C   UNL     1      -3.782  -0.533  24.378  0.00  0.00    +0.252 A 
ATOM      9  N   UNL     1      -3.369  -0.101  23.810  0.00  0.00    -0.107 NA
ATOM     10  N   UNL     1      -3.597   0.690  23.874  0.00  0.00    -0.111 NA
ATOM     11  C   UNL     1      -4.151   0.746  24.482  0.00  0.00    +0.228 A 
ATOM     12  O   UNL     1      -4.266  -0.010  24.794  0.00  0.00    -0.419 OA
BRANCH   8   7
ATOM      1  F   UNL     1      -4.485  -1.590  23.324  0.00  0.00    -0.204 F 
ATOM      2  C   UNL     1      -4.073  -1.874  23.981  0.00  0.00    +0.145 A 
ATOM      3  C   UNL     1      -4.013  -2.686  24.111  0.00  0.00    +0.030 A 
ATOM      4  C   UNL     1      -3.602  -2.970  24.767  0.00  0.00    +0.002 A 
ATOM      5  C   UNL     1      -3.251  -2.441  25.294  0.00  0.00    +0.000 A 
ATOM      6  C   UNL     1      -3.311  -1.628  25.165  0.00  0.00    +0.007 A 
ATOM      7  C   UNL     1      -3.722  -1.345  24.508  0.00  0.00    +0.083 A 
ENDBRANCH   8   7
ENDBRANCH  13  11
TORSDOF 3
ENDMDL
MODEL 2
REMARK VINA RESULT:     -13.7      1.673      2.052
REMARK  Name = 
REMARK  3 active torsions:
REMARK  status: ('A' for Active; 'I' for Inactive)
REMARK    1  A    between atoms: C_7  and  C_8
REMARK    2  A    between atoms: C_11  and  C_13
REMARK    3  A    between atoms: C_18  and  C_20
REMARK                            x       y       z     vdW  Elec       q    Type
REMARK                         _______ _______ _______ _____ _____    ______ ____
ROOT
ATOM     13  C   UNL     1      -3.683   2.114  24.834  0.00  0.00    +0.100 C 
ATOM     14  C   UNL     1      -4.089   2.806  24.639  0.00  0.00    +0.033 C 
ATOM     15  C   UNL     1      -3.552   3.432  24.666  0.00  0.00    +0.094 C 
ATOM     16  N   UNL     1      -2.815   3.128  24.878  0.00  0.00    -0.276 N 
ATOM     17  C   UNL     1      -2.896   2.313  24.982  0.00  0.00    +0.103 C 
ATOM     18  C   UNL     1      -2.119   3.562  24.970  0.00  0.00    +0.249 C 
ATOM     19  O   UNL     1      -2.123   4.378  24.847  0.00  0.00    -0.270 OA
ENDROOT
BRANCH  18  20
ATOM     20  C   UNL     1      -1.421   3.180  25.185  0.00  0.00    +0.054 A 
ATOM     21  C   UNL     1      -0.909   2.897  24.603  0.00  0.00    +0.005 A 
ATOM     22  C   UNL     1      -0.210   2.515  24.818  0.00  0.00    +0.000 A 
ATOM     23  C   UNL     1      -0.023   2.416  25.616  0.00  0.00    +0.000 A 
ATOM     24  C   UNL     1      -0.534   2.699  26.198  0.00  0.00    +0.000 A 
ATOM     25  C   UNL     1      -1.233   3.081  25.983  0.00  0.00    +0.005 A 
ENDBRANCH  18  20
BRANCH  13  11
ATOM      8  C   UNL     1      -4.144   0.030  24.821  0.00  0.00    +0.252 A 
ATOM      9  N   UNL     1      -4.868   0.352  25.049  0.00  0.00    -0.107 NA
ATOM     10  N   UNL     1      -4.784   1.172  25.082  0.00  0.00    -0.111 NA
ATOM     11  C   UNL     1      -4.007   1.357  24.874  0.00  0.00    +0.228 A 
ATOM     12  O   UNL     1      -3.612   0.650  24.713  0.00  0.00    -0.419 OA
BRANCH   8   7
ATOM      1  F   UNL     1      -3.430  -0.827  26.037  0.00  0.00    -0.204 F 
ATOM      2  C   UNL     1      -3.624  -1.201  25.327  0.00  0.00    +0.145 A 
ATOM      3  C   UNL     1      -3.460  -2.003  25.225  0.00  0.00    +0.030 A 
ATOM      4  C   UNL     1      -3.654  -2.377  24.516  0.00  0.00    +0.002 A 
ATOM      5  C   UNL     1      -4.011  -1.948  23.908  0.00  0.00    +0.000 A 
ATOM      6  C   UNL     1      -4.174  -1.146  24.009  0.00  0.00    +0.007 A 
ATOM      7  C   UNL     1      -3.980  -0.773  24.719  0.00  0.00    +0.083 A 
ENDBRANCH   8   7
ENDBRANCH  13  11
TORSDOF 3
ENDMDL
MODEL 3
REMARK VINA RESULT:     -12.9      2.644      5.557
REMARK  Name = 
REMARK  3 active torsions:
REMARK  status: ('A' for Active; 'I' for Inactive)
REMARK    1  A    between atoms: C_7  and  C_8
REMARK    2  A    between atoms: C_11  and  C_13
REMARK    3  A    between atoms: C_18  and  C_20
REMARK                            x       y       z     vdW  Elec       q    Type
REMARK                         _______ _______ _______ _____ _____    ______ ____
ROOT
ATOM     13  C   UNL     1      -0.818   0.814  25.050  0.00  0.00    +0.100 C 
ATOM     14  C   UNL     1      -0.203   0.390  24.699  0.00  0.00    +0.033 C 
ATOM     15  C   UNL     1      -0.496  -0.350  24.482  0.00  0.00    +0.094 C 
ATOM     16  N   UNL     1      -1.291  -0.384  24.699  0.00  0.00    -0.276 N 
ATOM     17  C   UNL     1      -1.490   0.336  25.050  0.00  0.00    +0.103 C 
ATOM     18  C   UNL     1      -1.798  -1.024  24.584  0.00  0.00    +0.249 C 
ATOM     19  O   UNL     1      -1.519  -1.712  24.223  0.00  0.00    -0.270 OA
ENDROOT
BRANCH  18  20
ATOM     20  C   UNL     1      -2.584  -0.978  24.831  0.00  0.00    +0.054 A 
ATOM     21  C   UNL     1      -3.165  -0.710  24.309  0.00  0.00    +0.005 A 
ATOM     22  C   UNL     1      -3.951  -0.663  24.556  0.00  0.00    +0.000 A 
ATOM     23  C   UNL     1      -4.156  -0.884  25.325  0.00  0.00    +0.000 A 
ATOM     24  C   UNL     1      -3.575  -1.151  25.846  0.00  0.00    +0.000 A 
ATOM     25  C   UNL     1      -2.789  -1.198  25.600  0.00  0.00    +0.005 A 
ENDBRANCH  18  20
BRANCH  13  11
ATOM      8  C   UNL     1      -0.929   2.899  25.497  0.00  0.00    +0.252 A 
ATOM      9  N   UNL     1      -0.458   2.627  26.117  0.00  0.00    -0.107 NA
ATOM     10  N   UNL     1      -0.358   1.813  26.026  0.00  0.00    -0.111 NA
ATOM     11  C   UNL     1      -0.769   1.582  25.349  0.00  0.00    +0.228 A 
ATOM     12  O   UNL     1      -1.121   2.253  25.022  0.00  0.00    -0.419 OA
BRANCH   8   7
ATOM      1  F   UNL     1      -2.400   3.410  26.044  0.00  0.00    -0.204 F 
ATOM      2  C   UNL     1      -1.901   3.934  25.647  0.00  0.00    +0.145 A 
ATOM      3  C   UNL     1      -2.138   4.715  25.524  0.00  0.00    +0.030 A 
ATOM      4  C   UNL     1      -1.641   5.240  25.128  0.00  0.00    +0.002 A 
ATOM      5  C   UNL     1      -0.905   4.984  24.855  0.00  0.00    +0.000 A 
ATOM      6  C   UNL     1      -0.668   4.204  24.978  0.00  0.00    +0.007 A 
ATOM      7  C   UNL     1      -1.166   3.679  25.374  0.00  0.00    +0.083 A 
ENDBRANCH   8   7
ENDBRANCH  13  11
TORSDOF 3
ENDMDL
MODEL 4
REMARK VINA RESULT:     -12.6      2.272      2.801
REMARK  Name = 
REMARK  3 active torsions:
REMARK  status: ('A' for Active; 'I' for Inactive)
REMARK    1  A    between atoms: C_7  and  C_8
REMARK    2  A    between atoms: C_11  and  C_13
REMARK    3  A    between atoms: C_18  and  C_20
REMARK                            x       y       z     vdW  Elec       q    Type
REMARK                         _______ _______ _______ _____ _____    ______ ____
ROOT
ATOM     13  C   UNL     1      -1.004   1.256  25.125  0.00  0.00    +0.100 C 
ATOM     14  C   UNL     1      -0.269   1.476  24.819  0.00  0.00    +0.033 C 
ATOM     15  C   UNL     1      -0.275   2.293  24.703  0.00  0.00    +0.094 C 
ATOM     16  N   UNL     1      -1.013   2.578  24.936  0.00  0.00    -0.276 N 
ATOM     17  C   UNL     1      -1.463   1.937  25.197  0.00  0.00    +0.103 C 
ATOM     18  C   UNL     1      -1.258   3.366  24.913  0.00  0.00    +0.249 C 
ATOM     19  O   UNL     1      -0.744   3.949  24.637  0.00  0.00    -0.270 OA
ENDROOT
BRANCH  18  20
ATOM     20  C   UNL     1      -2.016   3.569  25.166  0.00  0.00    +0.054 A 
ATOM     21  C   UNL     1      -2.138   3.827  25.941  0.00  0.00    +0.005 A 
ATOM     22  C   UNL     1      -2.896   4.031  26.194  0.00  0.00    +0.000 A 
ATOM     23  C   UNL     1      -3.533   3.977  25.672  0.00  0.00    +0.000 A 
ATOM     24  C   UNL     1      -3.412   3.719  24.898  0.00  0.00    +0.000 A 
ATOM     25  C   UNL     1      -2.653   3.515  24.645  0.00  0.00    +0.005 A 
ENDBRANCH  18  20
BRANCH  13  11
ATOM      8  C   UNL     1      -1.874  -0.683  25.321  0.00  0.00    +0.252 A 
ATOM      9  N   UNL     1      -1.320  -0.694  25.932  0.00  0.00    -0.107 NA
ATOM     10  N   UNL     1      -0.926   0.031  25.934  0.00  0.00    -0.111 NA
ATOM     11  C   UNL     1      -1.237   0.490  25.323  0.00  0.00    +0.228 A 
ATOM     12  O   UNL     1      -1.823   0.049  24.945  0.00  0.00    -0.419 OA
BRANCH   8   7
ATOM      1  F   UNL     1      -1.355  -1.914  24.352  0.00  0.00    -0.204 F 
ATOM      2  C   UNL     1      -2.129  -1.911  24.638  0.00  0.00    +0.145 A 
ATOM      3  C   UNL     1      -2.644  -2.524  24.439  0.00  0.00    +0.030 A 
ATOM      4  C   UNL     1      -3.418  -2.523  24.724  0.00  0.00    +0.002 A 
ATOM      5  C   UNL     1      -3.677  -1.907  25.209  0.00  0.00    +0.000 A 
ATOM      6  C   UNL     1      -3.162  -1.294  25.408  0.00  0.00    +0.007 A 
ATOM      7  C   UNL     1      -2.388  -1.297  25.122  0.00  0.00    +0.083 A 
ENDBRANCH   8   7
ENDBRANCH  13  11
TORSDOF 3
ENDMDL
