MODEL 1
REMARK VINA RESULT:     -10.7      0.000      0.000
REMARK  Name = 
REMARK  5 active torsions:
REMARK  status: ('A' for Active; 'I' for Inactive)
REMARK    1  A    between atoms: N_2  and  C_3
REMARK    2  A    between atoms: C_6  and  C_9
REMARK    3  A    between atoms: C_12  and  C_14
REMARK    4  A    between atoms: N_18  and  C_19
REMARK    5  A    between atoms: C_19  and  C_20
REMARK                            x       y       z     vdW  Elec       q    Type
REMARK                         _______ _______ _______ _____ _____    ______ ____
ROOT
ATOM     14  C   UNL     1      -4.816   1.686  24.919  0.00  0.00    +0.138 C 
ATOM     15  C   UNL     1      -5.547   1.812  25.279  0.00  0.00    +0.027 C 
ATOM     16  C   UNL     1      -5.859   1.077  25.487  0.00  0.00    +0.019 C 
ATOM     17  C   UNL     1      -5.321   0.497  25.256  0.00  0.00    +0.073 C 
ATOM     18  N   UNL     1      -4.675   0.874  24.905  0.00  0.00    -0.263 NA
ENDROOT
BRANCH  14  12
ATOM      9  C   UNL     1      -3.321   3.158  24.523  0.00  0.00    +0.205 A 
ATOM     10  N   UNL     1      -3.757   3.181  23.823  0.00  0.00    -0.056 NA
ATOM     11  O   UNL     1      -4.371   2.633  23.886  0.00  0.00    -0.336 OA
ATOM     12  C   UNL     1      -4.313   2.271  24.625  0.00  0.00    +0.251 A 
ATOM     13  N   UNL     1      -3.664   2.595  25.019  0.00  0.00    -0.190 NA
BRANCH   9   6
ATOM      3  C   UNL     1      -1.333   4.536  25.044  0.00  0.00    +0.148 A 
ATOM      4  C   UNL     1      -2.078   4.771  25.307  0.00  0.00    +0.036 A 
ATOM      5  C   UNL     1      -2.741   4.312  25.134  0.00  0.00    +0.008 A 
ATOM      6  C   UNL     1      -2.658   3.617  24.697  0.00  0.00    +0.058 A 
ATOM      7  C   UNL     1      -1.913   3.382  24.433  0.00  0.00    +0.103 A 
ATOM      8  N   UNL     1      -1.250   3.841  24.607  0.00  0.00    -0.228 NA
BRANCH   3   2
ATOM      1  C   UNL     1      -0.317   5.450  24.626  0.00  0.00    +0.137 C 
ATOM      2  N   UNL     1      -0.670   4.995  25.217  0.00  0.00    -0.218 NA
ENDBRANCH   3   2
ENDBRANCH   9   6
ENDBRANCH  14  12
BRANCH  18  19
ATOM     19  C   UNL     1      -4.007   0.502  24.595  0.00  0.00    +0.100 C 
BRANCH  19  20
ATOM     20  C   UNL     1      -3.887  -0.305  24.721  0.00  0.00    -0.003 A 
ATOM     21  C   UNL     1      -3.555  -0.567  25.429  0.00  0.00    +0.000 A 
ATOM     22  C   UNL     1      -3.435  -1.373  25.554  0.00  0.00    +0.040 A 
ATOM     23  C   UNL     1      -3.648  -1.918  24.972  0.00  0.00    +0.176 A 
ATOM     24  O   UNL     1      -3.596  -2.740  24.940  0.00  0.00    -0.435 OA
ATOM     25  C   UNL     1      -3.897  -2.986  24.212  0.00  0.00    +0.429 C 
ATOM     26  O   UNL     1      -4.134  -2.316  23.795  0.00  0.00    -0.435 OA
ATOM     27  C   UNL     1      -3.980  -1.656  24.264  0.00  0.00    +0.176 A 
ATOM     28  C   UNL     1      -4.100  -0.849  24.138  0.00  0.00    +0.037 A 
ENDBRANCH  19  20
ENDBRANCH  18  19
TORSDOF 5
ENDMDL
MODEL 2
REMARK VINA RESULT:     -10.7      1.664      5.297
REMARK  Name = 
REMARK  5 active torsions:
REMARK  status: ('A' for Active; 'I' for Inactive)
REMARK    1  A    between atoms: N_2  and  C_3
REMARK    2  A    between atoms: C_6  and  C_9
REMARK    3  A    between atoms: C_12  and  C_14
REMARK    4  A    between atoms: N_18  and  C_19
REMARK    5  A    between atoms: C_19  and  C_20
REMARK                            x       y       z     vdW  Elec       q    Type
REMARK                         _______ _______ _______ _____ _____    ______ ____
ROOT
ATOM     14  C   UNL     1      -4.360   2.282  24.450  0.00  0.00    +0.138 C 
ATOM     15  C   UNL     1      -4.862   2.602  23.879  0.00  0.00    +0.027 C 
ATOM     16  C   UNL     1      -4.600   3.366  23.709  0.00  0.00    +0.019 C 
ATOM     17  C   UNL     1      -3.937   3.518  24.174  0.00  0.00    +0.073 C 
ATOM     18  N   UNL     1      -3.788   2.848  24.632  0.00  0.00    -0.263 NA
ENDROOT
BRANCH  14  12
ATOM      9  C   UNL     1      -4.268   0.219  24.992  0.00  0.00    +0.205 A 
ATOM     10  N   UNL     1      -4.754   0.519  25.588  0.00  0.00    -0.056 NA
ATOM     11  O   UNL     1      -4.847   1.328  25.457  0.00  0.00    -0.336 OA
ATOM     12  C   UNL     1      -4.420   1.528  24.781  0.00  0.00    +0.251 A 
ATOM     13  N   UNL     1      -4.061   0.843  24.493  0.00  0.00    -0.190 NA
BRANCH   9   6
ATOM      3  C   UNL     1      -3.557  -2.138  24.743  0.00  0.00    +0.148 A 
ATOM      4  C   UNL     1      -3.979  -1.769  24.139  0.00  0.00    +0.036 A 
ATOM      5  C   UNL     1      -4.216  -0.983  24.221  0.00  0.00    +0.008 A 
ATOM      6  C   UNL     1      -4.031  -0.567  24.909  0.00  0.00    +0.058 A 
ATOM      7  C   UNL     1      -3.609  -0.936  25.514  0.00  0.00    +0.103 A 
ATOM      8  N   UNL     1      -3.371  -1.721  25.431  0.00  0.00    -0.228 NA
BRANCH   3   2
ATOM      1  C   UNL     1      -2.555  -3.100  24.406  0.00  0.00    +0.137 C 
ATOM      2  N   UNL     1      -3.320  -2.924  24.661  0.00  0.00    -0.218 NA
ENDBRANCH   3   2
ENDBRANCH   9   6
ENDBRANCH  14  12
BRANCH  18  19
ATOM     19  C   UNL     1      -3.175   2.759  25.177  0.00  0.00    +0.100 C 
BRANCH  19  20
ATOM     20  C   UNL     1      -2.562   3.312  25.203  0.00  0.00    -0.003 A 
ATOM     21  C   UNL     1      -2.631   3.983  25.679  0.00  0.00    +0.000 A 
ATOM     22  C   UNL     1      -2.020   4.535  25.704  0.00  0.00    +0.040 A 
ATOM     23  C   UNL     1      -1.338   4.418  25.254  0.00  0.00    +0.176 A 
ATOM     24  O   UNL     1      -0.650   4.863  25.167  0.00  0.00    -0.435 OA
ATOM     25  C   UNL     1      -0.155   4.468  24.638  0.00  0.00    +0.429 C 
ATOM     26  O   UNL     1      -0.539   3.779  24.397  0.00  0.00    -0.435 OA
ATOM     27  C   UNL     1      -1.269   3.747  24.778  0.00  0.00    +0.176 A 
ATOM     28  C   UNL     1      -1.882   3.194  24.752  0.00  0.00    +0.037 A 
ENDBRANCH  19  20
ENDBRANCH  18  19
TORSDOF 5
ENDMDL
MODEL 3
REMARK VINA RESULT:     -10.2      2.157      2.926
REMARK  Name = 
REMARK  5 active torsions:
REMARK  status: ('A' for Active; 'I' for Inactive)
REMARK    1  A    between atoms: N_2  and  C_3
REMARK    2  A    between atoms: C_6  and  C_9
REMARK    3  A    between atoms: C_12  and  C_14
REMARK    4  A    between atoms: N_18  and  C_19
REMARK    5  A    between atoms: C_19  and  C_20
REMARK                            x       y       z     vdW  Elec       q    Type
REMARK                         _______ _______ _______ _____ _____    ______ ____
ROOT
ATOM     14  C   UNL     1      -0.577   0.179  24.652  0.00  0.00    +0.138 C 
ATOM     15  C   UNL     1       0.046   0.003  24.141  0.00  0.00    +0.027 C 
ATOM     16  C   UNL     1      -0.090  -0.745  23.820  0.00  0.00    +0.019 C 
ATOM     17  C   UNL     1      -0.797  -1.032  24.133  0.00  0.00    +0.073 C 
ATOM     18  N   UNL     1      -1.098  -0.460  24.647  0.00  0.00    -0.263 NA
ENDROOT
BRANCH  14  12
ATOM      9  C   UNL     1      -0.927   2.137  25.428  0.00  0.00    +0.205 A 
ATOM     10  N   UNL     1      -0.667   1.741  26.104  0.00  0.00    -0.056 NA
ATOM     11  O   UNL     1      -0.504   0.959  25.895  0.00  0.00    -0.336 OA
ATOM     12  C   UNL     1      -0.663   0.872  25.091  0.00  0.00    +0.251 A 
ATOM     13  N   UNL     1      -0.925   1.600  24.802  0.00  0.00    -0.190 NA
BRANCH   9   6
ATOM      3  C   UNL     1      -1.594   4.516  25.302  0.00  0.00    +0.148 A 
ATOM      4  C   UNL     1      -0.870   4.274  24.990  0.00  0.00    +0.036 A 
ATOM      5  C   UNL     1      -0.647   3.481  25.032  0.00  0.00    +0.008 A 
ATOM      6  C   UNL     1      -1.150   2.930  25.386  0.00  0.00    +0.058 A 
ATOM      7  C   UNL     1      -1.874   3.172  25.697  0.00  0.00    +0.103 A 
ATOM      8  N   UNL     1      -2.097   3.965  25.655  0.00  0.00    -0.228 NA
BRANCH   3   2
ATOM      1  C   UNL     1      -1.334   5.854  24.871  0.00  0.00    +0.137 C 
ATOM      2  N   UNL     1      -1.817   5.309  25.260  0.00  0.00    -0.218 NA
ENDBRANCH   3   2
ENDBRANCH   9   6
ENDBRANCH  14  12
BRANCH  18  19
ATOM     19  C   UNL     1      -1.798  -0.519  25.080  0.00  0.00    +0.100 C 
BRANCH  19  20
ATOM     20  C   UNL     1      -2.354  -1.099  24.891  0.00  0.00    -0.003 A 
ATOM     21  C   UNL     1      -2.279  -1.860  25.202  0.00  0.00    +0.000 A 
ATOM     22  C   UNL     1      -2.834  -2.439  25.013  0.00  0.00    +0.040 A 
ATOM     23  C   UNL     1      -3.465  -2.259  24.512  0.00  0.00    +0.176 A 
ATOM     24  O   UNL     1      -4.092  -2.712  24.229  0.00  0.00    -0.435 OA
ATOM     25  C   UNL     1      -4.555  -2.233  23.743  0.00  0.00    +0.429 C 
ATOM     26  O   UNL     1      -4.213  -1.483  23.725  0.00  0.00    -0.435 OA
ATOM     27  C   UNL     1      -3.539  -1.499  24.200  0.00  0.00    +0.176 A 
ATOM     28  C   UNL     1      -2.983  -0.918  24.390  0.00  0.00    +0.037 A 
ENDBRANCH  19  20
ENDBRANCH  18  19
TORSDOF 5
ENDMDL
MODEL 4
REMARK VINA RESULT:      -9.9      2.225      5.306
REMARK  Name = 
REMARK  5 active torsions:
REMARK  status: ('A' for Active; 'I' for Inactive)
REMARK    1  A    between atoms: N_2  and  C_3
REMARK    2  A    between atoms: C_6  and  C_9
REMARK    3  A    between atoms: C_12  and  C_14
REMARK    4  A    between atoms: N_18  and  C_19
REMARK    5  A    between atoms: C_19  and  C_20
REMARK                            x       y       z     vdW  Elec       q    Type
REMARK                         _______ _______ _______ _____ _____    ______ ____
ROOT
ATOM     14  C   UNL     1      -1.108   1.926  25.338  0.00  0.00    +0.138 C 
ATOM     15  C   UNL     1      -0.587   2.182  25.924  0.00  0.00    +0.027 C 
ATOM     16  C   UNL     1      -0.805   2.948  26.140  0.00  0.00    +0.019 C 
ATOM     17  C   UNL     1      -1.459   3.165  25.689  0.00  0.00    +0.073 C 
ATOM     18  N   UNL     1      -1.647   2.532  25.192  0.00  0.00    -0.263 NA
ENDROOT
BRANCH  14  12
ATOM      9  C   UNL     1      -1.370  -0.074  24.635  0.00  0.00    +0.205 A 
ATOM     10  N   UNL     1      -0.767   0.192  24.139  0.00  0.00    -0.056 NA
ATOM     11  O   UNL     1      -0.595   0.974  24.342  0.00  0.00    -0.336 OA
ATOM     12  C   UNL     1      -1.092   1.190  24.964  0.00  0.00    +0.251 A 
ATOM     13  N   UNL     1      -1.572   0.543  25.145  0.00  0.00    -0.190 NA
BRANCH   9   6
ATOM      3  C   UNL     1      -2.397  -2.324  24.600  0.00  0.00    +0.148 A 
ATOM      4  C   UNL     1      -2.874  -1.653  24.561  0.00  0.00    +0.036 A 
ATOM      5  C   UNL     1      -2.532  -0.903  24.572  0.00  0.00    +0.008 A 
ATOM      6  C   UNL     1      -1.712  -0.824  24.624  0.00  0.00    +0.058 A 
ATOM      7  C   UNL     1      -1.235  -1.495  24.663  0.00  0.00    +0.103 A 
ATOM      8  N   UNL     1      -1.577  -2.246  24.651  0.00  0.00    -0.228 NA
BRANCH   3   2
ATOM      1  C   UNL     1      -3.557  -3.155  24.519  0.00  0.00    +0.137 C 
ATOM      2  N   UNL     1      -2.739  -3.075  24.588  0.00  0.00    -0.218 NA
ENDBRANCH   3   2
ENDBRANCH   9   6
ENDBRANCH  14  12
BRANCH  18  19
ATOM     19  C   UNL     1      -2.265   2.511  24.647  0.00  0.00    +0.100 C 
BRANCH  19  20
ATOM     20  C   UNL     1      -2.963   2.927  24.797  0.00  0.00    -0.003 A 
ATOM     21  C   UNL     1      -3.035   3.712  24.555  0.00  0.00    +0.000 A 
ATOM     22  C   UNL     1      -3.732   4.127  24.705  0.00  0.00    +0.040 A 
ATOM     23  C   UNL     1      -4.357   3.757  25.096  0.00  0.00    +0.176 A 
ATOM     24  O   UNL     1      -5.104   4.024  25.319  0.00  0.00    -0.435 OA
ATOM     25  C   UNL     1      -5.494   3.404  25.698  0.00  0.00    +0.429 C 
ATOM     26  O   UNL     1      -4.987   2.754  25.710  0.00  0.00    -0.435 OA
ATOM     27  C   UNL     1      -4.285   2.972  25.338  0.00  0.00    +0.176 A 
ATOM     28  C   UNL     1      -3.587   2.556  25.188  0.00  0.00    +0.037 A 
ENDBRANCH  19  20
ENDBRANCH  18  19
TORSDOF 5
ENDMDL
MODEL 5
REMARK VINA RESULT:      -9.9      2.300      5.717
REMARK  Name = 
REMARK  5 active torsions:
REMARK  status: ('A' for Active; 'I' for Inactive)
REMARK    1  A    between atoms: N_2  and  C_3
REMARK    2  A    between atoms: C_6  and  C_9
REMARK    3  A    between atoms: C_12  and  C_14
REMARK    4  A    between atoms: N_18  and  C_19
REMARK    5  A    between atoms: C_19  and  C_20
REMARK                            x       y       z     vdW  Elec       q    Type
REMARK                         _______ _______ _______ _____ _____    ______ ____
ROOT
ATOM     14  C   UNL     1      -0.486   1.142  24.890  0.00  0.00    +0.138 C 
ATOM     15  C   UNL     1       0.167   1.210  24.391  0.00  0.00    +0.027 C 
ATOM     16  C   UNL     1       0.317   2.013  24.276  0.00  0.00    +0.019 C 
ATOM     17  C   UNL     1      -0.242   2.441  24.704  0.00  0.00    +0.073 C 
ATOM     18  N   UNL     1      -0.740   1.902  25.083  0.00  0.00    -0.263 NA
ENDROOT
BRANCH  14  12
ATOM      9  C   UNL     1      -1.573  -0.670  25.202  0.00  0.00    +0.205 A 
ATOM     10  N   UNL     1      -1.130  -0.628  25.897  0.00  0.00    -0.056 NA
ATOM     11  O   UNL     1      -0.669   0.056  25.864  0.00  0.00    -0.336 OA
ATOM     12  C   UNL     1      -0.827   0.436  25.150  0.00  0.00    +0.251 A 
ATOM     13  N   UNL     1      -1.386  -0.012  24.740  0.00  0.00    -0.190 NA
BRANCH   9   6
ATOM      3  C   UNL     1      -3.180  -2.455  24.609  0.00  0.00    +0.148 A 
ATOM      4  C   UNL     1      -3.441  -1.780  25.004  0.00  0.00    +0.036 A 
ATOM      5  C   UNL     1      -2.905  -1.185  25.202  0.00  0.00    +0.008 A 
ATOM      6  C   UNL     1      -2.108  -1.265  25.004  0.00  0.00    +0.058 A 
ATOM      7  C   UNL     1      -1.848  -1.940  24.608  0.00  0.00    +0.103 A 
ATOM      8  N   UNL     1      -2.383  -2.535  24.410  0.00  0.00    -0.228 NA
BRANCH   3   2
ATOM      1  C   UNL     1      -4.279  -2.920  23.822  0.00  0.00    +0.137 C 
ATOM      2  N   UNL     1      -3.716  -3.050  24.411  0.00  0.00    -0.218 NA
ENDBRANCH   3   2
ENDBRANCH   9   6
ENDBRANCH  14  12
BRANCH  18  19
ATOM     19  C   UNL     1      -1.378   2.092  25.570  0.00  0.00    +0.100 C 
BRANCH  19  20
ATOM     20  C   UNL     1      -1.841   2.756  25.405  0.00  0.00    -0.003 A 
ATOM     21  C   UNL     1      -1.642   3.488  25.729  0.00  0.00    +0.000 A 
ATOM     22  C   UNL     1      -2.104   4.150  25.564  0.00  0.00    +0.040 A 
ATOM     23  C   UNL     1      -2.766   4.081  25.075  0.00  0.00    +0.176 A 
ATOM     24  O   UNL     1      -3.321   4.632  24.817  0.00  0.00    -0.435 OA
ATOM     25  C   UNL     1      -3.863   4.241  24.334  0.00  0.00    +0.429 C 
ATOM     26  O   UNL     1      -3.643   3.448  24.294  0.00  0.00    -0.435 OA
ATOM     27  C   UNL     1      -2.965   3.349  24.752  0.00  0.00    +0.176 A 
ATOM     28  C   UNL     1      -2.502   2.685  24.917  0.00  0.00    +0.037 A 
ENDBRANCH  19  20
ENDBRANCH  18  19
TORSDOF 5
ENDMDL
MODEL 6
REMARK VINA RESULT:      -9.7      2.900      4.358
REMARK  Name = 
REMARK  5 active torsions:
REMARK  status: ('A' for Active; 'I' for Inactive)
REMARK    1  A    between atoms: N_2  and  C_3
REMARK    2  A    between atoms: C_6  and  C_9
REMARK    3  A    between atoms: C_12  and  C_14
REMARK    4  A    between atoms: N_18  and  C_19
REMARK    5  A    between atoms: C_19  and  C_20
REMARK                            x       y       z     vdW  Elec       q    Type
REMARK                         _______ _______ _______ _____ _____    ______ ____
ROOT
ATOM     14  C   UNL     1      -2.736  -0.351  25.312  0.00  0.00    +0.138 C 
ATOM     15  C   UNL     1      -2.975  -1.050  25.678  0.00  0.00    +0.027 C 
ATOM     16  C   UNL     1      -3.800  -1.061  25.693  0.00  0.00    +0.019 C 
ATOM     17  C   UNL     1      -4.071  -0.368  25.338  0.00  0.00    +0.073 C 
ATOM     18  N   UNL     1      -3.413   0.071  25.102  0.00  0.00    -0.263 NA
ENDROOT
BRANCH  14  12
ATOM      9  C   UNL     1      -0.769   0.079  24.601  0.00  0.00    +0.205 A 
ATOM     10  N   UNL     1      -0.745   0.418  25.353  0.00  0.00    -0.056 NA
ATOM     11  O   UNL     1      -1.479   0.298  25.711  0.00  0.00    -0.336 OA
ATOM     12  C   UNL     1      -1.956  -0.115  25.180  0.00  0.00    +0.251 A 
ATOM     13  N   UNL     1      -1.518  -0.250  24.494  0.00  0.00    -0.190 NA
BRANCH   9   6
ATOM      3  C   UNL     1       1.078   0.058  22.955  0.00  0.00    +0.148 A 
ATOM      4  C   UNL     1       0.767   0.775  23.216  0.00  0.00    +0.036 A 
ATOM      5  C   UNL     1       0.151   0.783  23.765  0.00  0.00    +0.008 A 
ATOM      6  C   UNL     1      -0.153   0.072  24.052  0.00  0.00    +0.058 A 
ATOM      7  C   UNL     1       0.158  -0.646  23.792  0.00  0.00    +0.103 A 
ATOM      8  N   UNL     1       0.774  -0.654  23.243  0.00  0.00    -0.228 NA
BRANCH   3   2
ATOM      1  C   UNL     1       2.477   0.109  22.663  0.00  0.00    +0.137 C 
ATOM      2  N   UNL     1       1.694   0.050  22.407  0.00  0.00    -0.218 NA
ENDBRANCH   3   2
ENDBRANCH   9   6
ENDBRANCH  14  12
BRANCH  18  19
ATOM     19  C   UNL     1      -3.429   0.804  24.723  0.00  0.00    +0.100 C 
BRANCH  19  20
ATOM     20  C   UNL     1      -4.061   1.320  24.849  0.00  0.00    -0.003 A 
ATOM     21  C   UNL     1      -4.815   1.122  24.578  0.00  0.00    +0.000 A 
ATOM     22  C   UNL     1      -5.446   1.638  24.704  0.00  0.00    +0.040 A 
ATOM     23  C   UNL     1      -5.324   2.351  25.100  0.00  0.00    +0.176 A 
ATOM     24  O   UNL     1      -5.836   2.965  25.304  0.00  0.00    -0.435 OA
ATOM     25  C   UNL     1      -5.399   3.542  25.699  0.00  0.00    +0.429 C 
ATOM     26  O   UNL     1      -4.616   3.284  25.741  0.00  0.00    -0.435 OA
ATOM     27  C   UNL     1      -4.570   2.549  25.371  0.00  0.00    +0.176 A 
ATOM     28  C   UNL     1      -3.938   2.033  25.245  0.00  0.00    +0.037 A 
ENDBRANCH  19  20
ENDBRANCH  18  19
TORSDOF 5
ENDMDL
MODEL 7
REMARK VINA RESULT:      -9.6      3.044      4.827
REMARK  Name = 
REMARK  5 active torsions:
REMARK  status: ('A' for Active; 'I' for Inactive)
REMARK    1  A    between atoms: N_2  and  C_3
REMARK    2  A    between atoms: C_6  and  C_9
REMARK    3  A    between atoms: C_12  and  C_14
REMARK    4  A    between atoms: N_18  and  C_19
REMARK    5  A    between atoms: C_19  and  C_20
REMARK                            x       y       z     vdW  Elec       q    Type
REMARK                         _______ _______ _______ _____ _____    ______ ____
ROOT
ATOM     14  C   UNL     1      -1.136   3.779  25.169  0.00  0.00    +0.138 C 
ATOM     15  C   UNL     1      -0.920   4.569  25.074  0.00  0.00    +0.027 C 
ATOM     16  C   UNL     1      -1.600   5.030  25.141  0.00  0.00    +0.019 C 
ATOM     17  C   UNL     1      -2.238   4.526  25.278  0.00  0.00    +0.073 C 
ATOM     18  N   UNL     1      -1.951   3.752  25.296  0.00  0.00    -0.263 NA
ENDROOT
BRANCH  14  12
ATOM      9  C   UNL     1       0.061   2.074  24.704  0.00  0.00    +0.205 A 
ATOM     10  N   UNL     1       0.248   2.188  25.500  0.00  0.00    -0.056 NA
ATOM     11  O   UNL     1      -0.178   2.841  25.771  0.00  0.00    -0.336 OA
ATOM     12  C   UNL     1      -0.628   3.130  25.143  0.00  0.00    +0.251 A 
ATOM     13  N   UNL     1      -0.480   2.656  24.483  0.00  0.00    -0.190 NA
BRANCH   9   6
ATOM      3  C   UNL     1       0.965   0.297  23.239  0.00  0.00    +0.148 A 
ATOM      4  C   UNL     1       0.218   0.212  23.576  0.00  0.00    +0.036 A 
ATOM      5  C   UNL     1      -0.084   0.804  24.065  0.00  0.00    +0.008 A 
ATOM      6  C   UNL     1       0.363   1.482  24.216  0.00  0.00    +0.058 A 
ATOM      7  C   UNL     1       1.110   1.566  23.878  0.00  0.00    +0.103 A 
ATOM      8  N   UNL     1       1.412   0.974  23.390  0.00  0.00    -0.228 NA
BRANCH   3   2
ATOM      1  C   UNL     1       1.981  -0.180  22.354  0.00  0.00    +0.137 C 
ATOM      2  N   UNL     1       1.267  -0.295  22.750  0.00  0.00    -0.218 NA
ENDBRANCH   3   2
ENDBRANCH   9   6
ENDBRANCH  14  12
BRANCH  18  19
ATOM     19  C   UNL     1      -2.400   3.071  25.418  0.00  0.00    +0.100 C 
BRANCH  19  20
ATOM     20  C   UNL     1      -3.212   3.079  25.266  0.00  0.00    -0.003 A 
ATOM     21  C   UNL     1      -3.489   2.970  24.497  0.00  0.00    +0.000 A 
ATOM     22  C   UNL     1      -4.300   2.978  24.346  0.00  0.00    +0.040 A 
ATOM     23  C   UNL     1      -4.834   3.095  24.964  0.00  0.00    +0.176 A 
ATOM     24  O   UNL     1      -5.657   3.130  24.983  0.00  0.00    -0.435 OA
ATOM     25  C   UNL     1      -5.889   3.261  25.764  0.00  0.00    +0.429 C 
ATOM     26  O   UNL     1      -5.209   3.307  26.227  0.00  0.00    -0.435 OA
ATOM     27  C   UNL     1      -4.557   3.204  25.733  0.00  0.00    +0.176 A 
ATOM     28  C   UNL     1      -3.745   3.196  25.885  0.00  0.00    +0.037 A 
ENDBRANCH  19  20
ENDBRANCH  18  19
TORSDOF 5
ENDMDL
MODEL 8
REMARK VINA RESULT:      -9.4      2.297      3.990
REMARK  Name = 
REMARK  5 active torsions:
REMARK  status: ('A' for Active; 'I' for Inactive)
REMARK    1  A    between atoms: N_2  and  C_3
REMARK    2  A    between atoms: C_6  and  C_9
REMARK    3  A    between atoms: C_12  and  C_14
REMARK    4  A    between atoms: N_18  and  C_19
REMARK    5  A    between atoms: C_19  and  C_20
REMARK                            x       y       z     vdW  Elec       q    Type
REMARK                         _______ _______ _______ _____ _____    ______ ____
ROOT
ATOM     14  C   UNL     1      -1.025   2.793  25.347  0.00  0.00    +0.138 C 
ATOM     15  C   UNL     1      -0.543   3.125  25.928  0.00  0.00    +0.027 C 
ATOM     16  C   UNL     1       0.157   2.688  25.958  0.00  0.00    +0.019 C 
ATOM     17  C   UNL     1       0.107   2.087  25.396  0.00  0.00    +0.073 C 
ATOM     18  N   UNL     1      -0.624   2.152  25.018  0.00  0.00    -0.263 NA
ENDROOT
BRANCH  14  12
ATOM      9  C   UNL     1      -3.104   3.150  25.014  0.00  0.00    +0.205 A 
ATOM     10  N   UNL     1      -2.766   3.773  24.592  0.00  0.00    -0.056 NA
ATOM     11  O   UNL     1      -1.945   3.715  24.666  0.00  0.00    -0.336 OA
ATOM     12  C   UNL     1      -1.777   3.056  25.133  0.00  0.00    +0.251 A 
ATOM     13  N   UNL     1      -2.493   2.707  25.348  0.00  0.00    -0.190 NA
BRANCH   9   6
ATOM      3  C   UNL     1      -5.525   2.689  25.235  0.00  0.00    +0.148 A 
ATOM      4  C   UNL     1      -5.080   2.291  24.667  0.00  0.00    +0.036 A 
ATOM      5  C   UNL     1      -4.273   2.444  24.593  0.00  0.00    +0.008 A 
ATOM      6  C   UNL     1      -3.911   2.996  25.088  0.00  0.00    +0.058 A 
ATOM      7  C   UNL     1      -4.356   3.394  25.657  0.00  0.00    +0.103 A 
ATOM      8  N   UNL     1      -5.163   3.241  25.731  0.00  0.00    -0.228 NA
BRANCH   3   2
ATOM      1  C   UNL     1      -6.608   1.758  25.295  0.00  0.00    +0.137 C 
ATOM      2  N   UNL     1      -6.332   2.536  25.309  0.00  0.00    -0.218 NA
ENDBRANCH   3   2
ENDBRANCH   9   6
ENDBRANCH  14  12
BRANCH  18  19
ATOM     19  C   UNL     1      -0.904   1.661  24.417  0.00  0.00    +0.100 C 
BRANCH  19  20
ATOM     20  C   UNL     1      -0.668   0.871  24.386  0.00  0.00    -0.003 A 
ATOM     21  C   UNL     1      -0.087   0.634  23.850  0.00  0.00    +0.000 A 
ATOM     22  C   UNL     1       0.148  -0.155  23.819  0.00  0.00    +0.040 A 
ATOM     23  C   UNL     1      -0.196  -0.709  24.323  0.00  0.00    +0.176 A 
ATOM     24  O   UNL     1      -0.078  -1.519  24.418  0.00  0.00    -0.435 OA
ATOM     25  C   UNL     1      -0.584  -1.785  25.012  0.00  0.00    +0.429 C 
ATOM     26  O   UNL     1      -1.017  -1.138  25.285  0.00  0.00    -0.435 OA
ATOM     27  C   UNL     1      -0.777  -0.473  24.859  0.00  0.00    +0.176 A 
ATOM     28  C   UNL     1      -1.014   0.317  24.891  0.00  0.00    +0.037 A 
ENDBRANCH  19  20
ENDBRANCH  18  19
TORSDOF 5
ENDMDL
MODEL 9
REMARK VINA RESULT:      -7.9     16.475     19.270
REMARK  Name = 
REMARK  5 active torsions:
REMARK  status: ('A' for Active; 'I' for Inactive)
REMARK    1  A    between atoms: N_2  and  C_3
REMARK    2  A    between atoms: C_6  and  C_9
REMARK    3  A    between atoms: C_12  and  C_14
REMARK    4  A    between atoms: N_18  and  C_19
REMARK    5  A    between atoms: C_19  and  C_20
REMARK                            x       y       z     vdW  Elec       q    Type
REMARK                         _______ _______ _______ _____ _____    ______ ____
ROOT
ATOM     14  C   UNL     1      13.405   8.118  18.128  0.00  0.00    +0.138 C 
ATOM     15  C   UNL     1      13.476   8.496  17.399  0.00  0.00    +0.027 C 
ATOM     16  C   UNL     1      14.269   8.470  17.174  0.00  0.00    +0.019 C 
ATOM     17  C   UNL     1      14.688   8.075  17.763  0.00  0.00    +0.073 C 
ATOM     18  N   UNL     1      14.154   7.857  18.353  0.00  0.00    -0.263 NA
ENDROOT
BRANCH  14  12
ATOM      9  C   UNL     1      11.800   8.061  19.536  0.00  0.00    +0.205 A 
ATOM     10  N   UNL     1      11.465   7.662  18.896  0.00  0.00    -0.056 NA
ATOM     11  O   UNL     1      12.026   7.635  18.290  0.00  0.00    -0.336 OA
ATOM     12  C   UNL     1      12.707   8.017  18.556  0.00  0.00    +0.251 A 
ATOM     13  N   UNL     1      12.568   8.280  19.326  0.00  0.00    -0.190 NA
BRANCH   9   6
ATOM      3  C   UNL     1      10.697   8.521  21.702  0.00  0.00    +0.148 A 
ATOM      4  C   UNL     1      10.696   9.094  21.109  0.00  0.00    +0.036 A 
ATOM      5  C   UNL     1      11.063   8.941  20.387  0.00  0.00    +0.008 A 
ATOM      6  C   UNL     1      11.433   8.214  20.258  0.00  0.00    +0.058 A 
ATOM      7  C   UNL     1      11.435   7.641  20.851  0.00  0.00    +0.103 A 
ATOM      8  N   UNL     1      11.067   7.794  21.573  0.00  0.00    -0.228 NA
BRANCH   3   2
ATOM      1  C   UNL     1      10.785   8.837  23.094  0.00  0.00    +0.137 C 
ATOM      2  N   UNL     1      10.330   8.674  22.425  0.00  0.00    -0.218 NA
ENDBRANCH   3   2
ENDBRANCH   9   6
ENDBRANCH  14  12
BRANCH  18  19
ATOM     19  C   UNL     1      14.337   7.449  19.047  0.00  0.00    +0.100 C 
BRANCH  19  20
ATOM     20  C   UNL     1      15.114   7.211  19.193  0.00  0.00    -0.003 A 
ATOM     21  C   UNL     1      15.583   7.634  19.723  0.00  0.00    +0.000 A 
ATOM     22  C   UNL     1      16.359   7.395  19.868  0.00  0.00    +0.040 A 
ATOM     23  C   UNL     1      16.667   6.733  19.484  0.00  0.00    +0.176 A 
ATOM     24  O   UNL     1      17.405   6.370  19.516  0.00  0.00    -0.435 OA
ATOM     25  C   UNL     1      17.394   5.722  19.005  0.00  0.00    +0.429 C 
ATOM     26  O   UNL     1      16.647   5.685  18.658  0.00  0.00    -0.435 OA
ATOM     27  C   UNL     1      16.197   6.310  18.953  0.00  0.00    +0.176 A 
ATOM     28  C   UNL     1      15.421   6.549  18.807  0.00  0.00    +0.037 A 
ENDBRANCH  19  20
ENDBRANCH  18  19
TORSDOF 5
ENDMDL
MODEL 10
REMARK VINA RESULT:      -7.6     16.585     18.849
REMARK  Name = 
REMARK  5 active torsions:
REMARK  status: ('A' for Active; 'I' for Inactive)
REMARK    1  A    between atoms: N_2  and  C_3
REMARK    2  A    between atoms: C_6  and  C_9
REMARK    3  A    between atoms: C_12  and  C_14
REMARK    4  A    between atoms: N_18  and  C_19
REMARK    5  A    between atoms: C_19  and  C_20
REMARK                            x       y       z     vdW  Elec       q    Type
REMARK                         _______ _______ _______ _____ _____    ______ ____
ROOT
ATOM     14  C   UNL     1      12.427   7.230  21.150  0.00  0.00    +0.138 C 
ATOM     15  C   UNL     1      11.929   6.765  21.613  0.00  0.00    +0.027 C 
ATOM     16  C   UNL     1      11.154   6.887  21.357  0.00  0.00    +0.019 C 
ATOM     17  C   UNL     1      11.173   7.427  20.735  0.00  0.00    +0.073 C 
ATOM     18  N   UNL     1      11.961   7.640  20.606  0.00  0.00    -0.263 NA
ENDROOT
BRANCH  14  12
ATOM      9  C   UNL     1      14.553   7.106  20.990  0.00  0.00    +0.205 A 
ATOM     10  N   UNL     1      14.471   7.594  21.650  0.00  0.00    -0.056 NA
ATOM     11  O   UNL     1      13.664   7.700  21.790  0.00  0.00    -0.336 OA
ATOM     12  C   UNL     1      13.248   7.277  21.217  0.00  0.00    +0.251 A 
ATOM     13  N   UNL     1      13.797   6.910  20.722  0.00  0.00    -0.190 NA
BRANCH   9   6
ATOM      3  C   UNL     1      16.689   6.361  19.988  0.00  0.00    +0.148 A 
ATOM      4  C   UNL     1      16.044   6.532  19.504  0.00  0.00    +0.036 A 
ATOM      5  C   UNL     1      15.332   6.780  19.837  0.00  0.00    +0.008 A 
ATOM      6  C   UNL     1      15.265   6.858  20.656  0.00  0.00    +0.058 A 
ATOM      7  C   UNL     1      15.910   6.687  21.141  0.00  0.00    +0.103 A 
ATOM      8  N   UNL     1      16.622   6.438  20.808  0.00  0.00    -0.228 NA
BRANCH   3   2
ATOM      1  C   UNL     1      17.399   5.596  19.011  0.00  0.00    +0.137 C 
ATOM      2  N   UNL     1      17.402   6.113  19.655  0.00  0.00    -0.218 NA
ENDBRANCH   3   2
ENDBRANCH   9   6
ENDBRANCH  14  12
BRANCH  18  19
ATOM     19  C   UNL     1      12.233   8.169  20.035  0.00  0.00    +0.100 C 
BRANCH  19  20
ATOM     20  C   UNL     1      11.792   8.298  19.349  0.00  0.00    -0.003 A 
ATOM     21  C   UNL     1      11.144   8.807  19.365  0.00  0.00    +0.000 A 
ATOM     22  C   UNL     1      10.704   8.937  18.680  0.00  0.00    +0.040 A 
ATOM     23  C   UNL     1      10.912   8.557  17.977  0.00  0.00    +0.176 A 
ATOM     24  O   UNL     1      10.585   8.577  17.221  0.00  0.00    -0.435 OA
ATOM     25  C   UNL     1      11.031   8.080  16.737  0.00  0.00    +0.429 C 
ATOM     26  O   UNL     1      11.635   7.753  17.195  0.00  0.00    -0.435 OA
ATOM     27  C   UNL     1      11.561   8.048  17.961  0.00  0.00    +0.176 A 
ATOM     28  C   UNL     1      12.002   7.918  18.647  0.00  0.00    +0.037 A 
ENDBRANCH  19  20
ENDBRANCH  18  19
TORSDOF 5
ENDMDL
