MODEL 1
REMARK VINA RESULT:     -11.4      0.000      0.000
REMARK  Name = 
REMARK  8 active torsions:
REMARK  status: ('A' for Active; 'I' for Inactive)
REMARK    1  A    between atoms: C_2  and  N_3
REMARK    2  A    between atoms: N_6  and  C_7
REMARK    3  A    between atoms: C_7  and  C_8
REMARK    4  A    between atoms: C_12  and  C_13
REMARK    5  A    between atoms: C_13  and  C_14
REMARK    6  A    between atoms: N_16  and  C_17
REMARK    7  A    between atoms: C_17  and  C_18
REMARK    8  A    between atoms: C_26  and  C_27
REMARK                            x       y       z     vdW  Elec       q    Type
REMARK                         _______ _______ _______ _____ _____    ______ ____
ROOT
ATOM      8  C   UNL     1      -4.080   0.798  24.239  0.00  0.00    +0.043 C 
ATOM      9  C   UNL     1      -4.718   0.902  24.751  0.00  0.00    -0.033 C 
ATOM     10  C   UNL     1      -4.892   1.654  25.045  0.00  0.00    -0.048 C 
ATOM     11  C   UNL     1      -5.531   1.759  25.556  0.00  0.00    +0.026 C 
ATOM     12  C   UNL     1      -4.428   2.300  24.827  0.00  0.00    +0.027 C 
ATOM     25  C   UNL     1      -3.789   2.194  24.315  0.00  0.00    +0.005 C 
ATOM     26  C   UNL     1      -3.615   1.444  24.021  0.00  0.00    +0.006 C 
ENDROOT
BRANCH  26  27
ATOM     27  C   UNL     1      -2.977   1.338  23.509  0.00  0.00    +0.000 C 
ATOM     28  C   UNL     1      -2.250   1.084  23.803  0.00  0.00    +0.000 C 
ATOM     29  C   UNL     1      -3.067   1.487  22.702  0.00  0.00    +0.000 C 
ENDBRANCH  26  27
BRANCH   8   7
ATOM      7  C   UNL     1      -3.906   0.046  23.945  0.00  0.00    +0.121 C 
BRANCH   7   6
ATOM      3  N   UNL     1      -3.845  -2.011  24.671  0.00  0.00    -0.187 NA
ATOM      4  C   UNL     1      -3.883  -1.367  24.158  0.00  0.00    +0.339 C 
ATOM      5  O   UNL     1      -3.937  -1.490  23.345  0.00  0.00    -0.249 OA
ATOM      6  N   UNL     1      -3.868  -0.598  24.459  0.00  0.00    -0.187 NA
BRANCH   3   2
ATOM      1  C   UNL     1      -3.446  -3.380  24.754  0.00  0.00    +0.025 C 
ATOM      2  C   UNL     1      -3.861  -2.780  24.370  0.00  0.00    +0.117 C 
ENDBRANCH   3   2
ENDBRANCH   7   6
ENDBRANCH   8   7
BRANCH  12  13
ATOM     13  C   UNL     1      -4.602   3.051  25.120  0.00  0.00    +0.091 C 
BRANCH  13  14
ATOM     14  C   UNL     1      -4.071   3.430  25.625  0.00  0.00    +0.242 C 
ATOM     15  O   UNL     1      -4.164   3.368  26.443  0.00  0.00    -0.273 OA
ATOM     16  N   UNL     1      -3.448   3.871  25.314  0.00  0.00    -0.201 NA
BRANCH  16  17
ATOM     17  C   UNL     1      -2.917   4.250  25.818  0.00  0.00    +0.141 C 
BRANCH  17  18
ATOM     18  C   UNL     1      -2.204   4.542  25.525  0.00  0.00    -0.000 A 
ATOM     19  C   UNL     1      -1.527   4.069  25.536  0.00  0.00    -0.000 A 
ATOM     20  C   UNL     1      -0.814   4.361  25.243  0.00  0.00    +0.029 A 
ATOM     21  C   UNL     1      -0.777   5.126  24.937  0.00  0.00    +0.140 A 
ATOM     22  F   UNL     1      -0.064   5.419  24.643  0.00  0.00    -0.204 F 
ATOM     23  C   UNL     1      -1.452   5.600  24.925  0.00  0.00    +0.029 A 
ATOM     24  C   UNL     1      -2.166   5.307  25.219  0.00  0.00    -0.000 A 
ENDBRANCH  17  18
ENDBRANCH  16  17
ENDBRANCH  13  14
ENDBRANCH  12  13
TORSDOF 8
ENDMDL
MODEL 2
REMARK VINA RESULT:     -10.8      3.174      5.322
REMARK  Name = 
REMARK  8 active torsions:
REMARK  status: ('A' for Active; 'I' for Inactive)
REMARK    1  A    between atoms: C_2  and  N_3
REMARK    2  A    between atoms: N_6  and  C_7
REMARK    3  A    between atoms: C_7  and  C_8
REMARK    4  A    between atoms: C_12  and  C_13
REMARK    5  A    between atoms: C_13  and  C_14
REMARK    6  A    between atoms: N_16  and  C_17
REMARK    7  A    between atoms: C_17  and  C_18
REMARK    8  A    between atoms: C_26  and  C_27
REMARK                            x       y       z     vdW  Elec       q    Type
REMARK                         _______ _______ _______ _____ _____    ______ ____
ROOT
ATOM      8  C   UNL     1      -0.822   1.556  24.117  0.00  0.00    +0.043 C 
ATOM      9  C   UNL     1      -1.210   1.591  23.389  0.00  0.00    -0.033 C 
ATOM     10  C   UNL     1      -2.034   1.636  23.363  0.00  0.00    -0.048 C 
ATOM     11  C   UNL     1      -2.421   1.671  22.636  0.00  0.00    +0.026 C 
ATOM     12  C   UNL     1      -2.469   1.646  24.064  0.00  0.00    +0.027 C 
ATOM     25  C   UNL     1      -2.080   1.610  24.791  0.00  0.00    +0.005 C 
ATOM     26  C   UNL     1      -1.257   1.565  24.817  0.00  0.00    +0.006 C 
ENDROOT
BRANCH  26  27
ATOM     27  C   UNL     1      -0.869   1.530  25.544  0.00  0.00    +0.000 C 
ATOM     28  C   UNL     1      -0.719   0.800  25.898  0.00  0.00    +0.000 C 
ATOM     29  C   UNL     1      -0.629   2.226  25.918  0.00  0.00    +0.000 C 
ENDBRANCH  26  27
BRANCH   8   7
ATOM      7  C   UNL     1       0.002   1.511  24.143  0.00  0.00    +0.121 C 
BRANCH   7   6
ATOM      3  N   UNL     1       1.608   0.522  23.045  0.00  0.00    -0.187 NA
ATOM      4  C   UNL     1       1.210   1.061  23.526  0.00  0.00    +0.339 C 
ATOM      5  O   UNL     1       1.619   1.688  23.870  0.00  0.00    -0.249 OA
ATOM      6  N   UNL     1       0.400   0.972  23.662  0.00  0.00    -0.187 NA
BRANCH   3   2
ATOM      1  C   UNL     1       2.803   0.109  22.380  0.00  0.00    +0.025 C 
ATOM      2  C   UNL     1       2.417   0.611  22.909  0.00  0.00    +0.117 C 
ENDBRANCH   3   2
ENDBRANCH   7   6
ENDBRANCH   8   7
BRANCH  12  13
ATOM     13  C   UNL     1      -3.292   1.691  24.037  0.00  0.00    +0.091 C 
BRANCH  13  14
ATOM     14  C   UNL     1      -3.749   1.153  24.465  0.00  0.00    +0.242 C 
ATOM     15  O   UNL     1      -4.180   1.408  25.120  0.00  0.00    -0.273 OA
ATOM     16  N   UNL     1      -3.776   0.361  24.237  0.00  0.00    -0.201 NA
BRANCH  16  17
ATOM     17  C   UNL     1      -4.233  -0.176  24.664  0.00  0.00    +0.141 C 
BRANCH  17  18
ATOM     18  C   UNL     1      -4.097  -0.986  24.589  0.00  0.00    -0.000 A 
ATOM     19  C   UNL     1      -4.347  -1.386  23.912  0.00  0.00    -0.000 A 
ATOM     20  C   UNL     1      -4.211  -2.196  23.837  0.00  0.00    +0.029 A 
ATOM     21  C   UNL     1      -3.825  -2.607  24.439  0.00  0.00    +0.140 A 
ATOM     22  F   UNL     1      -3.688  -3.417  24.365  0.00  0.00    -0.204 F 
ATOM     23  C   UNL     1      -3.574  -2.208  25.117  0.00  0.00    +0.029 A 
ATOM     24  C   UNL     1      -3.711  -1.397  25.191  0.00  0.00    -0.000 A 
ENDBRANCH  17  18
ENDBRANCH  16  17
ENDBRANCH  13  14
ENDBRANCH  12  13
TORSDOF 8
ENDMDL
MODEL 3
REMARK VINA RESULT:     -10.7      2.928      4.434
REMARK  Name = 
REMARK  8 active torsions:
REMARK  status: ('A' for Active; 'I' for Inactive)
REMARK    1  A    between atoms: C_2  and  N_3
REMARK    2  A    between atoms: N_6  and  C_7
REMARK    3  A    between atoms: C_7  and  C_8
REMARK    4  A    between atoms: C_12  and  C_13
REMARK    5  A    between atoms: C_13  and  C_14
REMARK    6  A    between atoms: N_16  and  C_17
REMARK    7  A    between atoms: C_17  and  C_18
REMARK    8  A    between atoms: C_26  and  C_27
REMARK                            x       y       z     vdW  Elec       q    Type
REMARK                         _______ _______ _______ _____ _____    ______ ____
ROOT
ATOM      8  C   UNL     1      -0.530   1.483  24.489  0.00  0.00    +0.043 C 
ATOM      9  C   UNL     1      -0.238   2.254  24.499  0.00  0.00    -0.033 C 
ATOM     10  C   UNL     1      -0.674   2.856  24.859  0.00  0.00    -0.048 C 
ATOM     11  C   UNL     1      -0.381   3.627  24.869  0.00  0.00    +0.026 C 
ATOM     12  C   UNL     1      -1.401   2.686  25.209  0.00  0.00    +0.027 C 
ATOM     25  C   UNL     1      -1.693   1.914  25.198  0.00  0.00    +0.005 C 
ATOM     26  C   UNL     1      -1.258   1.313  24.839  0.00  0.00    +0.006 C 
ENDROOT
BRANCH  26  27
ATOM     27  C   UNL     1      -1.549   0.541  24.828  0.00  0.00    +0.000 C 
ATOM     28  C   UNL     1      -1.387   0.030  25.454  0.00  0.00    +0.000 C 
ATOM     29  C   UNL     1      -2.003   0.281  24.190  0.00  0.00    +0.000 C 
ENDBRANCH  26  27
BRANCH   8   7
ATOM      7  C   UNL     1      -0.094   0.882  24.129  0.00  0.00    +0.121 C 
BRANCH   7   6
ATOM      3  N   UNL     1       1.818   0.626  23.108  0.00  0.00    -0.187 NA
ATOM      4  C   UNL     1       1.059   0.471  23.391  0.00  0.00    +0.339 C 
ATOM      5  O   UNL     1       0.693  -0.248  23.220  0.00  0.00    -0.249 OA
ATOM      6  N   UNL     1       0.665   1.037  23.846  0.00  0.00    -0.187 NA
BRANCH   3   2
ATOM      1  C   UNL     1       2.984   0.200  22.400  0.00  0.00    +0.025 C 
ATOM      2  C   UNL     1       2.211   0.060  22.653  0.00  0.00    +0.117 C 
ENDBRANCH   3   2
ENDBRANCH   7   6
ENDBRANCH   8   7
BRANCH  12  13
ATOM     13  C   UNL     1      -1.836   3.286  25.569  0.00  0.00    +0.091 C 
BRANCH  13  14
ATOM     14  C   UNL     1      -2.547   3.540  25.233  0.00  0.00    +0.242 C 
ATOM     15  O   UNL     1      -2.541   4.114  24.641  0.00  0.00    -0.273 OA
ATOM     16  N   UNL     1      -3.262   3.220  25.490  0.00  0.00    -0.201 NA
BRANCH  16  17
ATOM     17  C   UNL     1      -3.971   3.473  25.155  0.00  0.00    +0.141 C 
BRANCH  17  18
ATOM     18  C   UNL     1      -4.653   3.015  25.235  0.00  0.00    -0.000 A 
ATOM     19  C   UNL     1      -5.107   3.065  25.922  0.00  0.00    -0.000 A 
ATOM     20  C   UNL     1      -5.788   2.608  26.002  0.00  0.00    +0.029 A 
ATOM     21  C   UNL     1      -6.016   2.099  25.393  0.00  0.00    +0.140 A 
ATOM     22  F   UNL     1      -6.697   1.641  25.472  0.00  0.00    -0.204 F 
ATOM     23  C   UNL     1      -5.563   2.049  24.706  0.00  0.00    +0.029 A 
ATOM     24  C   UNL     1      -4.881   2.507  24.627  0.00  0.00    -0.000 A 
ENDBRANCH  17  18
ENDBRANCH  16  17
ENDBRANCH  13  14
ENDBRANCH  12  13
TORSDOF 8
ENDMDL
MODEL 4
REMARK VINA RESULT:     -10.5      2.912      4.590
REMARK  Name = 
REMARK  8 active torsions:
REMARK  status: ('A' for Active; 'I' for Inactive)
REMARK    1  A    between atoms: C_2  and  N_3
REMARK    2  A    between atoms: N_6  and  C_7
REMARK    3  A    between atoms: C_7  and  C_8
REMARK    4  A    between atoms: C_12  and  C_13
REMARK    5  A    between atoms: C_13  and  C_14
REMARK    6  A    between atoms: N_16  and  C_17
REMARK    7  A    between atoms: C_17  and  C_18
REMARK    8  A    between atoms: C_26  and  C_27
REMARK                            x       y       z     vdW  Elec       q    Type
REMARK                         _______ _______ _______ _____ _____    ______ ____
ROOT
ATOM      8  C   UNL     1      -0.668   0.529  24.296  0.00  0.00    +0.043 C 
ATOM      9  C   UNL     1      -0.835  -0.278  24.330  0.00  0.00    -0.033 C 
ATOM     10  C   UNL     1      -1.575  -0.535  24.591  0.00  0.00    -0.048 C 
ATOM     11  C   UNL     1      -1.742  -1.342  24.625  0.00  0.00    +0.026 C 
ATOM     12  C   UNL     1      -2.146   0.015  24.818  0.00  0.00    +0.027 C 
ATOM     25  C   UNL     1      -1.978   0.822  24.784  0.00  0.00    +0.005 C 
ATOM     26  C   UNL     1      -1.240   1.079  24.523  0.00  0.00    +0.006 C 
ENDROOT
BRANCH  26  27
ATOM     27  C   UNL     1      -1.071   1.886  24.489  0.00  0.00    +0.000 C 
ATOM     28  C   UNL     1      -1.217   2.309  23.797  0.00  0.00    +0.000 C 
ATOM     29  C   UNL     1      -0.757   2.270  25.148  0.00  0.00    +0.000 C 
ENDBRANCH  26  27
BRANCH   8   7
ATOM      7  C   UNL     1       0.072   0.786  24.035  0.00  0.00    +0.121 C 
BRANCH   7   6
ATOM      3  N   UNL     1       1.730   0.051  22.821  0.00  0.00    -0.187 NA
ATOM      4  C   UNL     1       1.293   0.517  23.343  0.00  0.00    +0.339 C 
ATOM      5  O   UNL     1       1.638   1.177  23.695  0.00  0.00    -0.249 OA
ATOM      6  N   UNL     1       0.509   0.321  23.513  0.00  0.00    -0.187 NA
BRANCH   3   2
ATOM      1  C   UNL     1       2.863  -0.020  21.954  0.00  0.00    +0.025 C 
ATOM      2  C   UNL     1       2.514   0.247  22.651  0.00  0.00    +0.117 C 
ENDBRANCH   3   2
ENDBRANCH   7   6
ENDBRANCH   8   7
BRANCH  12  13
ATOM     13  C   UNL     1      -2.885  -0.242  25.078  0.00  0.00    +0.091 C 
BRANCH  13  14
ATOM     14  C   UNL     1      -3.572   0.054  24.730  0.00  0.00    +0.242 C 
ATOM     15  O   UNL     1      -3.815  -0.227  23.994  0.00  0.00    -0.273 OA
ATOM     16  N   UNL     1      -4.016   0.630  25.118  0.00  0.00    -0.201 NA
BRANCH  16  17
ATOM     17  C   UNL     1      -4.703   0.926  24.770  0.00  0.00    +0.141 C 
BRANCH  17  18
ATOM     18  C   UNL     1      -5.021   1.642  25.028  0.00  0.00    -0.000 A 
ATOM     19  C   UNL     1      -5.548   1.656  25.663  0.00  0.00    -0.000 A 
ATOM     20  C   UNL     1      -5.866   2.372  25.920  0.00  0.00    +0.029 A 
ATOM     21  C   UNL     1      -5.657   3.075  25.542  0.00  0.00    +0.140 A 
ATOM     22  F   UNL     1      -5.975   3.792  25.798  0.00  0.00    -0.204 F 
ATOM     23  C   UNL     1      -5.131   3.062  24.907  0.00  0.00    +0.029 A 
ATOM     24  C   UNL     1      -4.812   2.345  24.650  0.00  0.00    -0.000 A 
ENDBRANCH  17  18
ENDBRANCH  16  17
ENDBRANCH  13  14
ENDBRANCH  12  13
TORSDOF 8
ENDMDL
MODEL 5
REMARK VINA RESULT:     -10.2      1.212      2.000
REMARK  Name = 
REMARK  8 active torsions:
REMARK  status: ('A' for Active; 'I' for Inactive)
REMARK    1  A    between atoms: C_2  and  N_3
REMARK    2  A    between atoms: N_6  and  C_7
REMARK    3  A    between atoms: C_7  and  C_8
REMARK    4  A    between atoms: C_12  and  C_13
REMARK    5  A    between atoms: C_13  and  C_14
REMARK    6  A    between atoms: N_16  and  C_17
REMARK    7  A    between atoms: C_17  and  C_18
REMARK    8  A    between atoms: C_26  and  C_27
REMARK                            x       y       z     vdW  Elec       q    Type
REMARK                         _______ _______ _______ _____ _____    ______ ____
ROOT
ATOM      8  C   UNL     1      -4.171   0.786  24.110  0.00  0.00    +0.043 C 
ATOM      9  C   UNL     1      -3.594   0.915  23.534  0.00  0.00    -0.033 C 
ATOM     10  C   UNL     1      -3.334   1.682  23.376  0.00  0.00    -0.048 C 
ATOM     11  C   UNL     1      -2.757   1.811  22.801  0.00  0.00    +0.026 C 
ATOM     12  C   UNL     1      -3.651   2.320  23.792  0.00  0.00    +0.027 C 
ATOM     25  C   UNL     1      -4.229   2.189  24.368  0.00  0.00    +0.005 C 
ATOM     26  C   UNL     1      -4.488   1.423  24.526  0.00  0.00    +0.006 C 
ENDROOT
BRANCH  26  27
ATOM     27  C   UNL     1      -5.066   1.293  25.101  0.00  0.00    +0.000 C 
ATOM     28  C   UNL     1      -4.845   1.091  25.869  0.00  0.00    +0.000 C 
ATOM     29  C   UNL     1      -5.864   1.365  24.907  0.00  0.00    +0.000 C 
ENDBRANCH  26  27
BRANCH   8   7
ATOM      7  C   UNL     1      -4.431   0.018  24.268  0.00  0.00    +0.121 C 
BRANCH   7   6
ATOM      3  N   UNL     1      -3.541  -1.972  24.365  0.00  0.00    -0.187 NA
ATOM      4  C   UNL     1      -4.090  -1.369  24.240  0.00  0.00    +0.339 C 
ATOM      5  O   UNL     1      -4.845  -1.549  23.963  0.00  0.00    -0.249 OA
ATOM      6  N   UNL     1      -3.882  -0.585  24.393  0.00  0.00    -0.187 NA
BRANCH   3   2
ATOM      1  C   UNL     1      -3.305  -3.371  24.538  0.00  0.00    +0.025 C 
ATOM      2  C   UNL     1      -3.748  -2.756  24.212  0.00  0.00    +0.117 C 
ENDBRANCH   3   2
ENDBRANCH   7   6
ENDBRANCH   8   7
BRANCH  12  13
ATOM     13  C   UNL     1      -3.392   3.086  23.634  0.00  0.00    +0.091 C 
BRANCH  13  14
ATOM     14  C   UNL     1      -3.025   3.529  24.226  0.00  0.00    +0.242 C 
ATOM     15  O   UNL     1      -3.424   4.161  24.574  0.00  0.00    -0.273 OA
ATOM     16  N   UNL     1      -2.260   3.340  24.469  0.00  0.00    -0.201 NA
BRANCH  16  17
ATOM     17  C   UNL     1      -1.894   3.782  25.060  0.00  0.00    +0.141 C 
BRANCH  17  18
ATOM     18  C   UNL     1      -1.226   3.487  25.444  0.00  0.00    -0.000 A 
ATOM     19  C   UNL     1      -1.305   3.079  26.157  0.00  0.00    -0.000 A 
ATOM     20  C   UNL     1      -0.637   2.785  26.540  0.00  0.00    +0.029 A 
ATOM     21  C   UNL     1       0.111   2.897  26.210  0.00  0.00    +0.140 A 
ATOM     22  F   UNL     1       0.780   2.602  26.593  0.00  0.00    -0.204 F 
ATOM     23  C   UNL     1       0.191   3.304  25.497  0.00  0.00    +0.029 A 
ATOM     24  C   UNL     1      -0.478   3.599  25.114  0.00  0.00    -0.000 A 
ENDBRANCH  17  18
ENDBRANCH  16  17
ENDBRANCH  13  14
ENDBRANCH  12  13
TORSDOF 8
ENDMDL
MODEL 6
REMARK VINA RESULT:      -9.8      2.645      5.431
REMARK  Name = 
REMARK  8 active torsions:
REMARK  status: ('A' for Active; 'I' for Inactive)
REMARK    1  A    between atoms: C_2  and  N_3
REMARK    2  A    between atoms: N_6  and  C_7
REMARK    3  A    between atoms: C_7  and  C_8
REMARK    4  A    between atoms: C_12  and  C_13
REMARK    5  A    between atoms: C_13  and  C_14
REMARK    6  A    between atoms: N_16  and  C_17
REMARK    7  A    between atoms: C_17  and  C_18
REMARK    8  A    between atoms: C_26  and  C_27
REMARK                            x       y       z     vdW  Elec       q    Type
REMARK                         _______ _______ _______ _____ _____    ______ ____
ROOT
ATOM      8  C   UNL     1      -2.311   2.259  24.359  0.00  0.00    +0.043 C 
ATOM      9  C   UNL     1      -1.871   2.296  25.056  0.00  0.00    -0.033 C 
ATOM     10  C   UNL     1      -1.240   1.777  25.174  0.00  0.00    -0.048 C 
ATOM     11  C   UNL     1      -0.801   1.814  25.871  0.00  0.00    +0.026 C 
ATOM     12  C   UNL     1      -1.050   1.222  24.594  0.00  0.00    +0.027 C 
ATOM     25  C   UNL     1      -1.490   1.186  23.897  0.00  0.00    +0.005 C 
ATOM     26  C   UNL     1      -2.120   1.704  23.780  0.00  0.00    +0.006 C 
ENDROOT
BRANCH  26  27
ATOM     27  C   UNL     1      -2.561   1.668  23.083  0.00  0.00    +0.000 C 
ATOM     28  C   UNL     1      -2.340   2.122  22.431  0.00  0.00    +0.000 C 
ATOM     29  C   UNL     1      -3.222   1.177  23.039  0.00  0.00    +0.000 C 
ENDBRANCH  26  27
BRANCH   8   7
ATOM      7  C   UNL     1      -2.942   2.779  24.242  0.00  0.00    +0.121 C 
BRANCH   7   6
ATOM      3  N   UNL     1      -4.610   3.600  25.384  0.00  0.00    -0.187 NA
ATOM      4  C   UNL     1      -4.039   3.508  24.796  0.00  0.00    +0.339 C 
ATOM      5  O   UNL     1      -3.992   4.049  24.177  0.00  0.00    -0.249 OA
ATOM      6  N   UNL     1      -3.514   2.872  24.829  0.00  0.00    -0.187 NA
BRANCH   3   2
ATOM      1  C   UNL     1      -5.867   4.187  25.729  0.00  0.00    +0.025 C 
ATOM      2  C   UNL     1      -5.136   4.237  25.351  0.00  0.00    +0.117 C 
ENDBRANCH   3   2
ENDBRANCH   7   6
ENDBRANCH   8   7
BRANCH  12  13
ATOM     13  C   UNL     1      -0.420   0.703  24.712  0.00  0.00    +0.091 C 
BRANCH  13  14
ATOM     14  C   UNL     1      -0.482  -0.084  24.473  0.00  0.00    +0.242 C 
ATOM     15  O   UNL     1      -0.062  -0.349  23.813  0.00  0.00    -0.273 OA
ATOM     16  N   UNL     1      -0.963  -0.606  24.892  0.00  0.00    -0.201 NA
BRANCH  16  17
ATOM     17  C   UNL     1      -1.025  -1.392  24.652  0.00  0.00    +0.141 C 
BRANCH  17  18
ATOM     18  C   UNL     1      -1.730  -1.805  24.766  0.00  0.00    -0.000 A 
ATOM     19  C   UNL     1      -2.178  -1.678  25.448  0.00  0.00    -0.000 A 
ATOM     20  C   UNL     1      -2.883  -2.091  25.562  0.00  0.00    +0.029 A 
ATOM     21  C   UNL     1      -3.141  -2.630  24.994  0.00  0.00    +0.140 A 
ATOM     22  F   UNL     1      -3.846  -3.043  25.106  0.00  0.00    -0.204 F 
ATOM     23  C   UNL     1      -2.694  -2.758  24.312  0.00  0.00    +0.029 A 
ATOM     24  C   UNL     1      -1.988  -2.345  24.198  0.00  0.00    -0.000 A 
ENDBRANCH  17  18
ENDBRANCH  16  17
ENDBRANCH  13  14
ENDBRANCH  12  13
TORSDOF 8
ENDMDL
MODEL 7
REMARK VINA RESULT:      -9.7      1.992      5.553
REMARK  Name = 
REMARK  8 active torsions:
REMARK  status: ('A' for Active; 'I' for Inactive)
REMARK    1  A    between atoms: C_2  and  N_3
REMARK    2  A    between atoms: N_6  and  C_7
REMARK    3  A    between atoms: C_7  and  C_8
REMARK    4  A    between atoms: C_12  and  C_13
REMARK    5  A    between atoms: C_13  and  C_14
REMARK    6  A    between atoms: N_16  and  C_17
REMARK    7  A    between atoms: C_17  and  C_18
REMARK    8  A    between atoms: C_26  and  C_27
REMARK                            x       y       z     vdW  Elec       q    Type
REMARK                         _______ _______ _______ _____ _____    ______ ____
ROOT
ATOM      8  C   UNL     1      -3.758   3.046  24.778  0.00  0.00    +0.043 C 
ATOM      9  C   UNL     1      -3.347   2.642  24.187  0.00  0.00    -0.033 C 
ATOM     10  C   UNL     1      -3.629   1.917  23.910  0.00  0.00    -0.048 C 
ATOM     11  C   UNL     1      -3.218   1.514  23.320  0.00  0.00    +0.026 C 
ATOM     12  C   UNL     1      -4.321   1.597  24.225  0.00  0.00    +0.027 C 
ATOM     25  C   UNL     1      -4.731   2.001  24.816  0.00  0.00    +0.005 C 
ATOM     26  C   UNL     1      -4.450   2.725  25.092  0.00  0.00    +0.006 C 
ENDROOT
BRANCH  26  27
ATOM     27  C   UNL     1      -4.860   3.130  25.683  0.00  0.00    +0.000 C 
ATOM     28  C   UNL     1      -4.658   3.020  26.475  0.00  0.00    +0.000 C 
ATOM     29  C   UNL     1      -5.473   3.644  25.481  0.00  0.00    +0.000 C 
ENDBRANCH  26  27
BRANCH   8   7
ATOM      7  C   UNL     1      -3.476   3.771  25.054  0.00  0.00    +0.121 C 
BRANCH   7   6
ATOM      3  N   UNL     1      -1.699   4.974  24.656  0.00  0.00    -0.187 NA
ATOM      4  C   UNL     1      -2.300   4.584  25.064  0.00  0.00    +0.339 C 
ATOM      5  O   UNL     1      -2.328   4.615  25.887  0.00  0.00    -0.249 OA
ATOM      6  N   UNL     1      -2.875   4.161  24.647  0.00  0.00    -0.187 NA
BRANCH   3   2
ATOM      1  C   UNL     1      -0.386   5.531  24.733  0.00  0.00    +0.025 C 
ATOM      2  C   UNL     1      -1.125   5.396  25.073  0.00  0.00    +0.117 C 
ENDBRANCH   3   2
ENDBRANCH   7   6
ENDBRANCH   8   7
BRANCH  12  13
ATOM     13  C   UNL     1      -4.603   0.873  23.948  0.00  0.00    +0.091 C 
BRANCH  13  14
ATOM     14  C   UNL     1      -4.607   0.214  24.445  0.00  0.00    +0.242 C 
ATOM     15  O   UNL     1      -5.170   0.154  25.045  0.00  0.00    -0.273 OA
ATOM     16  N   UNL     1      -4.048  -0.383  24.343  0.00  0.00    -0.201 NA
BRANCH  16  17
ATOM     17  C   UNL     1      -4.052  -1.041  24.840  0.00  0.00    +0.141 C 
BRANCH  17  18
ATOM     18  C   UNL     1      -3.467  -1.618  24.767  0.00  0.00    -0.000 A 
ATOM     19  C   UNL     1      -2.728  -1.505  25.118  0.00  0.00    -0.000 A 
ATOM     20  C   UNL     1      -2.144  -2.081  25.045  0.00  0.00    +0.029 A 
ATOM     21  C   UNL     1      -2.297  -2.772  24.620  0.00  0.00    +0.140 A 
ATOM     22  F   UNL     1      -1.712  -3.350  24.547  0.00  0.00    -0.204 F 
ATOM     23  C   UNL     1      -3.034  -2.887  24.269  0.00  0.00    +0.029 A 
ATOM     24  C   UNL     1      -3.620  -2.309  24.343  0.00  0.00    -0.000 A 
ENDBRANCH  17  18
ENDBRANCH  16  17
ENDBRANCH  13  14
ENDBRANCH  12  13
TORSDOF 8
ENDMDL
MODEL 8
REMARK VINA RESULT:      -9.6      3.791      5.383
REMARK  Name = 
REMARK  8 active torsions:
REMARK  status: ('A' for Active; 'I' for Inactive)
REMARK    1  A    between atoms: C_2  and  N_3
REMARK    2  A    between atoms: N_6  and  C_7
REMARK    3  A    between atoms: C_7  and  C_8
REMARK    4  A    between atoms: C_12  and  C_13
REMARK    5  A    between atoms: C_13  and  C_14
REMARK    6  A    between atoms: N_16  and  C_17
REMARK    7  A    between atoms: C_17  and  C_18
REMARK    8  A    between atoms: C_26  and  C_27
REMARK                            x       y       z     vdW  Elec       q    Type
REMARK                         _______ _______ _______ _____ _____    ______ ____
ROOT
ATOM      8  C   UNL     1      -1.574   1.207  24.576  0.00  0.00    +0.043 C 
ATOM      9  C   UNL     1      -1.718   0.399  24.492  0.00  0.00    -0.033 C 
ATOM     10  C   UNL     1      -1.104  -0.109  24.279  0.00  0.00    -0.048 C 
ATOM     11  C   UNL     1      -1.248  -0.917  24.195  0.00  0.00    +0.026 C 
ATOM     12  C   UNL     1      -0.346   0.190  24.151  0.00  0.00    +0.027 C 
ATOM     25  C   UNL     1      -0.202   0.998  24.236  0.00  0.00    +0.005 C 
ATOM     26  C   UNL     1      -0.816   1.507  24.449  0.00  0.00    +0.006 C 
ENDROOT
BRANCH  26  27
ATOM     27  C   UNL     1      -0.672   2.315  24.533  0.00  0.00    +0.000 C 
ATOM     28  C   UNL     1      -0.805   2.826  23.901  0.00  0.00    +0.000 C 
ATOM     29  C   UNL     1      -0.395   2.611  25.252  0.00  0.00    +0.000 C 
ENDBRANCH  26  27
BRANCH   8   7
ATOM      7  C   UNL     1      -2.188   1.716  24.789  0.00  0.00    +0.121 C 
BRANCH   7   6
ATOM      3  N   UNL     1      -4.363   1.689  24.965  0.00  0.00    -0.187 NA
ATOM      4  C   UNL     1      -3.582   1.951  25.000  0.00  0.00    +0.339 C 
ATOM      5  O   UNL     1      -3.412   2.707  25.280  0.00  0.00    -0.249 OA
ATOM      6  N   UNL     1      -2.970   1.454  24.754  0.00  0.00    -0.187 NA
BRANCH   3   2
ATOM      1  C   UNL     1      -5.760   1.951  25.114  0.00  0.00    +0.025 C 
ATOM      2  C   UNL     1      -4.976   2.186  25.211  0.00  0.00    +0.117 C 
ENDBRANCH   3   2
ENDBRANCH   7   6
ENDBRANCH   8   7
BRANCH  12  13
ATOM     13  C   UNL     1       0.268  -0.318  23.939  0.00  0.00    +0.091 C 
BRANCH  13  14
ATOM     14  C   UNL     1       0.740  -0.145  23.285  0.00  0.00    +0.242 C 
ATOM     15  O   UNL     1       0.397  -0.072  22.538  0.00  0.00    -0.273 OA
ATOM     16  N   UNL     1       1.553  -0.046  23.377  0.00  0.00    -0.201 NA
BRANCH  16  17
ATOM     17  C   UNL     1       2.024   0.126  22.723  0.00  0.00    +0.141 C 
BRANCH  17  18
ATOM     18  C   UNL     1       2.837   0.233  22.815  0.00  0.00    -0.000 A 
ATOM     19  C   UNL     1       3.319  -0.406  23.017  0.00  0.00    -0.000 A 
ATOM     20  C   UNL     1       4.131  -0.299  23.109  0.00  0.00    +0.029 A 
ATOM     21  C   UNL     1       4.463   0.449  23.001  0.00  0.00    +0.140 A 
ATOM     22  F   UNL     1       5.275   0.557  23.093  0.00  0.00    -0.204 F 
ATOM     23  C   UNL     1       3.983   1.089  22.800  0.00  0.00    +0.029 A 
ATOM     24  C   UNL     1       3.169   0.981  22.707  0.00  0.00    -0.000 A 
ENDBRANCH  17  18
ENDBRANCH  16  17
ENDBRANCH  13  14
ENDBRANCH  12  13
TORSDOF 8
ENDMDL
