MODEL 1
REMARK VINA RESULT:     -11.2      0.000      0.000
REMARK  Name = 
REMARK  6 active torsions:
REMARK  status: ('A' for Active; 'I' for Inactive)
REMARK    1  A    between atoms: C_2  and  N_3
REMARK    2  A    between atoms: N_6  and  C_7
REMARK    3  A    between atoms: C_10  and  C_13
REMARK    4  A    between atoms: C_13  and  C_15
REMARK    5  A    between atoms: N_21  and  C_22
REMARK    6  A    between atoms: C_22  and  C_23
REMARK                            x       y       z     vdW  Elec       q    Type
REMARK                         _______ _______ _______ _____ _____    ______ ____
ROOT
ATOM     13  C   UNL     1      -3.990   2.653  24.262  0.00  0.00    +0.195 C 
ATOM     14  O   UNL     1      -3.896   3.086  23.566  0.00  0.00    -0.216 OA
ENDROOT
BRANCH  13  15
ATOM     15  C   UNL     1      -4.024   3.042  24.989  0.00  0.00    +0.139 C 
ATOM     16  C   UNL     1      -4.640   2.885  25.512  0.00  0.00    +0.165 C 
ATOM     17  O   UNL     1      -4.674   3.275  26.240  0.00  0.00    -0.343 OA
ATOM     18  C   UNL     1      -4.089   3.821  26.442  0.00  0.00    +0.227 C 
ATOM     19  C   UNL     1      -3.473   3.978  25.918  0.00  0.00    +0.256 C 
ATOM     20  O   UNL     1      -2.888   4.524  26.121  0.00  0.00    -0.272 OA
ATOM     21  N   UNL     1      -3.439   3.589  25.191  0.00  0.00    -0.274 N 
BRANCH  21  22
ATOM     22  C   UNL     1      -2.821   3.746  24.667  0.00  0.00    +0.094 C 
BRANCH  22  23
ATOM     23  C   UNL     1      -2.043   3.758  24.939  0.00  0.00    +0.020 C 
ATOM     24  C   UNL     1      -1.723   3.092  25.306  0.00  0.00    +0.002 C 
ATOM     25  C   UNL     1      -0.945   3.104  25.578  0.00  0.00    +0.000 C 
ATOM     26  C   UNL     1      -0.486   3.783  25.484  0.00  0.00    +0.000 C 
ATOM     27  C   UNL     1      -0.804   4.449  25.117  0.00  0.00    +0.000 C 
ATOM     28  C   UNL     1      -1.584   4.437  24.845  0.00  0.00    +0.002 C 
ENDBRANCH  22  23
ENDBRANCH  21  22
ENDBRANCH  13  15
BRANCH  13  10
ATOM      7  C   UNL     1      -4.169   0.186  24.171  0.00  0.00    +0.075 A 
ATOM      8  C   UNL     1      -4.729   0.626  24.589  0.00  0.00    +0.016 A 
ATOM      9  C   UNL     1      -4.669   1.448  24.619  0.00  0.00    -0.000 A 
ATOM     10  C   UNL     1      -4.050   1.830  24.232  0.00  0.00    +0.010 A 
ATOM     11  C   UNL     1      -3.490   1.392  23.814  0.00  0.00    -0.000 A 
ATOM     12  C   UNL     1      -3.550   0.569  23.784  0.00  0.00    +0.016 A 
BRANCH   7   6
ATOM      3  N   UNL     1      -3.806  -1.924  24.590  0.00  0.00    -0.187 NA
ATOM      4  C   UNL     1      -3.746  -1.102  24.620  0.00  0.00    +0.343 C 
ATOM      5  O   UNL     1      -3.203  -0.747  25.129  0.00  0.00    -0.249 OA
ATOM      6  N   UNL     1      -4.230  -0.636  24.141  0.00  0.00    -0.161 NA
BRANCH   3   2
ATOM      1  C   UNL     1      -3.318  -3.211  24.977  0.00  0.00    +0.025 C 
ATOM      2  C   UNL     1      -3.323  -2.390  25.070  0.00  0.00    +0.117 C 
ENDBRANCH   3   2
ENDBRANCH   7   6
ENDBRANCH  13  10
TORSDOF 6
ENDMDL
MODEL 2
REMARK VINA RESULT:     -11.1      2.064      5.739
REMARK  Name = 
REMARK  6 active torsions:
REMARK  status: ('A' for Active; 'I' for Inactive)
REMARK    1  A    between atoms: C_2  and  N_3
REMARK    2  A    between atoms: N_6  and  C_7
REMARK    3  A    between atoms: C_10  and  C_13
REMARK    4  A    between atoms: C_13  and  C_15
REMARK    5  A    between atoms: N_21  and  C_22
REMARK    6  A    between atoms: C_22  and  C_23
REMARK                            x       y       z     vdW  Elec       q    Type
REMARK                         _______ _______ _______ _____ _____    ______ ____
ROOT
ATOM     13  C   UNL     1      -1.571  -0.094  25.486  0.00  0.00    +0.195 C 
ATOM     14  O   UNL     1      -2.088  -0.261  26.107  0.00  0.00    -0.216 OA
ENDROOT
BRANCH  13  15
ATOM     15  C   UNL     1      -1.257  -0.709  25.034  0.00  0.00    +0.139 C 
ATOM     16  C   UNL     1      -0.508  -0.632  24.697  0.00  0.00    +0.165 C 
ATOM     17  O   UNL     1      -0.194  -1.248  24.245  0.00  0.00    -0.343 OA
ATOM     18  C   UNL     1      -0.630  -1.938  24.131  0.00  0.00    +0.227 C 
ATOM     19  C   UNL     1      -1.379  -2.015  24.467  0.00  0.00    +0.256 C 
ATOM     20  O   UNL     1      -1.815  -2.706  24.353  0.00  0.00    -0.272 OA
ATOM     21  N   UNL     1      -1.693  -1.400  24.919  0.00  0.00    -0.274 N 
BRANCH  21  22
ATOM     22  C   UNL     1      -2.442  -1.477  25.256  0.00  0.00    +0.094 C 
BRANCH  22  23
ATOM     23  C   UNL     1      -3.079  -1.721  24.794  0.00  0.00    +0.020 C 
ATOM     24  C   UNL     1      -3.349  -2.499  24.840  0.00  0.00    +0.002 C 
ATOM     25  C   UNL     1      -3.986  -2.743  24.377  0.00  0.00    +0.000 C 
ATOM     26  C   UNL     1      -4.354  -2.209  23.868  0.00  0.00    +0.000 C 
ATOM     27  C   UNL     1      -4.085  -1.431  23.821  0.00  0.00    +0.000 C 
ATOM     28  C   UNL     1      -3.447  -1.186  24.284  0.00  0.00    +0.002 C 
ENDBRANCH  22  23
ENDBRANCH  21  22
ENDBRANCH  13  15
BRANCH  13  10
ATOM      7  C   UNL     1      -0.960   2.250  24.977  0.00  0.00    +0.075 A 
ATOM      8  C   UNL     1      -0.580   1.848  25.590  0.00  0.00    +0.016 A 
ATOM      9  C   UNL     1      -0.783   1.067  25.759  0.00  0.00    -0.000 A 
ATOM     10  C   UNL     1      -1.367   0.688  25.317  0.00  0.00    +0.010 A 
ATOM     11  C   UNL     1      -1.747   1.089  24.705  0.00  0.00    -0.000 A 
ATOM     12  C   UNL     1      -1.544   1.871  24.536  0.00  0.00    +0.016 A 
BRANCH   7   6
ATOM      3  N   UNL     1      -1.002   4.432  24.949  0.00  0.00    -0.187 NA
ATOM      4  C   UNL     1      -1.206   3.651  25.118  0.00  0.00    +0.343 C 
ATOM      5  O   UNL     1      -1.858   3.488  25.595  0.00  0.00    -0.249 OA
ATOM      6  N   UNL     1      -0.756   3.031  24.809  0.00  0.00    -0.161 NA
BRANCH   3   2
ATOM      1  C   UNL     1      -1.406   5.802  24.920  0.00  0.00    +0.025 C 
ATOM      2  C   UNL     1      -1.452   5.051  25.258  0.00  0.00    +0.117 C 
ENDBRANCH   3   2
ENDBRANCH   7   6
ENDBRANCH  13  10
TORSDOF 6
ENDMDL
MODEL 3
REMARK VINA RESULT:      -9.8      1.528      2.252
REMARK  Name = 
REMARK  6 active torsions:
REMARK  status: ('A' for Active; 'I' for Inactive)
REMARK    1  A    between atoms: C_2  and  N_3
REMARK    2  A    between atoms: N_6  and  C_7
REMARK    3  A    between atoms: C_10  and  C_13
REMARK    4  A    between atoms: C_13  and  C_15
REMARK    5  A    between atoms: N_21  and  C_22
REMARK    6  A    between atoms: C_22  and  C_23
REMARK                            x       y       z     vdW  Elec       q    Type
REMARK                         _______ _______ _______ _____ _____    ______ ____
ROOT
ATOM     13  C   UNL     1      -2.138   2.081  24.182  0.00  0.00    +0.195 C 
ATOM     14  O   UNL     1      -2.396   2.787  23.840  0.00  0.00    -0.216 OA
ENDROOT
BRANCH  13  15
ATOM     15  C   UNL     1      -1.398   2.044  24.544  0.00  0.00    +0.139 C 
ATOM     16  C   UNL     1      -0.854   1.469  24.313  0.00  0.00    +0.165 C 
ATOM     17  O   UNL     1      -0.114   1.432  24.676  0.00  0.00    -0.343 OA
ATOM     18  C   UNL     1       0.082   1.971  25.269  0.00  0.00    +0.227 C 
ATOM     19  C   UNL     1      -0.462   2.545  25.500  0.00  0.00    +0.256 C 
ATOM     20  O   UNL     1      -0.266   3.084  26.094  0.00  0.00    -0.272 OA
ATOM     21  N   UNL     1      -1.202   2.583  25.138  0.00  0.00    -0.274 N 
BRANCH  21  22
ATOM     22  C   UNL     1      -1.746   3.158  25.369  0.00  0.00    +0.094 C 
BRANCH  22  23
ATOM     23  C   UNL     1      -1.576   3.956  25.253  0.00  0.00    +0.020 C 
ATOM     24  C   UNL     1      -0.912   4.178  24.816  0.00  0.00    +0.002 C 
ATOM     25  C   UNL     1      -0.742   4.976  24.700  0.00  0.00    +0.000 C 
ATOM     26  C   UNL     1      -1.236   5.554  25.020  0.00  0.00    +0.000 C 
ATOM     27  C   UNL     1      -1.901   5.334  25.456  0.00  0.00    +0.000 C 
ATOM     28  C   UNL     1      -2.071   4.534  25.573  0.00  0.00    +0.002 C 
ENDBRANCH  22  23
ENDBRANCH  21  22
ENDBRANCH  13  15
BRANCH  13  10
ATOM      7  C   UNL     1      -3.587   0.075  24.122  0.00  0.00    +0.075 A 
ATOM      8  C   UNL     1      -3.189   0.318  23.440  0.00  0.00    +0.016 A 
ATOM      9  C   UNL     1      -2.707   0.986  23.461  0.00  0.00    -0.000 A 
ATOM     10  C   UNL     1      -2.621   1.412  24.162  0.00  0.00    +0.010 A 
ATOM     11  C   UNL     1      -3.018   1.170  24.843  0.00  0.00    -0.000 A 
ATOM     12  C   UNL     1      -3.501   0.500  24.823  0.00  0.00    +0.016 A 
BRANCH   7   6
ATOM      3  N   UNL     1      -4.219  -2.014  24.163  0.00  0.00    -0.187 NA
ATOM      4  C   UNL     1      -3.736  -1.345  24.184  0.00  0.00    +0.343 C 
ATOM      5  O   UNL     1      -2.923  -1.426  24.287  0.00  0.00    -0.249 OA
ATOM      6  N   UNL     1      -4.069  -0.594  24.101  0.00  0.00    -0.161 NA
BRANCH   3   2
ATOM      1  C   UNL     1      -4.253  -3.418  23.901  0.00  0.00    +0.025 C 
ATOM      2  C   UNL     1      -3.886  -2.764  24.246  0.00  0.00    +0.117 C 
ENDBRANCH   3   2
ENDBRANCH   7   6
ENDBRANCH  13  10
TORSDOF 6
ENDMDL
MODEL 4
REMARK VINA RESULT:      -9.6      3.115      4.489
REMARK  Name = 
REMARK  6 active torsions:
REMARK  status: ('A' for Active; 'I' for Inactive)
REMARK    1  A    between atoms: C_2  and  N_3
REMARK    2  A    between atoms: N_6  and  C_7
REMARK    3  A    between atoms: C_10  and  C_13
REMARK    4  A    between atoms: C_13  and  C_15
REMARK    5  A    between atoms: N_21  and  C_22
REMARK    6  A    between atoms: C_22  and  C_23
REMARK                            x       y       z     vdW  Elec       q    Type
REMARK                         _______ _______ _______ _____ _____    ______ ____
ROOT
ATOM     13  C   UNL     1      -1.826   0.390  24.908  0.00  0.00    +0.195 C 
ATOM     14  O   UNL     1      -1.761   0.861  25.582  0.00  0.00    -0.216 OA
ENDROOT
BRANCH  13  15
ATOM     15  C   UNL     1      -2.556   0.068  24.698  0.00  0.00    +0.139 C 
ATOM     16  C   UNL     1      -2.596  -0.691  24.381  0.00  0.00    +0.165 C 
ATOM     17  O   UNL     1      -3.327  -1.013  24.171  0.00  0.00    -0.343 OA
ATOM     18  C   UNL     1      -4.017  -0.573  24.279  0.00  0.00    +0.227 C 
ATOM     19  C   UNL     1      -3.977   0.186  24.596  0.00  0.00    +0.256 C 
ATOM     20  O   UNL     1      -4.667   0.626  24.703  0.00  0.00    -0.272 OA
ATOM     21  N   UNL     1      -3.247   0.508  24.806  0.00  0.00    -0.274 N 
BRANCH  21  22
ATOM     22  C   UNL     1      -3.207   1.268  25.123  0.00  0.00    +0.094 C 
BRANCH  22  23
ATOM     23  C   UNL     1      -3.594   1.892  24.749  0.00  0.00    +0.020 C 
ATOM     24  C   UNL     1      -3.370   2.121  23.989  0.00  0.00    +0.002 C 
ATOM     25  C   UNL     1      -3.757   2.745  23.614  0.00  0.00    +0.000 C 
ATOM     26  C   UNL     1      -4.370   3.141  24.000  0.00  0.00    +0.000 C 
ATOM     27  C   UNL     1      -4.595   2.913  24.760  0.00  0.00    +0.000 C 
ATOM     28  C   UNL     1      -4.207   2.288  25.135  0.00  0.00    +0.002 C 
ENDBRANCH  22  23
ENDBRANCH  21  22
ENDBRANCH  13  15
BRANCH  13  10
ATOM      7  C   UNL     1       0.170  -0.060  23.515  0.00  0.00    +0.075 A 
ATOM      8  C   UNL     1      -0.300   0.602  23.362  0.00  0.00    +0.016 A 
ATOM      9  C   UNL     1      -0.965   0.751  23.827  0.00  0.00    -0.000 A 
ATOM     10  C   UNL     1      -1.161   0.240  24.443  0.00  0.00    +0.010 A 
ATOM     11  C   UNL     1      -0.692  -0.421  24.596  0.00  0.00    -0.000 A 
ATOM     12  C   UNL     1      -0.026  -0.571  24.131  0.00  0.00    +0.016 A 
BRANCH   7   6
ATOM      3  N   UNL     1       2.168   0.121  22.657  0.00  0.00    -0.187 NA
ATOM      4  C   UNL     1       1.503   0.270  23.121  0.00  0.00    +0.343 C 
ATOM      5  O   UNL     1       1.506   0.897  23.656  0.00  0.00    -0.249 OA
ATOM      6  N   UNL     1       0.834  -0.209  23.050  0.00  0.00    -0.161 NA
BRANCH   3   2
ATOM      1  C   UNL     1       3.533   0.396  22.336  0.00  0.00    +0.025 C 
ATOM      2  C   UNL     1       2.836   0.600  22.728  0.00  0.00    +0.117 C 
ENDBRANCH   3   2
ENDBRANCH   7   6
ENDBRANCH  13  10
TORSDOF 6
ENDMDL
MODEL 5
REMARK VINA RESULT:      -9.6      3.147      5.087
REMARK  Name = 
REMARK  6 active torsions:
REMARK  status: ('A' for Active; 'I' for Inactive)
REMARK    1  A    between atoms: C_2  and  N_3
REMARK    2  A    between atoms: N_6  and  C_7
REMARK    3  A    between atoms: C_10  and  C_13
REMARK    4  A    between atoms: C_13  and  C_15
REMARK    5  A    between atoms: N_21  and  C_22
REMARK    6  A    between atoms: C_22  and  C_23
REMARK                            x       y       z     vdW  Elec       q    Type
REMARK                         _______ _______ _______ _____ _____    ______ ____
ROOT
ATOM     13  C   UNL     1      -1.698   0.275  24.993  0.00  0.00    +0.195 C 
ATOM     14  O   UNL     1      -1.640   0.037  25.781  0.00  0.00    -0.216 OA
ENDROOT
BRANCH  13  15
ATOM     15  C   UNL     1      -2.396   0.616  24.715  0.00  0.00    +0.139 C 
ATOM     16  C   UNL     1      -2.370   1.322  24.291  0.00  0.00    +0.165 C 
ATOM     17  O   UNL     1      -3.068   1.663  24.013  0.00  0.00    -0.343 OA
ATOM     18  C   UNL     1      -3.792   1.296  24.160  0.00  0.00    +0.227 C 
ATOM     19  C   UNL     1      -3.819   0.591  24.585  0.00  0.00    +0.256 C 
ATOM     20  O   UNL     1      -4.544   0.225  24.733  0.00  0.00    -0.272 OA
ATOM     21  N   UNL     1      -3.121   0.250  24.863  0.00  0.00    -0.274 N 
BRANCH  21  22
ATOM     22  C   UNL     1      -3.147  -0.456  25.289  0.00  0.00    +0.094 C 
BRANCH  22  23
ATOM     23  C   UNL     1      -3.425  -1.144  24.929  0.00  0.00    +0.020 C 
ATOM     24  C   UNL     1      -3.806  -1.103  24.198  0.00  0.00    +0.002 C 
ATOM     25  C   UNL     1      -4.083  -1.791  23.838  0.00  0.00    +0.000 C 
ATOM     26  C   UNL     1      -3.980  -2.521  24.208  0.00  0.00    +0.000 C 
ATOM     27  C   UNL     1      -3.599  -2.563  24.939  0.00  0.00    +0.000 C 
ATOM     28  C   UNL     1      -3.321  -1.874  25.299  0.00  0.00    +0.002 C 
ENDBRANCH  22  23
ENDBRANCH  21  22
ENDBRANCH  13  15
BRANCH  13  10
ATOM      7  C   UNL     1       0.221  -0.033  23.461  0.00  0.00    +0.075 A 
ATOM      8  C   UNL     1      -0.015  -0.650  23.957  0.00  0.00    +0.016 A 
ATOM      9  C   UNL     1      -0.654  -0.546  24.467  0.00  0.00    -0.000 A 
ATOM     10  C   UNL     1      -1.058   0.172  24.482  0.00  0.00    +0.010 A 
ATOM     11  C   UNL     1      -0.823   0.788  23.987  0.00  0.00    -0.000 A 
ATOM     12  C   UNL     1      -0.183   0.685  23.476  0.00  0.00    +0.016 A 
BRANCH   7   6
ATOM      3  N   UNL     1       2.203   0.172  22.572  0.00  0.00    -0.187 NA
ATOM      4  C   UNL     1       1.564   0.276  23.082  0.00  0.00    +0.343 C 
ATOM      5  O   UNL     1       1.626   0.791  23.722  0.00  0.00    -0.249 OA
ATOM      6  N   UNL     1       0.861  -0.137  22.951  0.00  0.00    -0.161 NA
BRANCH   3   2
ATOM      1  C   UNL     1       3.563   0.444  22.224  0.00  0.00    +0.025 C 
ATOM      2  C   UNL     1       2.905   0.585  22.703  0.00  0.00    +0.117 C 
ENDBRANCH   3   2
ENDBRANCH   7   6
ENDBRANCH  13  10
TORSDOF 6
ENDMDL
MODEL 6
REMARK VINA RESULT:      -9.6      2.441      3.752
REMARK  Name = 
REMARK  6 active torsions:
REMARK  status: ('A' for Active; 'I' for Inactive)
REMARK    1  A    between atoms: C_2  and  N_3
REMARK    2  A    between atoms: N_6  and  C_7
REMARK    3  A    between atoms: C_10  and  C_13
REMARK    4  A    between atoms: C_13  and  C_15
REMARK    5  A    between atoms: N_21  and  C_22
REMARK    6  A    between atoms: C_22  and  C_23
REMARK                            x       y       z     vdW  Elec       q    Type
REMARK                         _______ _______ _______ _____ _____    ______ ____
ROOT
ATOM     13  C   UNL     1      -2.660   2.751  24.182  0.00  0.00    +0.195 C 
ATOM     14  O   UNL     1      -3.139   2.756  23.510  0.00  0.00    -0.216 OA
ENDROOT
BRANCH  13  15
ATOM     15  C   UNL     1      -2.896   3.154  24.861  0.00  0.00    +0.139 C 
ATOM     16  C   UNL     1      -2.332   3.488  25.360  0.00  0.00    +0.165 C 
ATOM     17  O   UNL     1      -2.569   3.891  26.041  0.00  0.00    -0.343 OA
ATOM     18  C   UNL     1      -3.371   3.959  26.221  0.00  0.00    +0.227 C 
ATOM     19  C   UNL     1      -3.935   3.625  25.722  0.00  0.00    +0.256 C 
ATOM     20  O   UNL     1      -4.738   3.693  25.902  0.00  0.00    -0.272 OA
ATOM     21  N   UNL     1      -3.699   3.222  25.042  0.00  0.00    -0.274 N 
BRANCH  21  22
ATOM     22  C   UNL     1      -4.264   2.887  24.542  0.00  0.00    +0.094 C 
BRANCH  22  23
ATOM     23  C   UNL     1      -4.832   2.374  24.848  0.00  0.00    +0.020 C 
ATOM     24  C   UNL     1      -5.622   2.607  24.887  0.00  0.00    +0.002 C 
ATOM     25  C   UNL     1      -6.190   2.094  25.192  0.00  0.00    +0.000 C 
ATOM     26  C   UNL     1      -5.968   1.346  25.460  0.00  0.00    +0.000 C 
ATOM     27  C   UNL     1      -5.178   1.111  25.422  0.00  0.00    +0.000 C 
ATOM     28  C   UNL     1      -4.610   1.626  25.115  0.00  0.00    +0.002 C 
ENDBRANCH  22  23
ENDBRANCH  21  22
ENDBRANCH  13  15
BRANCH  13  10
ATOM      7  C   UNL     1      -0.511   1.523  24.158  0.00  0.00    +0.075 A 
ATOM      8  C   UNL     1      -0.533   2.320  23.945  0.00  0.00    +0.016 A 
ATOM      9  C   UNL     1      -1.249   2.729  23.954  0.00  0.00    -0.000 A 
ATOM     10  C   UNL     1      -1.943   2.341  24.174  0.00  0.00    +0.010 A 
ATOM     11  C   UNL     1      -1.921   1.545  24.386  0.00  0.00    -0.000 A 
ATOM     12  C   UNL     1      -1.204   1.135  24.378  0.00  0.00    +0.016 A 
BRANCH   7   6
ATOM      3  N   UNL     1       1.155   0.296  23.464  0.00  0.00    -0.187 NA
ATOM      4  C   UNL     1       0.439   0.704  23.472  0.00  0.00    +0.343 C 
ATOM      5  O   UNL     1      -0.045   0.702  22.805  0.00  0.00    -0.249 OA
ATOM      6  N   UNL     1       0.206   1.114  24.149  0.00  0.00    -0.161 NA
BRANCH   3   2
ATOM      1  C   UNL     1       2.190  -0.202  22.612  0.00  0.00    +0.025 C 
ATOM      2  C   UNL     1       1.387  -0.114  22.786  0.00  0.00    +0.117 C 
ENDBRANCH   3   2
ENDBRANCH   7   6
ENDBRANCH  13  10
TORSDOF 6
ENDMDL
