MODEL 1
REMARK VINA RESULT:     -11.3      0.000      0.000
REMARK  Name = 
REMARK  5 active torsions:
REMARK  status: ('A' for Active; 'I' for Inactive)
REMARK    1  A    between atoms: C_2  and  C_4
REMARK    2  A    between atoms: C_4  and  C_5
REMARK    3  A    between atoms: C_4  and  N_15
REMARK    4  A    between atoms: C_5  and  C_6
REMARK    5  A    between atoms: C_16  and  C_18
REMARK                            x       y       z     vdW  Elec       q    Type
REMARK                         _______ _______ _______ _____ _____    ______ ____
ROOT
ATOM     15  N   UNL     1      -2.453   1.503  24.426  0.00  0.00    -0.196 NA
ATOM     16  C   UNL     1      -2.367   0.708  24.225  0.00  0.00    +0.261 C 
ATOM     17  O   UNL     1      -2.606   0.443  23.481  0.00  0.00    -0.271 OA
ENDROOT
BRANCH  16  18
ATOM     18  C   UNL     1      -2.043   0.178  24.768  0.00  0.00    +0.172 C 
ATOM     19  C   UNL     1      -1.415   0.413  25.248  0.00  0.00    +0.118 C 
ATOM     20  N   UNL     1      -1.090  -0.118  25.792  0.00  0.00    -0.214 NA
ATOM     21  C   UNL     1      -1.393  -0.882  25.853  0.00  0.00    +0.110 C 
ATOM     22  C   UNL     1      -2.022  -1.117  25.372  0.00  0.00    +0.114 C 
ATOM     23  N   UNL     1      -2.347  -0.587  24.829  0.00  0.00    -0.255 N 
ATOM     24  C   UNL     1      -2.975  -0.821  24.348  0.00  0.00    +0.308 C 
ATOM     25  O   UNL     1      -3.299  -0.290  23.806  0.00  0.00    -0.252 OA
ATOM     26  N   UNL     1      -3.278  -1.585  24.411  0.00  0.00    -0.259 N 
ATOM     27  C   UNL     1      -3.906  -1.819  23.930  0.00  0.00    +0.127 C 
ATOM     28  C   UNL     1      -4.210  -2.584  23.992  0.00  0.00    +0.164 C 
ATOM     29  O   UNL     1      -3.886  -3.114  24.534  0.00  0.00    -0.350 OA
ATOM     30  C   UNL     1      -3.258  -2.880  25.015  0.00  0.00    +0.164 C 
ATOM     31  C   UNL     1      -2.954  -2.116  24.953  0.00  0.00    +0.127 C 
ENDBRANCH  16  18
BRANCH  15   4
ATOM      4  C   UNL     1      -2.777   2.034  23.884  0.00  0.00    +0.179 C 
BRANCH   4   2
ATOM      1  N   UNL     1      -2.533   2.389  22.521  0.00  0.00    -0.086 NA
ATOM      2  C   UNL     1      -2.297   2.383  23.312  0.00  0.00    +0.281 C 
ATOM      3  O   UNL     1      -1.579   2.727  23.530  0.00  0.00    -0.270 OA
ENDBRANCH   4   2
BRANCH   4   5
ATOM      5  C   UNL     1      -3.581   2.215  23.914  0.00  0.00    +0.059 C 
BRANCH   5   6
ATOM      6  C   UNL     1      -3.867   2.733  24.489  0.00  0.00    +0.001 A 
ATOM      7  C   UNL     1      -3.459   3.375  24.809  0.00  0.00    +0.095 A 
ATOM      8  N   UNL     1      -3.950   3.738  25.363  0.00  0.00    -0.244 NA
ATOM      9  C   UNL     1      -4.661   3.322  25.385  0.00  0.00    +0.081 A 
ATOM     10  C   UNL     1      -4.609   2.700  24.845  0.00  0.00    +0.015 A 
ATOM     11  C   UNL     1      -5.247   2.185  24.748  0.00  0.00    +0.001 A 
ATOM     12  C   UNL     1      -5.934   2.291  25.190  0.00  0.00    +0.000 A 
ATOM     13  C   UNL     1      -5.986   2.912  25.730  0.00  0.00    +0.002 A 
ATOM     14  C   UNL     1      -5.349   3.428  25.828  0.00  0.00    +0.019 A 
ENDBRANCH   5   6
ENDBRANCH   4   5
ENDBRANCH  15   4
TORSDOF 5
ENDMDL
MODEL 2
REMARK VINA RESULT:     -10.8      1.887      4.719
REMARK  Name = 
REMARK  5 active torsions:
REMARK  status: ('A' for Active; 'I' for Inactive)
REMARK    1  A    between atoms: C_2  and  C_4
REMARK    2  A    between atoms: C_4  and  C_5
REMARK    3  A    between atoms: C_4  and  N_15
REMARK    4  A    between atoms: C_5  and  C_6
REMARK    5  A    between atoms: C_16  and  C_18
REMARK                            x       y       z     vdW  Elec       q    Type
REMARK                         _______ _______ _______ _____ _____    ______ ____
ROOT
ATOM     15  N   UNL     1      -2.929   1.014  24.339  0.00  0.00    -0.196 NA
ATOM     16  C   UNL     1      -2.398   1.416  24.824  0.00  0.00    +0.261 C 
ATOM     17  O   UNL     1      -2.609   1.606  25.599  0.00  0.00    -0.271 OA
ENDROOT
BRANCH  16  18
ATOM     18  C   UNL     1      -1.655   1.630  24.534  0.00  0.00    +0.172 C 
ATOM     19  C   UNL     1      -1.172   1.063  24.181  0.00  0.00    +0.118 C 
ATOM     20  N   UNL     1      -0.428   1.277  23.891  0.00  0.00    -0.214 NA
ATOM     21  C   UNL     1      -0.170   2.057  23.955  0.00  0.00    +0.110 C 
ATOM     22  C   UNL     1      -0.654   2.625  24.310  0.00  0.00    +0.114 C 
ATOM     23  N   UNL     1      -1.397   2.411  24.599  0.00  0.00    -0.255 N 
ATOM     24  C   UNL     1      -1.881   2.978  24.953  0.00  0.00    +0.308 C 
ATOM     25  O   UNL     1      -2.623   2.764  25.242  0.00  0.00    -0.252 OA
ATOM     26  N   UNL     1      -1.621   3.758  25.017  0.00  0.00    -0.259 N 
ATOM     27  C   UNL     1      -2.105   4.325  25.370  0.00  0.00    +0.127 C 
ATOM     28  C   UNL     1      -1.847   5.106  25.435  0.00  0.00    +0.164 C 
ATOM     29  O   UNL     1      -1.104   5.320  25.146  0.00  0.00    -0.350 OA
ATOM     30  C   UNL     1      -0.620   4.753  24.792  0.00  0.00    +0.164 C 
ATOM     31  C   UNL     1      -0.879   3.972  24.727  0.00  0.00    +0.127 C 
ENDBRANCH  16  18
BRANCH  15   4
ATOM      4  C   UNL     1      -3.672   0.799  24.628  0.00  0.00    +0.179 C 
BRANCH   4   2
ATOM      1  N   UNL     1      -4.837   1.440  25.151  0.00  0.00    -0.086 NA
ATOM      2  C   UNL     1      -4.314   1.306  24.527  0.00  0.00    +0.281 C 
ATOM      3  O   UNL     1      -4.434   1.680  23.801  0.00  0.00    -0.270 OA
ENDBRANCH   4   2
BRANCH   4   5
ATOM      5  C   UNL     1      -3.772   0.079  25.017  0.00  0.00    +0.059 C 
BRANCH   5   6
ATOM      6  C   UNL     1      -3.874  -0.614  24.583  0.00  0.00    +0.001 A 
ATOM      7  C   UNL     1      -4.178  -0.667  23.817  0.00  0.00    +0.095 A 
ATOM      8  N   UNL     1      -4.183  -1.462  23.599  0.00  0.00    -0.244 NA
ATOM      9  C   UNL     1      -3.883  -1.901  24.229  0.00  0.00    +0.081 A 
ATOM     10  C   UNL     1      -3.692  -1.377  24.837  0.00  0.00    +0.015 A 
ATOM     11  C   UNL     1      -3.377  -1.664  25.544  0.00  0.00    +0.001 A 
ATOM     12  C   UNL     1      -3.252  -2.473  25.643  0.00  0.00    +0.000 A 
ATOM     13  C   UNL     1      -3.443  -2.997  25.034  0.00  0.00    +0.002 A 
ATOM     14  C   UNL     1      -3.758  -2.711  24.327  0.00  0.00    +0.019 A 
ENDBRANCH   5   6
ENDBRANCH   4   5
ENDBRANCH  15   4
TORSDOF 5
ENDMDL
MODEL 3
REMARK VINA RESULT:     -10.7      1.613      2.727
REMARK  Name = 
REMARK  5 active torsions:
REMARK  status: ('A' for Active; 'I' for Inactive)
REMARK    1  A    between atoms: C_2  and  C_4
REMARK    2  A    between atoms: C_4  and  C_5
REMARK    3  A    between atoms: C_4  and  N_15
REMARK    4  A    between atoms: C_5  and  C_6
REMARK    5  A    between atoms: C_16  and  C_18
REMARK                            x       y       z     vdW  Elec       q    Type
REMARK                         _______ _______ _______ _____ _____    ______ ____
ROOT
ATOM     15  N   UNL     1      -3.657   1.493  24.833  0.00  0.00    -0.196 NA
ATOM     16  C   UNL     1      -3.414   0.788  24.483  0.00  0.00    +0.261 C 
ATOM     17  O   UNL     1      -3.209   0.773  23.684  0.00  0.00    -0.271 OA
ENDROOT
BRANCH  16  18
ATOM     18  C   UNL     1      -3.374   0.096  24.931  0.00  0.00    +0.172 C 
ATOM     19  C   UNL     1      -4.035  -0.159  25.354  0.00  0.00    +0.118 C 
ATOM     20  N   UNL     1      -3.996  -0.852  25.803  0.00  0.00    -0.214 NA
ATOM     21  C   UNL     1      -3.296  -1.287  25.829  0.00  0.00    +0.110 C 
ATOM     22  C   UNL     1      -2.634  -1.031  25.405  0.00  0.00    +0.114 C 
ATOM     23  N   UNL     1      -2.674  -0.340  24.957  0.00  0.00    -0.255 N 
ATOM     24  C   UNL     1      -2.013  -0.083  24.534  0.00  0.00    +0.308 C 
ATOM     25  O   UNL     1      -2.053   0.608  24.086  0.00  0.00    -0.252 OA
ATOM     26  N   UNL     1      -1.314  -0.520  24.560  0.00  0.00    -0.259 N 
ATOM     27  C   UNL     1      -0.653  -0.264  24.137  0.00  0.00    +0.127 C 
ATOM     28  C   UNL     1       0.047  -0.699  24.163  0.00  0.00    +0.164 C 
ATOM     29  O   UNL     1       0.087  -1.391  24.611  0.00  0.00    -0.350 OA
ATOM     30  C   UNL     1      -0.574  -1.647  25.034  0.00  0.00    +0.164 C 
ATOM     31  C   UNL     1      -1.274  -1.211  25.008  0.00  0.00    +0.127 C 
ENDBRANCH  16  18
BRANCH  15   4
ATOM      4  C   UNL     1      -3.697   2.185  24.385  0.00  0.00    +0.179 C 
BRANCH   4   2
ATOM      1  N   UNL     1      -5.116   2.346  24.419  0.00  0.00    -0.086 NA
ATOM      2  C   UNL     1      -4.401   2.392  24.010  0.00  0.00    +0.281 C 
ATOM      3  O   UNL     1      -4.391   2.647  23.226  0.00  0.00    -0.270 OA
ENDBRANCH   4   2
BRANCH   4   5
ATOM      5  C   UNL     1      -3.032   2.669  24.313  0.00  0.00    +0.059 C 
BRANCH   5   6
ATOM      6  C   UNL     1      -2.897   3.270  24.861  0.00  0.00    +0.001 A 
ATOM      7  C   UNL     1      -3.404   3.491  25.473  0.00  0.00    +0.095 A 
ATOM      8  N   UNL     1      -3.052   4.113  25.884  0.00  0.00    -0.244 NA
ATOM      9  C   UNL     1      -2.328   4.277  25.525  0.00  0.00    +0.081 A 
ATOM     10  C   UNL     1      -2.232   3.756  24.893  0.00  0.00    +0.015 A 
ATOM     11  C   UNL     1      -1.551   3.792  24.429  0.00  0.00    +0.001 A 
ATOM     12  C   UNL     1      -0.966   4.349  24.597  0.00  0.00    +0.000 A 
ATOM     13  C   UNL     1      -1.062   4.870  25.229  0.00  0.00    +0.002 A 
ATOM     14  C   UNL     1      -1.742   4.835  25.694  0.00  0.00    +0.019 A 
ENDBRANCH   5   6
ENDBRANCH   4   5
ENDBRANCH  15   4
TORSDOF 5
ENDMDL
MODEL 4
REMARK VINA RESULT:     -10.6      1.711      2.193
REMARK  Name = 
REMARK  5 active torsions:
REMARK  status: ('A' for Active; 'I' for Inactive)
REMARK    1  A    between atoms: C_2  and  C_4
REMARK    2  A    between atoms: C_4  and  C_5
REMARK    3  A    between atoms: C_4  and  N_15
REMARK    4  A    between atoms: C_5  and  C_6
REMARK    5  A    between atoms: C_16  and  C_18
REMARK                            x       y       z     vdW  Elec       q    Type
REMARK                         _______ _______ _______ _____ _____    ______ ____
ROOT
ATOM     15  N   UNL     1      -1.695   1.107  24.050  0.00  0.00    -0.196 NA
ATOM     16  C   UNL     1      -2.074   0.543  24.515  0.00  0.00    +0.261 C 
ATOM     17  O   UNL     1      -2.844   0.677  24.781  0.00  0.00    -0.271 OA
ENDROOT
BRANCH  16  18
ATOM     18  C   UNL     1      -1.684  -0.156  24.717  0.00  0.00    +0.172 C 
ATOM     19  C   UNL     1      -0.903  -0.131  24.981  0.00  0.00    +0.118 C 
ATOM     20  N   UNL     1      -0.513  -0.830  25.183  0.00  0.00    -0.214 NA
ATOM     21  C   UNL     1      -0.904  -1.553  25.119  0.00  0.00    +0.110 C 
ATOM     22  C   UNL     1      -1.686  -1.578  24.854  0.00  0.00    +0.114 C 
ATOM     23  N   UNL     1      -2.076  -0.880  24.653  0.00  0.00    -0.255 N 
ATOM     24  C   UNL     1      -2.856  -0.904  24.388  0.00  0.00    +0.308 C 
ATOM     25  O   UNL     1      -3.246  -0.205  24.187  0.00  0.00    -0.252 OA
ATOM     26  N   UNL     1      -3.247  -1.628  24.324  0.00  0.00    -0.259 N 
ATOM     27  C   UNL     1      -4.028  -1.653  24.060  0.00  0.00    +0.127 C 
ATOM     28  C   UNL     1      -4.419  -2.377  23.996  0.00  0.00    +0.164 C 
ATOM     29  O   UNL     1      -4.029  -3.075  24.197  0.00  0.00    -0.350 OA
ATOM     30  C   UNL     1      -3.248  -3.051  24.462  0.00  0.00    +0.164 C 
ATOM     31  C   UNL     1      -2.857  -2.327  24.526  0.00  0.00    +0.127 C 
ENDBRANCH  16  18
BRANCH  15   4
ATOM      4  C   UNL     1      -2.085   1.806  23.848  0.00  0.00    +0.179 C 
BRANCH   4   2
ATOM      1  N   UNL     1      -3.193   2.145  23.012  0.00  0.00    -0.086 NA
ATOM      2  C   UNL     1      -2.412   1.893  23.096  0.00  0.00    +0.281 C 
ATOM      3  O   UNL     1      -1.958   1.728  22.428  0.00  0.00    -0.270 OA
ENDBRANCH   4   2
BRANCH   4   5
ATOM      5  C   UNL     1      -2.146   2.418  24.399  0.00  0.00    +0.059 C 
BRANCH   5   6
ATOM      6  C   UNL     1      -1.560   2.996  24.440  0.00  0.00    +0.001 A 
ATOM      7  C   UNL     1      -0.786   2.924  24.163  0.00  0.00    +0.095 A 
ATOM      8  N   UNL     1      -0.393   3.632  24.318  0.00  0.00    -0.244 NA
ATOM      9  C   UNL     1      -0.922   4.141  24.691  0.00  0.00    +0.081 A 
ATOM     10  C   UNL     1      -1.644   3.749  24.767  0.00  0.00    +0.015 A 
ATOM     11  C   UNL     1      -2.284   4.128  25.124  0.00  0.00    +0.001 A 
ATOM     12  C   UNL     1      -2.203   4.899  25.405  0.00  0.00    +0.000 A 
ATOM     13  C   UNL     1      -1.481   5.291  25.329  0.00  0.00    +0.002 A 
ATOM     14  C   UNL     1      -0.840   4.913  24.972  0.00  0.00    +0.019 A 
ENDBRANCH   5   6
ENDBRANCH   4   5
ENDBRANCH  15   4
TORSDOF 5
ENDMDL
MODEL 5
REMARK VINA RESULT:     -10.6      1.403      4.260
REMARK  Name = 
REMARK  5 active torsions:
REMARK  status: ('A' for Active; 'I' for Inactive)
REMARK    1  A    between atoms: C_2  and  C_4
REMARK    2  A    between atoms: C_4  and  C_5
REMARK    3  A    between atoms: C_4  and  N_15
REMARK    4  A    between atoms: C_5  and  C_6
REMARK    5  A    between atoms: C_16  and  C_18
REMARK                            x       y       z     vdW  Elec       q    Type
REMARK                         _______ _______ _______ _____ _____    ______ ____
ROOT
ATOM     15  N   UNL     1      -1.705   1.508  24.796  0.00  0.00    -0.196 NA
ATOM     16  C   UNL     1      -2.138   2.158  24.532  0.00  0.00    +0.261 C 
ATOM     17  O   UNL     1      -2.413   2.182  23.754  0.00  0.00    -0.271 OA
ENDROOT
BRANCH  16  18
ATOM     18  C   UNL     1      -2.296   2.784  25.045  0.00  0.00    +0.172 C 
ATOM     19  C   UNL     1      -1.674   3.212  25.377  0.00  0.00    +0.118 C 
ATOM     20  N   UNL     1      -1.833   3.840  25.891  0.00  0.00    -0.214 NA
ATOM     21  C   UNL     1      -2.612   4.037  26.072  0.00  0.00    +0.110 C 
ATOM     22  C   UNL     1      -3.235   3.609  25.739  0.00  0.00    +0.114 C 
ATOM     23  N   UNL     1      -3.077   2.982  25.226  0.00  0.00    -0.255 N 
ATOM     24  C   UNL     1      -3.698   2.554  24.893  0.00  0.00    +0.308 C 
ATOM     25  O   UNL     1      -3.540   1.927  24.380  0.00  0.00    -0.252 OA
ATOM     26  N   UNL     1      -4.478   2.752  25.074  0.00  0.00    -0.259 N 
ATOM     27  C   UNL     1      -5.099   2.324  24.742  0.00  0.00    +0.127 C 
ATOM     28  C   UNL     1      -5.880   2.522  24.922  0.00  0.00    +0.164 C 
ATOM     29  O   UNL     1      -6.038   3.148  25.435  0.00  0.00    -0.350 OA
ATOM     30  C   UNL     1      -5.417   3.577  25.768  0.00  0.00    +0.164 C 
ATOM     31  C   UNL     1      -4.636   3.379  25.587  0.00  0.00    +0.127 C 
ENDBRANCH  16  18
BRANCH  15   4
ATOM      4  C   UNL     1      -1.546   0.881  24.283  0.00  0.00    +0.179 C 
BRANCH   4   2
ATOM      1  N   UNL     1      -0.120   0.971  24.247  0.00  0.00    -0.086 NA
ATOM      2  C   UNL     1      -0.840   0.867  23.857  0.00  0.00    +0.281 C 
ATOM      3  O   UNL     1      -0.854   0.748  23.041  0.00  0.00    -0.270 OA
ENDBRANCH   4   2
BRANCH   4   5
ATOM      5  C   UNL     1      -2.093   0.269  24.197  0.00  0.00    +0.059 C 
BRANCH   5   6
ATOM      6  C   UNL     1      -2.072  -0.378  24.706  0.00  0.00    +0.001 A 
ATOM      7  C   UNL     1      -1.520  -0.505  25.308  0.00  0.00    +0.095 A 
ATOM      8  N   UNL     1      -1.705  -1.218  25.677  0.00  0.00    -0.244 NA
ATOM      9  C   UNL     1      -2.371  -1.533  25.305  0.00  0.00    +0.081 A 
ATOM     10  C   UNL     1      -2.597  -1.014  24.705  0.00  0.00    +0.015 A 
ATOM     11  C   UNL     1      -3.253  -1.188  24.236  0.00  0.00    +0.001 A 
ATOM     12  C   UNL     1      -3.682  -1.879  24.366  0.00  0.00    +0.000 A 
ATOM     13  C   UNL     1      -3.456  -2.398  24.966  0.00  0.00    +0.002 A 
ATOM     14  C   UNL     1      -2.800  -2.226  25.436  0.00  0.00    +0.019 A 
ENDBRANCH   5   6
ENDBRANCH   4   5
ENDBRANCH  15   4
TORSDOF 5
ENDMDL
MODEL 6
REMARK VINA RESULT:     -10.1      1.516      4.930
REMARK  Name = 
REMARK  5 active torsions:
REMARK  status: ('A' for Active; 'I' for Inactive)
REMARK    1  A    between atoms: C_2  and  C_4
REMARK    2  A    between atoms: C_4  and  C_5
REMARK    3  A    between atoms: C_4  and  N_15
REMARK    4  A    between atoms: C_5  and  C_6
REMARK    5  A    between atoms: C_16  and  C_18
REMARK                            x       y       z     vdW  Elec       q    Type
REMARK                         _______ _______ _______ _____ _____    ______ ____
ROOT
ATOM     15  N   UNL     1      -2.498   1.003  25.242  0.00  0.00    -0.196 NA
ATOM     16  C   UNL     1      -2.613   1.663  24.761  0.00  0.00    +0.261 C 
ATOM     17  O   UNL     1      -2.260   1.696  24.015  0.00  0.00    -0.271 OA
ENDROOT
BRANCH  16  18
ATOM     18  C   UNL     1      -3.081   2.289  25.024  0.00  0.00    +0.172 C 
ATOM     19  C   UNL     1      -3.867   2.156  25.236  0.00  0.00    +0.118 C 
ATOM     20  N   UNL     1      -4.335   2.784  25.500  0.00  0.00    -0.214 NA
ATOM     21  C   UNL     1      -4.016   3.542  25.552  0.00  0.00    +0.110 C 
ATOM     22  C   UNL     1      -3.229   3.675  25.340  0.00  0.00    +0.114 C 
ATOM     23  N   UNL     1      -2.762   3.049  25.077  0.00  0.00    -0.255 N 
ATOM     24  C   UNL     1      -1.975   3.181  24.865  0.00  0.00    +0.308 C 
ATOM     25  O   UNL     1      -1.508   2.554  24.601  0.00  0.00    -0.252 OA
ATOM     26  N   UNL     1      -1.657   3.940  24.917  0.00  0.00    -0.259 N 
ATOM     27  C   UNL     1      -0.871   4.072  24.706  0.00  0.00    +0.127 C 
ATOM     28  C   UNL     1      -0.552   4.832  24.758  0.00  0.00    +0.164 C 
ATOM     29  O   UNL     1      -1.020   5.458  25.021  0.00  0.00    -0.350 OA
ATOM     30  C   UNL     1      -1.806   5.326  25.233  0.00  0.00    +0.164 C 
ATOM     31  C   UNL     1      -2.125   4.567  25.181  0.00  0.00    +0.127 C 
ENDBRANCH  16  18
BRANCH  15   4
ATOM      4  C   UNL     1      -2.031   0.376  24.978  0.00  0.00    +0.179 C 
BRANCH   4   2
ATOM      1  N   UNL     1      -0.656   0.199  24.630  0.00  0.00    -0.086 NA
ATOM      2  C   UNL     1      -1.238   0.333  25.200  0.00  0.00    +0.281 C 
ATOM      3  O   UNL     1      -1.026   0.423  25.992  0.00  0.00    -0.270 OA
ENDBRANCH   4   2
BRANCH   4   5
ATOM      5  C   UNL     1      -2.357  -0.207  24.494  0.00  0.00    +0.059 C 
BRANCH   5   6
ATOM      6  C   UNL     1      -2.702  -0.876  24.829  0.00  0.00    +0.001 A 
ATOM      7  C   UNL     1      -2.574  -1.157  25.594  0.00  0.00    +0.095 A 
ATOM      8  N   UNL     1      -3.030  -1.837  25.696  0.00  0.00    -0.244 NA
ATOM      9  C   UNL     1      -3.439  -1.977  24.995  0.00  0.00    +0.081 A 
ATOM     10  C   UNL     1      -3.237  -1.383  24.459  0.00  0.00    +0.015 A 
ATOM     11  C   UNL     1      -3.567  -1.381  23.702  0.00  0.00    +0.001 A 
ATOM     12  C   UNL     1      -4.098  -1.972  23.482  0.00  0.00    +0.000 A 
ATOM     13  C   UNL     1      -4.300  -2.565  24.018  0.00  0.00    +0.002 A 
ATOM     14  C   UNL     1      -3.971  -2.568  24.774  0.00  0.00    +0.019 A 
ENDBRANCH   5   6
ENDBRANCH   4   5
ENDBRANCH  15   4
TORSDOF 5
ENDMDL
MODEL 7
REMARK VINA RESULT:     -10.0      1.746      2.222
REMARK  Name = 
REMARK  5 active torsions:
REMARK  status: ('A' for Active; 'I' for Inactive)
REMARK    1  A    between atoms: C_2  and  C_4
REMARK    2  A    between atoms: C_4  and  C_5
REMARK    3  A    between atoms: C_4  and  N_15
REMARK    4  A    between atoms: C_5  and  C_6
REMARK    5  A    between atoms: C_16  and  C_18
REMARK                            x       y       z     vdW  Elec       q    Type
REMARK                         _______ _______ _______ _____ _____    ______ ____
ROOT
ATOM     15  N   UNL     1      -0.750   1.529  25.059  0.00  0.00    -0.196 NA
ATOM     16  C   UNL     1      -0.778   0.732  25.268  0.00  0.00    +0.261 C 
ATOM     17  O   UNL     1      -0.957   0.515  26.043  0.00  0.00    -0.271 OA
ENDROOT
BRANCH  16  18
ATOM     18  C   UNL     1      -0.626   0.152  24.701  0.00  0.00    +0.172 C 
ATOM     19  C   UNL     1       0.018   0.232  24.192  0.00  0.00    +0.118 C 
ATOM     20  N   UNL     1       0.170  -0.349  23.624  0.00  0.00    -0.214 NA
ATOM     21  C   UNL     1      -0.321  -1.008  23.568  0.00  0.00    +0.110 C 
ATOM     22  C   UNL     1      -0.966  -1.088  24.078  0.00  0.00    +0.114 C 
ATOM     23  N   UNL     1      -1.118  -0.508  24.644  0.00  0.00    -0.255 N 
ATOM     24  C   UNL     1      -1.762  -0.587  25.154  0.00  0.00    +0.308 C 
ATOM     25  O   UNL     1      -1.914  -0.007  25.721  0.00  0.00    -0.252 OA
ATOM     26  N   UNL     1      -2.253  -1.247  25.097  0.00  0.00    -0.259 N 
ATOM     27  C   UNL     1      -2.897  -1.326  25.607  0.00  0.00    +0.127 C 
ATOM     28  C   UNL     1      -3.389  -1.986  25.550  0.00  0.00    +0.164 C 
ATOM     29  O   UNL     1      -3.237  -2.567  24.983  0.00  0.00    -0.350 OA
ATOM     30  C   UNL     1      -2.594  -2.487  24.473  0.00  0.00    +0.164 C 
ATOM     31  C   UNL     1      -2.101  -1.827  24.530  0.00  0.00    +0.127 C 
ENDBRANCH  16  18
BRANCH  15   4
ATOM      4  C   UNL     1      -0.902   2.110  25.625  0.00  0.00    +0.179 C 
BRANCH   4   2
ATOM      1  N   UNL     1       0.414   2.660  25.701  0.00  0.00    -0.086 NA
ATOM      2  C   UNL     1      -0.283   2.422  26.072  0.00  0.00    +0.281 C 
ATOM      3  O   UNL     1      -0.360   2.495  26.890  0.00  0.00    -0.270 OA
ENDBRANCH   4   2
BRANCH   4   5
ATOM      5  C   UNL     1      -1.673   2.379  25.745  0.00  0.00    +0.059 C 
BRANCH   5   6
ATOM      6  C   UNL     1      -1.990   2.958  25.250  0.00  0.00    +0.001 A 
ATOM      7  C   UNL     1      -1.562   3.454  24.748  0.00  0.00    +0.095 A 
ATOM      8  N   UNL     1      -2.097   3.946  24.359  0.00  0.00    -0.244 NA
ATOM      9  C   UNL     1      -2.855   3.754  24.619  0.00  0.00    +0.081 A 
ATOM     10  C   UNL     1      -2.789   3.144  25.170  0.00  0.00    +0.015 A 
ATOM     11  C   UNL     1      -3.466   2.836  25.528  0.00  0.00    +0.001 A 
ATOM     12  C   UNL     1      -4.208   3.138  25.335  0.00  0.00    +0.000 A 
ATOM     13  C   UNL     1      -4.275   3.748  24.784  0.00  0.00    +0.002 A 
ATOM     14  C   UNL     1      -3.599   4.057  24.426  0.00  0.00    +0.019 A 
ENDBRANCH   5   6
ENDBRANCH   4   5
ENDBRANCH  15   4
TORSDOF 5
ENDMDL
MODEL 8
REMARK VINA RESULT:      -9.9      1.918      4.042
REMARK  Name = 
REMARK  5 active torsions:
REMARK  status: ('A' for Active; 'I' for Inactive)
REMARK    1  A    between atoms: C_2  and  C_4
REMARK    2  A    between atoms: C_4  and  C_5
REMARK    3  A    between atoms: C_4  and  N_15
REMARK    4  A    between atoms: C_5  and  C_6
REMARK    5  A    between atoms: C_16  and  C_18
REMARK                            x       y       z     vdW  Elec       q    Type
REMARK                         _______ _______ _______ _____ _____    ______ ____
ROOT
ATOM     15  N   UNL     1      -2.694   1.246  25.015  0.00  0.00    -0.196 NA
ATOM     16  C   UNL     1      -2.134   1.625  24.545  0.00  0.00    +0.261 C 
ATOM     17  O   UNL     1      -2.265   1.710  23.734  0.00  0.00    -0.271 OA
ENDROOT
BRANCH  16  18
ATOM     18  C   UNL     1      -1.443   1.922  24.884  0.00  0.00    +0.172 C 
ATOM     19  C   UNL     1      -1.487   2.457  25.510  0.00  0.00    +0.118 C 
ATOM     20  N   UNL     1      -0.795   2.754  25.849  0.00  0.00    -0.214 NA
ATOM     21  C   UNL     1      -0.060   2.514  25.562  0.00  0.00    +0.110 C 
ATOM     22  C   UNL     1      -0.016   1.978  24.935  0.00  0.00    +0.114 C 
ATOM     23  N   UNL     1      -0.707   1.682  24.597  0.00  0.00    -0.255 N 
ATOM     24  C   UNL     1      -0.664   1.146  23.971  0.00  0.00    +0.308 C 
ATOM     25  O   UNL     1      -1.355   0.850  23.632  0.00  0.00    -0.252 OA
ATOM     26  N   UNL     1       0.072   0.907  23.684  0.00  0.00    -0.259 N 
ATOM     27  C   UNL     1       0.116   0.371  23.059  0.00  0.00    +0.127 C 
ATOM     28  C   UNL     1       0.852   0.131  22.772  0.00  0.00    +0.164 C 
ATOM     29  O   UNL     1       1.543   0.427  23.110  0.00  0.00    -0.350 OA
ATOM     30  C   UNL     1       1.500   0.963  23.736  0.00  0.00    +0.164 C 
ATOM     31  C   UNL     1       0.764   1.203  24.023  0.00  0.00    +0.127 C 
ENDBRANCH  16  18
BRANCH  15   4
ATOM      4  C   UNL     1      -3.386   0.949  24.677  0.00  0.00    +0.179 C 
BRANCH   4   2
ATOM      1  N   UNL     1      -4.358   1.785  25.307  0.00  0.00    -0.086 NA
ATOM      2  C   UNL     1      -4.057   1.425  24.628  0.00  0.00    +0.281 C 
ATOM      3  O   UNL     1      -4.428   1.543  23.901  0.00  0.00    -0.270 OA
ENDBRANCH   4   2
BRANCH   4   5
ATOM      5  C   UNL     1      -3.406   0.177  24.387  0.00  0.00    +0.059 C 
BRANCH   5   6
ATOM      6  C   UNL     1      -3.469  -0.458  24.910  0.00  0.00    +0.001 A 
ATOM      7  C   UNL     1      -3.506  -0.408  25.733  0.00  0.00    +0.095 A 
ATOM      8  N   UNL     1      -3.565  -1.174  26.032  0.00  0.00    -0.244 NA
ATOM      9  C   UNL     1      -3.565  -1.697  25.396  0.00  0.00    +0.081 A 
ATOM     10  C   UNL     1      -3.506  -1.255  24.702  0.00  0.00    +0.015 A 
ATOM     11  C   UNL     1      -3.493  -1.637  23.970  0.00  0.00    +0.001 A 
ATOM     12  C   UNL     1      -3.539  -2.459  23.932  0.00  0.00    +0.000 A 
ATOM     13  C   UNL     1      -3.599  -2.901  24.626  0.00  0.00    +0.002 A 
ATOM     14  C   UNL     1      -3.612  -2.521  25.358  0.00  0.00    +0.019 A 
ENDBRANCH   5   6
ENDBRANCH   4   5
ENDBRANCH  15   4
TORSDOF 5
ENDMDL
