MODEL 1
REMARK VINA RESULT:     -11.9      0.000      0.000
REMARK  Name = 
REMARK  5 active torsions:
REMARK  status: ('A' for Active; 'I' for Inactive)
REMARK    1  A    between atoms: N_4  and  C_5
REMARK    2  A    between atoms: C_8  and  C_9
REMARK    3  A    between atoms: C_9  and  N_10
REMARK    4  A    between atoms: C_15  and  C_16
REMARK    5  A    between atoms: C_18  and  C_21
REMARK                            x       y       z     vdW  Elec       q    Type
REMARK                         _______ _______ _______ _____ _____    ______ ____
ROOT
ATOM     10  N   UNL     1      -4.580   1.582  24.971  0.00  0.00    -0.260 NA
ATOM     11  C   UNL     1      -5.242   1.269  25.352  0.00  0.00    +0.106 C 
ATOM     12  C   UNL     1      -5.662   1.896  25.686  0.00  0.00    +0.170 C 
ATOM     13  O   UNL     1      -6.362   1.834  26.118  0.00  0.00    -0.222 OA
ATOM     14  C   UNL     1      -5.259   2.595  25.512  0.00  0.00    +0.060 C 
ATOM     15  C   UNL     1      -4.590   2.400  25.070  0.00  0.00    +0.140 C 
ENDROOT
BRANCH  15  16
ATOM     16  C   UNL     1      -4.030   2.930  24.778  0.00  0.00    +0.251 A 
ATOM     17  N   UNL     1      -3.319   3.135  25.144  0.00  0.00    -0.190 NA
ATOM     18  C   UNL     1      -2.932   3.681  24.662  0.00  0.00    +0.205 A 
ATOM     19  N   UNL     1      -3.403   3.813  23.998  0.00  0.00    -0.056 NA
ATOM     20  O   UNL     1      -4.081   3.350  24.070  0.00  0.00    -0.336 OA
BRANCH  18  21
ATOM     21  C   UNL     1      -2.202   4.032  24.816  0.00  0.00    +0.058 A 
ATOM     22  C   UNL     1      -2.167   4.821  25.055  0.00  0.00    +0.006 A 
ATOM     23  C   UNL     1      -1.436   5.173  25.210  0.00  0.00    +0.021 A 
ATOM     24  C   UNL     1      -0.742   4.736  25.125  0.00  0.00    +0.099 A 
ATOM     25  N   UNL     1      -0.777   3.947  24.886  0.00  0.00    -0.242 NA
ATOM     26  C   UNL     1      -1.507   3.595  24.732  0.00  0.00    +0.102 A 
ENDBRANCH  18  21
ENDBRANCH  15  16
BRANCH  10   9
ATOM      9  C   UNL     1      -4.007   1.150  24.564  0.00  0.00    +0.100 C 
BRANCH   9   8
ATOM      5  C   UNL     1      -3.923  -1.315  24.786  0.00  0.00    +0.073 A 
ATOM      6  C   UNL     1      -4.303  -0.972  24.139  0.00  0.00    +0.016 A 
ATOM      7  C   UNL     1      -4.331  -0.151  24.064  0.00  0.00    -0.002 A 
ATOM      8  C   UNL     1      -3.979   0.328  24.638  0.00  0.00    -0.006 A 
ATOM     27  C   UNL     1      -3.599  -0.015  25.285  0.00  0.00    -0.002 A 
ATOM     28  C   UNL     1      -3.571  -0.837  25.358  0.00  0.00    +0.016 A 
BRANCH   5   4
ATOM      1  C   UNL     1      -3.215  -3.375  24.648  0.00  0.00    +0.097 C 
ATOM      2  C   UNL     1      -3.243  -2.553  24.574  0.00  0.00    +0.246 C 
ATOM      3  O   UNL     1      -2.620  -2.150  24.215  0.00  0.00    -0.273 OA
ATOM      4  N   UNL     1      -3.895  -2.135  24.860  0.00  0.00    -0.179 NA
ENDBRANCH   5   4
ENDBRANCH   9   8
ENDBRANCH  10   9
TORSDOF 5
ENDMDL
MODEL 2
REMARK VINA RESULT:     -11.1      2.344      3.269
REMARK  Name = 
REMARK  5 active torsions:
REMARK  status: ('A' for Active; 'I' for Inactive)
REMARK    1  A    between atoms: N_4  and  C_5
REMARK    2  A    between atoms: C_8  and  C_9
REMARK    3  A    between atoms: C_9  and  N_10
REMARK    4  A    between atoms: C_15  and  C_16
REMARK    5  A    between atoms: C_18  and  C_21
REMARK                            x       y       z     vdW  Elec       q    Type
REMARK                         _______ _______ _______ _____ _____    ______ ____
ROOT
ATOM     10  N   UNL     1      -0.706   0.521  24.736  0.00  0.00    -0.260 NA
ATOM     11  C   UNL     1      -0.448  -0.071  24.223  0.00  0.00    +0.106 C 
ATOM     12  C   UNL     1       0.163   0.240  23.763  0.00  0.00    +0.170 C 
ATOM     13  O   UNL     1       0.582  -0.161  23.177  0.00  0.00    -0.222 OA
ATOM     14  C   UNL     1       0.281   1.024  23.993  0.00  0.00    +0.060 C 
ATOM     15  C   UNL     1      -0.257   1.197  24.595  0.00  0.00    +0.140 C 
ENDROOT
BRANCH  15  16
ATOM     16  C   UNL     1      -0.331   1.919  24.986  0.00  0.00    +0.251 A 
ATOM     17  N   UNL     1      -0.790   2.559  24.740  0.00  0.00    -0.190 NA
ATOM     18  C   UNL     1      -0.702   3.164  25.293  0.00  0.00    +0.205 A 
ATOM     19  N   UNL     1      -0.189   2.898  25.881  0.00  0.00    -0.056 NA
ATOM     20  O   UNL     1       0.040   2.130  25.691  0.00  0.00    -0.336 OA
BRANCH  18  21
ATOM     21  C   UNL     1      -1.065   3.905  25.264  0.00  0.00    +0.058 A 
ATOM     22  C   UNL     1      -0.673   4.542  24.916  0.00  0.00    +0.006 A 
ATOM     23  C   UNL     1      -1.035   5.283  24.886  0.00  0.00    +0.021 A 
ATOM     24  C   UNL     1      -1.789   5.386  25.204  0.00  0.00    +0.099 A 
ATOM     25  N   UNL     1      -2.181   4.749  25.552  0.00  0.00    -0.242 NA
ATOM     26  C   UNL     1      -1.819   4.008  25.582  0.00  0.00    +0.102 A 
ENDBRANCH  18  21
ENDBRANCH  15  16
BRANCH  10   9
ATOM      9  C   UNL     1      -1.309   0.448  25.294  0.00  0.00    +0.100 C 
BRANCH   9   8
ATOM      5  C   UNL     1      -3.000  -1.346  25.063  0.00  0.00    +0.073 A 
ATOM      6  C   UNL     1      -3.087  -0.640  24.644  0.00  0.00    +0.016 A 
ATOM      7  C   UNL     1      -2.524  -0.042  24.721  0.00  0.00    -0.002 A 
ATOM      8  C   UNL     1      -1.873  -0.150  25.217  0.00  0.00    -0.006 A 
ATOM     27  C   UNL     1      -1.786  -0.856  25.636  0.00  0.00    -0.002 A 
ATOM     28  C   UNL     1      -2.350  -1.453  25.558  0.00  0.00    +0.016 A 
BRANCH   5   4
ATOM      1  C   UNL     1      -3.993  -3.169  24.390  0.00  0.00    +0.097 C 
ATOM      2  C   UNL     1      -3.429  -2.572  24.467  0.00  0.00    +0.246 C 
ATOM      3  O   UNL     1      -2.733  -2.602  24.027  0.00  0.00    -0.273 OA
ATOM      4  N   UNL     1      -3.563  -1.943  24.986  0.00  0.00    -0.179 NA
ENDBRANCH   5   4
ENDBRANCH   9   8
ENDBRANCH  10   9
TORSDOF 5
ENDMDL
MODEL 3
REMARK VINA RESULT:     -11.0      1.256      5.174
REMARK  Name = 
REMARK  5 active torsions:
REMARK  status: ('A' for Active; 'I' for Inactive)
REMARK    1  A    between atoms: N_4  and  C_5
REMARK    2  A    between atoms: C_8  and  C_9
REMARK    3  A    between atoms: C_9  and  N_10
REMARK    4  A    between atoms: C_15  and  C_16
REMARK    5  A    between atoms: C_18  and  C_21
REMARK                            x       y       z     vdW  Elec       q    Type
REMARK                         _______ _______ _______ _____ _____    ______ ____
ROOT
ATOM     10  N   UNL     1      -4.149   1.959  25.096  0.00  0.00    -0.260 NA
ATOM     11  C   UNL     1      -4.625   2.541  25.436  0.00  0.00    +0.106 C 
ATOM     12  C   UNL     1      -5.394   2.247  25.481  0.00  0.00    +0.170 C 
ATOM     13  O   UNL     1      -6.049   2.646  25.784  0.00  0.00    -0.222 OA
ATOM     14  C   UNL     1      -5.393   1.483  25.169  0.00  0.00    +0.060 C 
ATOM     15  C   UNL     1      -4.623   1.305  24.931  0.00  0.00    +0.140 C 
ENDROOT
BRANCH  15  16
ATOM     16  C   UNL     1      -4.372   0.599  24.589  0.00  0.00    +0.251 A 
ATOM     17  N   UNL     1      -4.254  -0.117  24.984  0.00  0.00    -0.190 NA
ATOM     18  C   UNL     1      -4.004  -0.675  24.431  0.00  0.00    +0.205 A 
ATOM     19  N   UNL     1      -3.968  -0.306  23.695  0.00  0.00    -0.056 NA
ATOM     20  O   UNL     1      -4.195   0.480  23.792  0.00  0.00    -0.336 OA
BRANCH  18  21
ATOM     21  C   UNL     1      -3.822  -1.465  24.588  0.00  0.00    +0.058 A 
ATOM     22  C   UNL     1      -4.010  -2.048  24.036  0.00  0.00    +0.006 A 
ATOM     23  C   UNL     1      -3.828  -2.838  24.192  0.00  0.00    +0.021 A 
ATOM     24  C   UNL     1      -3.458  -3.043  24.900  0.00  0.00    +0.099 A 
ATOM     25  N   UNL     1      -3.269  -2.460  25.452  0.00  0.00    -0.242 NA
ATOM     26  C   UNL     1      -3.451  -1.670  25.295  0.00  0.00    +0.102 A 
ENDBRANCH  18  21
ENDBRANCH  15  16
BRANCH  10   9
ATOM      9  C   UNL     1      -3.340   2.021  24.948  0.00  0.00    +0.100 C 
BRANCH   9   8
ATOM      5  C   UNL     1      -2.213   4.218  25.123  0.00  0.00    +0.073 A 
ATOM      6  C   UNL     1      -2.153   3.673  25.740  0.00  0.00    +0.016 A 
ATOM      7  C   UNL     1      -2.528   2.941  25.682  0.00  0.00    -0.002 A 
ATOM      8  C   UNL     1      -2.964   2.754  25.006  0.00  0.00    -0.006 A 
ATOM     27  C   UNL     1      -3.024   3.298  24.389  0.00  0.00    -0.002 A 
ATOM     28  C   UNL     1      -2.648   4.031  24.449  0.00  0.00    +0.016 A 
BRANCH   5   4
ATOM      1  C   UNL     1      -0.691   5.774  24.959  0.00  0.00    +0.097 C 
ATOM      2  C   UNL     1      -1.066   5.041  24.900  0.00  0.00    +0.246 C 
ATOM      3  O   UNL     1      -0.672   4.402  24.561  0.00  0.00    -0.273 OA
ATOM      4  N   UNL     1      -1.837   4.949  25.182  0.00  0.00    -0.179 NA
ENDBRANCH   5   4
ENDBRANCH   9   8
ENDBRANCH  10   9
TORSDOF 5
ENDMDL
MODEL 4
REMARK VINA RESULT:     -10.9      2.291      5.967
REMARK  Name = 
REMARK  5 active torsions:
REMARK  status: ('A' for Active; 'I' for Inactive)
REMARK    1  A    between atoms: N_4  and  C_5
REMARK    2  A    between atoms: C_8  and  C_9
REMARK    3  A    between atoms: C_9  and  N_10
REMARK    4  A    between atoms: C_15  and  C_16
REMARK    5  A    between atoms: C_18  and  C_21
REMARK                            x       y       z     vdW  Elec       q    Type
REMARK                         _______ _______ _______ _____ _____    ______ ____
ROOT
ATOM     10  N   UNL     1      -0.687   0.853  24.805  0.00  0.00    -0.260 NA
ATOM     11  C   UNL     1      -0.064   1.252  24.441  0.00  0.00    +0.106 C 
ATOM     12  C   UNL     1       0.311   0.725  23.928  0.00  0.00    +0.170 C 
ATOM     13  O   UNL     1       0.963   0.893  23.452  0.00  0.00    -0.222 OA
ATOM     14  C   UNL     1      -0.081   0.000  23.976  0.00  0.00    +0.060 C 
ATOM     15  C   UNL     1      -0.698   0.080  24.519  0.00  0.00    +0.140 C 
ENDROOT
BRANCH  15  16
ATOM     16  C   UNL     1      -1.231  -0.510  24.736  0.00  0.00    +0.251 A 
ATOM     17  N   UNL     1      -1.890  -0.752  24.302  0.00  0.00    -0.190 NA
ATOM     18  C   UNL     1      -2.266  -1.353  24.723  0.00  0.00    +0.205 A 
ATOM     19  N   UNL     1      -1.840  -1.483  25.417  0.00  0.00    -0.056 NA
ATOM     20  O   UNL     1      -1.201  -0.963  25.425  0.00  0.00    -0.336 OA
BRANCH  18  21
ATOM     21  C   UNL     1      -2.949  -1.754  24.490  0.00  0.00    +0.058 A 
ATOM     22  C   UNL     1      -3.602  -1.331  24.216  0.00  0.00    +0.006 A 
ATOM     23  C   UNL     1      -4.285  -1.732  23.983  0.00  0.00    +0.021 A 
ATOM     24  C   UNL     1      -4.314  -2.556  24.026  0.00  0.00    +0.099 A 
ATOM     25  N   UNL     1      -3.661  -2.979  24.300  0.00  0.00    -0.242 NA
ATOM     26  C   UNL     1      -2.978  -2.577  24.533  0.00  0.00    +0.102 A 
ENDBRANCH  18  21
ENDBRANCH  15  16
BRANCH  10   9
ATOM      9  C   UNL     1      -1.208   1.172  25.359  0.00  0.00    +0.100 C 
BRANCH   9   8
ATOM      5  C   UNL     1      -1.610   3.614  25.419  0.00  0.00    +0.073 A 
ATOM      6  C   UNL     1      -1.028   3.280  25.899  0.00  0.00    +0.016 A 
ATOM      7  C   UNL     1      -0.894   2.466  25.879  0.00  0.00    -0.002 A 
ATOM      8  C   UNL     1      -1.342   1.986  25.379  0.00  0.00    -0.006 A 
ATOM     27  C   UNL     1      -1.924   2.320  24.899  0.00  0.00    -0.002 A 
ATOM     28  C   UNL     1      -2.058   3.134  24.919  0.00  0.00    +0.016 A 
BRANCH   5   4
ATOM      1  C   UNL     1      -1.384   5.751  25.037  0.00  0.00    +0.097 C 
ATOM      2  C   UNL     1      -1.250   4.937  25.017  0.00  0.00    +0.246 C 
ATOM      3  O   UNL     1      -0.623   4.633  24.576  0.00  0.00    -0.273 OA
ATOM      4  N   UNL     1      -1.744   4.427  25.439  0.00  0.00    -0.179 NA
ENDBRANCH   5   4
ENDBRANCH   9   8
ENDBRANCH  10   9
TORSDOF 5
ENDMDL
MODEL 5
REMARK VINA RESULT:      -9.6      2.505      4.287
REMARK  Name = 
REMARK  5 active torsions:
REMARK  status: ('A' for Active; 'I' for Inactive)
REMARK    1  A    between atoms: N_4  and  C_5
REMARK    2  A    between atoms: C_8  and  C_9
REMARK    3  A    between atoms: C_9  and  N_10
REMARK    4  A    between atoms: C_15  and  C_16
REMARK    5  A    between atoms: C_18  and  C_21
REMARK                            x       y       z     vdW  Elec       q    Type
REMARK                         _______ _______ _______ _____ _____    ______ ____
ROOT
ATOM     10  N   UNL     1      -1.426   3.673  25.305  0.00  0.00    -0.260 NA
ATOM     11  C   UNL     1      -0.803   4.146  25.041  0.00  0.00    +0.106 C 
ATOM     12  C   UNL     1      -1.078   4.923  24.992  0.00  0.00    +0.170 C 
ATOM     13  O   UNL     1      -0.637   5.577  24.751  0.00  0.00    -0.222 OA
ATOM     14  C   UNL     1      -1.869   4.929  25.224  0.00  0.00    +0.060 C 
ATOM     15  C   UNL     1      -2.084   4.156  25.418  0.00  0.00    +0.140 C 
ENDROOT
BRANCH  15  16
ATOM     16  C   UNL     1      -2.827   3.910  25.678  0.00  0.00    +0.251 A 
ATOM     17  N   UNL     1      -3.379   3.484  25.237  0.00  0.00    -0.190 NA
ATOM     18  C   UNL     1      -4.042   3.358  25.711  0.00  0.00    +0.205 A 
ATOM     19  N   UNL     1      -3.899   3.705  26.445  0.00  0.00    -0.056 NA
ATOM     20  O   UNL     1      -3.149   4.046  26.425  0.00  0.00    -0.336 OA
BRANCH  18  21
ATOM     21  C   UNL     1      -4.727   2.954  25.490  0.00  0.00    +0.058 A 
ATOM     22  C   UNL     1      -4.674   2.283  25.013  0.00  0.00    +0.006 A 
ATOM     23  C   UNL     1      -5.360   1.880  24.792  0.00  0.00    +0.021 A 
ATOM     24  C   UNL     1      -6.097   2.148  25.048  0.00  0.00    +0.099 A 
ATOM     25  N   UNL     1      -6.149   2.819  25.525  0.00  0.00    -0.242 NA
ATOM     26  C   UNL     1      -5.464   3.222  25.746  0.00  0.00    +0.102 A 
ENDBRANCH  18  21
ENDBRANCH  15  16
BRANCH  10   9
ATOM      9  C   UNL     1      -1.395   2.859  25.433  0.00  0.00    +0.100 C 
BRANCH   9   8
ATOM      5  C   UNL     1       0.120   1.449  24.074  0.00  0.00    +0.073 A 
ATOM      6  C   UNL     1      -0.613   1.676  23.772  0.00  0.00    +0.016 A 
ATOM      7  C   UNL     1      -1.118   2.146  24.224  0.00  0.00    -0.002 A 
ATOM      8  C   UNL     1      -0.889   2.388  24.980  0.00  0.00    -0.006 A 
ATOM     27  C   UNL     1      -0.156   2.161  25.282  0.00  0.00    -0.002 A 
ATOM     28  C   UNL     1       0.348   1.691  24.828  0.00  0.00    +0.016 A 
BRANCH   5   4
ATOM      1  C   UNL     1       0.979  -0.298  23.086  0.00  0.00    +0.097 C 
ATOM      2  C   UNL     1       0.474   0.171  23.540  0.00  0.00    +0.246 C 
ATOM      3  O   UNL     1      -0.181  -0.165  23.910  0.00  0.00    -0.273 OA
ATOM      4  N   UNL     1       0.625   0.979  23.622  0.00  0.00    -0.179 NA
ENDBRANCH   5   4
ENDBRANCH   9   8
ENDBRANCH  10   9
TORSDOF 5
ENDMDL
MODEL 6
REMARK VINA RESULT:      -9.5      2.058      3.425
REMARK  Name = 
REMARK  5 active torsions:
REMARK  status: ('A' for Active; 'I' for Inactive)
REMARK    1  A    between atoms: N_4  and  C_5
REMARK    2  A    between atoms: C_8  and  C_9
REMARK    3  A    between atoms: C_9  and  N_10
REMARK    4  A    between atoms: C_15  and  C_16
REMARK    5  A    between atoms: C_18  and  C_21
REMARK                            x       y       z     vdW  Elec       q    Type
REMARK                         _______ _______ _______ _____ _____    ______ ____
ROOT
ATOM     10  N   UNL     1      -1.025   2.021  25.149  0.00  0.00    -0.260 NA
ATOM     11  C   UNL     1      -0.293   1.914  25.513  0.00  0.00    +0.106 C 
ATOM     12  C   UNL     1      -0.160   2.559  26.011  0.00  0.00    +0.170 C 
ATOM     13  O   UNL     1       0.506   2.678  26.483  0.00  0.00    -0.222 OA
ATOM     14  C   UNL     1      -0.810   3.064  25.953  0.00  0.00    +0.060 C 
ATOM     15  C   UNL     1      -1.345   2.731  25.420  0.00  0.00    +0.140 C 
ENDROOT
BRANCH  15  16
ATOM     16  C   UNL     1      -2.071   3.051  25.198  0.00  0.00    +0.251 A 
ATOM     17  N   UNL     1      -2.807   2.852  25.515  0.00  0.00    -0.190 NA
ATOM     18  C   UNL     1      -3.380   3.305  25.132  0.00  0.00    +0.205 A 
ATOM     19  N   UNL     1      -2.999   3.784  24.580  0.00  0.00    -0.056 NA
ATOM     20  O   UNL     1      -2.191   3.627  24.620  0.00  0.00    -0.336 OA
BRANCH  18  21
ATOM     21  C   UNL     1      -4.192   3.283  25.278  0.00  0.00    +0.058 A 
ATOM     22  C   UNL     1      -4.638   2.636  25.028  0.00  0.00    +0.006 A 
ATOM     23  C   UNL     1      -5.450   2.614  25.173  0.00  0.00    +0.021 A 
ATOM     24  C   UNL     1      -5.816   3.239  25.568  0.00  0.00    +0.099 A 
ATOM     25  N   UNL     1      -5.370   3.886  25.818  0.00  0.00    -0.242 NA
ATOM     26  C   UNL     1      -4.558   3.909  25.673  0.00  0.00    +0.102 A 
ENDBRANCH  18  21
ENDBRANCH  15  16
BRANCH  10   9
ATOM      9  C   UNL     1      -1.376   1.507  24.607  0.00  0.00    +0.100 C 
BRANCH   9   8
ATOM      5  C   UNL     1      -1.066  -0.938  24.841  0.00  0.00    +0.073 A 
ATOM      6  C   UNL     1      -0.623  -0.517  24.286  0.00  0.00    +0.016 A 
ATOM      7  C   UNL     1      -0.726   0.298  24.208  0.00  0.00    -0.002 A 
ATOM      8  C   UNL     1      -1.273   0.692  24.685  0.00  0.00    -0.006 A 
ATOM     27  C   UNL     1      -1.716   0.271  25.240  0.00  0.00    -0.002 A 
ATOM     28  C   UNL     1      -1.612  -0.544  25.317  0.00  0.00    +0.016 A 
BRANCH   5   4
ATOM      1  C   UNL     1      -1.423  -3.086  24.688  0.00  0.00    +0.097 C 
ATOM      2  C   UNL     1      -1.527  -2.271  24.610  0.00  0.00    +0.246 C 
ATOM      3  O   UNL     1      -2.193  -1.974  24.225  0.00  0.00    -0.273 OA
ATOM      4  N   UNL     1      -0.963  -1.752  24.918  0.00  0.00    -0.179 NA
ENDBRANCH   5   4
ENDBRANCH   9   8
ENDBRANCH  10   9
TORSDOF 5
ENDMDL
