MODEL 1
REMARK VINA RESULT:      -9.9      0.000      0.000
REMARK  Name = 
REMARK  9 active torsions:
REMARK  status: ('A' for Active; 'I' for Inactive)
REMARK    1  A    between atoms: O_2  and  C_3
REMARK    2  A    between atoms: C_6  and  C_7
REMARK    3  A    between atoms: C_7  and  C_8
REMARK    4  A    between atoms: C_13  and  C_14
REMARK    5  A    between atoms: C_14  and  C_15
REMARK    6  A    between atoms: C_18  and  C_19
REMARK    7  A    between atoms: C_19  and  C_20
REMARK    8  A    between atoms: C_20  and  N_21
REMARK    9  A    between atoms: C_24  and  N_27
REMARK                            x       y       z     vdW  Elec       q    Type
REMARK                         _______ _______ _______ _____ _____    ______ ____
ROOT
ATOM      8  C   UNL     1       1.571   0.445  23.084  0.00  0.00    +0.230 C 
ATOM      9  O   UNL     1       1.687   1.261  23.105  0.00  0.00    -0.275 OA
ATOM     10  N   UNL     1       0.894   0.116  23.422  0.00  0.00    -0.279 N 
ATOM     11  C   UNL     1       0.778  -0.701  23.400  0.00  0.00    +0.093 C 
ATOM     12  C   UNL     1       0.102  -1.031  23.738  0.00  0.00    +0.022 C 
ATOM     13  C   UNL     1      -0.459  -0.544  24.098  0.00  0.00    +0.015 C 
ATOM     18  C   UNL     1      -0.343   0.273  24.120  0.00  0.00    +0.022 C 
ATOM     37  C   UNL     1       0.334   0.602  23.782  0.00  0.00    +0.093 C 
ENDROOT
BRANCH   8   7
ATOM      7  C   UNL     1       2.131  -0.041  22.724  0.00  0.00    +0.112 C 
BRANCH   7   6
ATOM      3  C   UNL     1       4.545   0.387  23.062  0.00  0.00    +0.139 A 
ATOM      4  C   UNL     1       4.077   0.946  22.677  0.00  0.00    +0.037 A 
ATOM      5  C   UNL     1       3.272   0.804  22.564  0.00  0.00    -0.001 A 
ATOM      6  C   UNL     1       2.936   0.102  22.836  0.00  0.00    -0.013 A 
ATOM     38  C   UNL     1       3.404  -0.458  23.221  0.00  0.00    -0.001 A 
ATOM     39  C   UNL     1       4.208  -0.316  23.334  0.00  0.00    +0.037 A 
BRANCH   3   2
ATOM      1  C   UNL     1       5.755   0.142  23.781  0.00  0.00    +0.252 C 
ATOM      2  O   UNL     1       5.350   0.529  23.175  0.00  0.00    -0.471 OA
ENDBRANCH   3   2
ENDBRANCH   7   6
ENDBRANCH   8   7
BRANCH  13  14
ATOM     14  C   UNL     1      -1.135  -0.874  24.437  0.00  0.00    +0.114 C 
BRANCH  14  15
ATOM     15  C   UNL     1      -1.151  -1.676  24.628  0.00  0.00    +0.365 C 
ATOM     16  O   UNL     1      -0.794  -1.942  25.321  0.00  0.00    -0.246 OA
ATOM     17  O   UNL     1      -1.526  -2.212  24.125  0.00  0.00    -0.246 OA
ENDBRANCH  14  15
ENDBRANCH  13  14
BRANCH  18  19
ATOM     19  C   UNL     1      -0.903   0.759  24.480  0.00  0.00    +0.019 C 
BRANCH  19  20
ATOM     20  C   UNL     1      -1.090   1.490  24.147  0.00  0.00    +0.072 C 
BRANCH  20  21
ATOM     21  N   UNL     1      -1.786   1.877  24.365  0.00  0.00    -0.273 NA
ATOM     22  C   UNL     1      -1.895   2.118  25.147  0.00  0.00    +0.074 C 
ATOM     23  C   UNL     1      -2.591   2.505  25.365  0.00  0.00    +0.040 C 
ATOM     24  C   UNL     1      -3.176   2.651  24.802  0.00  0.00    +0.093 C 
ATOM     25  C   UNL     1      -3.066   2.409  24.021  0.00  0.00    +0.040 C 
ATOM     26  C   UNL     1      -2.371   2.023  23.803  0.00  0.00    +0.074 C 
BRANCH  24  27
ATOM     27  N   UNL     1      -3.871   3.038  25.021  0.00  0.00    -0.280 N 
ATOM     28  C   UNL     1      -3.972   3.854  25.082  0.00  0.00    +0.350 A 
ATOM     29  O   UNL     1      -3.397   4.427  24.936  0.00  0.00    -0.244 OA
ATOM     30  N   UNL     1      -4.750   3.997  25.316  0.00  0.00    -0.191 NA
ATOM     31  C   UNL     1      -5.129   3.270  25.399  0.00  0.00    +0.102 A 
ATOM     32  C   UNL     1      -4.586   2.677  25.216  0.00  0.00    +0.082 A 
ATOM     33  C   UNL     1      -4.813   1.884  25.252  0.00  0.00    +0.019 A 
ATOM     34  C   UNL     1      -5.583   1.685  25.470  0.00  0.00    +0.002 A 
ATOM     35  C   UNL     1      -6.126   2.278  25.652  0.00  0.00    +0.002 A 
ATOM     36  C   UNL     1      -5.900   3.071  25.617  0.00  0.00    +0.021 A 
ENDBRANCH  24  27
ENDBRANCH  20  21
ENDBRANCH  19  20
ENDBRANCH  18  19
TORSDOF 9
ENDMDL
MODEL 2
REMARK VINA RESULT:      -9.2      1.733      7.046
REMARK  Name = 
REMARK  9 active torsions:
REMARK  status: ('A' for Active; 'I' for Inactive)
REMARK    1  A    between atoms: O_2  and  C_3
REMARK    2  A    between atoms: C_6  and  C_7
REMARK    3  A    between atoms: C_7  and  C_8
REMARK    4  A    between atoms: C_13  and  C_14
REMARK    5  A    between atoms: C_14  and  C_15
REMARK    6  A    between atoms: C_18  and  C_19
REMARK    7  A    between atoms: C_19  and  C_20
REMARK    8  A    between atoms: C_20  and  N_21
REMARK    9  A    between atoms: C_24  and  N_27
REMARK                            x       y       z     vdW  Elec       q    Type
REMARK                         _______ _______ _______ _____ _____    ______ ____
ROOT
ATOM      8  C   UNL     1      -3.876   1.101  24.725  0.00  0.00    +0.230 C 
ATOM      9  O   UNL     1      -3.378   1.752  24.628  0.00  0.00    -0.275 OA
ATOM     10  N   UNL     1      -3.563   0.338  24.721  0.00  0.00    -0.279 N 
ATOM     11  C   UNL     1      -4.060  -0.313  24.818  0.00  0.00    +0.093 C 
ATOM     12  C   UNL     1      -3.748  -1.076  24.814  0.00  0.00    +0.022 C 
ATOM     13  C   UNL     1      -2.936  -1.189  24.712  0.00  0.00    +0.015 C 
ATOM     18  C   UNL     1      -2.439  -0.538  24.615  0.00  0.00    +0.022 C 
ATOM     37  C   UNL     1      -2.752   0.225  24.619  0.00  0.00    +0.093 C 
ENDROOT
BRANCH   8   7
ATOM      7  C   UNL     1      -4.686   1.214  24.827  0.00  0.00    +0.112 C 
BRANCH   7   6
ATOM      3  C   UNL     1      -5.543   3.390  25.638  0.00  0.00    +0.139 A 
ATOM      4  C   UNL     1      -5.037   3.363  24.988  0.00  0.00    +0.037 A 
ATOM      5  C   UNL     1      -4.751   2.638  24.717  0.00  0.00    -0.001 A 
ATOM      6  C   UNL     1      -4.972   1.939  25.097  0.00  0.00    -0.013 A 
ATOM     38  C   UNL     1      -5.479   1.967  25.748  0.00  0.00    -0.001 A 
ATOM     39  C   UNL     1      -5.764   2.691  26.019  0.00  0.00    +0.037 A 
BRANCH   3   2
ATOM      1  C   UNL     1      -5.854   4.764  25.400  0.00  0.00    +0.252 C 
ATOM      2  O   UNL     1      -5.829   4.115  25.909  0.00  0.00    -0.471 OA
ENDBRANCH   3   2
ENDBRANCH   7   6
ENDBRANCH   8   7
BRANCH  13  14
ATOM     14  C   UNL     1      -2.624  -1.952  24.707  0.00  0.00    +0.114 C 
BRANCH  14  15
ATOM     15  C   UNL     1      -3.128  -2.605  24.725  0.00  0.00    +0.365 C 
ATOM     16  O   UNL     1      -3.388  -2.944  24.020  0.00  0.00    -0.246 OA
ATOM     17  O   UNL     1      -3.371  -2.918  25.448  0.00  0.00    -0.246 OA
ENDBRANCH  14  15
ENDBRANCH  13  14
BRANCH  18  19
ATOM     19  C   UNL     1      -1.628  -0.651  24.513  0.00  0.00    +0.019 C 
BRANCH  19  20
ATOM     20  C   UNL     1      -1.119  -0.002  24.500  0.00  0.00    +0.072 C 
BRANCH  20  21
ATOM     21  N   UNL     1      -0.456  -0.007  24.009  0.00  0.00    -0.273 NA
ATOM     22  C   UNL     1      -0.287   0.648  23.537  0.00  0.00    +0.074 C 
ATOM     23  C   UNL     1       0.377   0.643  23.047  0.00  0.00    +0.040 C 
ATOM     24  C   UNL     1       0.871  -0.018  23.028  0.00  0.00    +0.093 C 
ATOM     25  C   UNL     1       0.701  -0.673  23.501  0.00  0.00    +0.040 C 
ATOM     26  C   UNL     1       0.038  -0.668  23.991  0.00  0.00    +0.074 C 
BRANCH  24  27
ATOM     27  N   UNL     1       1.534  -0.023  22.538  0.00  0.00    -0.280 N 
ATOM     28  C   UNL     1       1.577  -0.356  21.784  0.00  0.00    +0.350 A 
ATOM     29  O   UNL     1       0.964  -0.741  21.389  0.00  0.00    -0.244 OA
ATOM     30  N   UNL     1       2.340  -0.235  21.496  0.00  0.00    -0.191 NA
ATOM     31  C   UNL     1       2.769   0.172  22.071  0.00  0.00    +0.102 A 
ATOM     32  C   UNL     1       2.270   0.303  22.715  0.00  0.00    +0.082 A 
ATOM     33  C   UNL     1       2.553   0.703  23.380  0.00  0.00    +0.019 A 
ATOM     34  C   UNL     1       3.332   0.971  23.400  0.00  0.00    +0.002 A 
ATOM     35  C   UNL     1       3.830   0.840  22.756  0.00  0.00    +0.002 A 
ATOM     36  C   UNL     1       3.549   0.441  22.091  0.00  0.00    +0.021 A 
ENDBRANCH  24  27
ENDBRANCH  20  21
ENDBRANCH  19  20
ENDBRANCH  18  19
TORSDOF 9
ENDMDL
MODEL 3
REMARK VINA RESULT:      -8.5      1.327      7.091
REMARK  Name = 
REMARK  9 active torsions:
REMARK  status: ('A' for Active; 'I' for Inactive)
REMARK    1  A    between atoms: O_2  and  C_3
REMARK    2  A    between atoms: C_6  and  C_7
REMARK    3  A    between atoms: C_7  and  C_8
REMARK    4  A    between atoms: C_13  and  C_14
REMARK    5  A    between atoms: C_14  and  C_15
REMARK    6  A    between atoms: C_18  and  C_19
REMARK    7  A    between atoms: C_19  and  C_20
REMARK    8  A    between atoms: C_20  and  N_21
REMARK    9  A    between atoms: C_24  and  N_27
REMARK                            x       y       z     vdW  Elec       q    Type
REMARK                         _______ _______ _______ _____ _____    ______ ____
ROOT
ATOM      8  C   UNL     1      -2.575   1.248  24.057  0.00  0.00    +0.230 C 
ATOM      9  O   UNL     1      -2.177   1.928  23.812  0.00  0.00    -0.275 OA
ATOM     10  N   UNL     1      -2.160   0.542  24.157  0.00  0.00    -0.279 N 
ATOM     11  C   UNL     1      -2.557  -0.139  24.402  0.00  0.00    +0.093 C 
ATOM     12  C   UNL     1      -2.144  -0.845  24.501  0.00  0.00    +0.022 C 
ATOM     13  C   UNL     1      -1.332  -0.872  24.356  0.00  0.00    +0.015 C 
ATOM     18  C   UNL     1      -0.934  -0.191  24.111  0.00  0.00    +0.022 C 
ATOM     37  C   UNL     1      -1.349   0.515  24.011  0.00  0.00    +0.093 C 
ENDROOT
BRANCH   8   7
ATOM      7  C   UNL     1      -3.386   1.275  24.202  0.00  0.00    +0.112 C 
BRANCH   7   6
ATOM      3  C   UNL     1      -4.450   3.396  24.906  0.00  0.00    +0.139 A 
ATOM      4  C   UNL     1      -4.248   3.278  24.114  0.00  0.00    +0.037 A 
ATOM      5  C   UNL     1      -3.894   2.571  23.879  0.00  0.00    -0.001 A 
ATOM      6  C   UNL     1      -3.740   1.982  24.437  0.00  0.00    -0.013 A 
ATOM     38  C   UNL     1      -3.942   2.100  25.228  0.00  0.00    -0.001 A 
ATOM     39  C   UNL     1      -4.297   2.806  25.463  0.00  0.00    +0.037 A 
BRANCH   3   2
ATOM      1  C   UNL     1      -5.540   4.090  25.515  0.00  0.00    +0.252 C 
ATOM      2  O   UNL     1      -4.805   4.102  25.141  0.00  0.00    -0.471 OA
ENDBRANCH   3   2
ENDBRANCH   7   6
ENDBRANCH   8   7
BRANCH  13  14
ATOM     14  C   UNL     1      -0.918  -1.578  24.455  0.00  0.00    +0.114 C 
BRANCH  14  15
ATOM     15  C   UNL     1      -1.323  -2.270  24.651  0.00  0.00    +0.365 C 
ATOM     16  O   UNL     1      -1.378  -2.506  25.438  0.00  0.00    -0.246 OA
ATOM     17  O   UNL     1      -1.672  -2.724  24.057  0.00  0.00    -0.246 OA
ENDBRANCH  14  15
ENDBRANCH  13  14
BRANCH  18  19
ATOM     19  C   UNL     1      -0.123  -0.218  23.965  0.00  0.00    +0.019 C 
BRANCH  19  20
ATOM     20  C   UNL     1       0.193   0.177  23.313  0.00  0.00    +0.072 C 
BRANCH  20  21
ATOM     21  N   UNL     1       1.011   0.252  23.233  0.00  0.00    -0.273 NA
ATOM     22  C   UNL     1       1.417  -0.224  22.696  0.00  0.00    +0.074 C 
ATOM     23  C   UNL     1       2.235  -0.149  22.615  0.00  0.00    +0.040 C 
ATOM     24  C   UNL     1       2.646   0.402  23.071  0.00  0.00    +0.093 C 
ATOM     25  C   UNL     1       2.239   0.878  23.608  0.00  0.00    +0.040 C 
ATOM     26  C   UNL     1       1.422   0.803  23.689  0.00  0.00    +0.074 C 
BRANCH  24  27
ATOM     27  N   UNL     1       3.463   0.477  22.991  0.00  0.00    -0.280 N 
ATOM     28  C   UNL     1       3.858   1.088  22.602  0.00  0.00    +0.350 A 
ATOM     29  O   UNL     1       3.505   1.732  22.226  0.00  0.00    -0.244 OA
ATOM     30  N   UNL     1       4.668   0.943  22.655  0.00  0.00    -0.191 NA
ATOM     31  C   UNL     1       4.774   0.242  23.077  0.00  0.00    +0.102 A 
ATOM     32  C   UNL     1       4.029  -0.046  23.284  0.00  0.00    +0.082 A 
ATOM     33  C   UNL     1       3.964  -0.748  23.713  0.00  0.00    +0.019 A 
ATOM     34  C   UNL     1       4.642  -1.161  23.935  0.00  0.00    +0.002 A 
ATOM     35  C   UNL     1       5.386  -0.873  23.728  0.00  0.00    +0.002 A 
ATOM     36  C   UNL     1       5.453  -0.172  23.299  0.00  0.00    +0.021 A 
ENDBRANCH  24  27
ENDBRANCH  20  21
ENDBRANCH  19  20
ENDBRANCH  18  19
TORSDOF 9
ENDMDL
MODEL 4
REMARK VINA RESULT:      -7.4      1.972      4.505
REMARK  Name = 
REMARK  9 active torsions:
REMARK  status: ('A' for Active; 'I' for Inactive)
REMARK    1  A    between atoms: O_2  and  C_3
REMARK    2  A    between atoms: C_6  and  C_7
REMARK    3  A    between atoms: C_7  and  C_8
REMARK    4  A    between atoms: C_13  and  C_14
REMARK    5  A    between atoms: C_14  and  C_15
REMARK    6  A    between atoms: C_18  and  C_19
REMARK    7  A    between atoms: C_19  and  C_20
REMARK    8  A    between atoms: C_20  and  N_21
REMARK    9  A    between atoms: C_24  and  N_27
REMARK                            x       y       z     vdW  Elec       q    Type
REMARK                         _______ _______ _______ _____ _____    ______ ____
ROOT
ATOM      8  C   UNL     1      -1.010  -0.934  24.739  0.00  0.00    +0.230 C 
ATOM      9  O   UNL     1      -1.525  -0.439  25.153  0.00  0.00    -0.275 OA
ATOM     10  N   UNL     1      -0.396  -0.609  24.293  0.00  0.00    -0.279 N 
ATOM     11  C   UNL     1       0.119  -1.103  23.879  0.00  0.00    +0.093 C 
ATOM     12  C   UNL     1       0.732  -0.779  23.433  0.00  0.00    +0.022 C 
ATOM     13  C   UNL     1       0.831   0.039  23.400  0.00  0.00    +0.015 C 
ATOM     18  C   UNL     1       0.316   0.534  23.814  0.00  0.00    +0.022 C 
ATOM     37  C   UNL     1      -0.298   0.209  24.260  0.00  0.00    +0.093 C 
ENDROOT
BRANCH   8   7
ATOM      7  C   UNL     1      -1.108  -1.751  24.772  0.00  0.00    +0.112 C 
BRANCH   7   6
ATOM      3  C   UNL     1      -3.363  -2.739  24.518  0.00  0.00    +0.139 A 
ATOM      4  C   UNL     1      -2.757  -2.958  24.003  0.00  0.00    +0.037 A 
ATOM      5  C   UNL     1      -2.005  -2.629  24.087  0.00  0.00    -0.001 A 
ATOM      6  C   UNL     1      -1.860  -2.081  24.687  0.00  0.00    -0.013 A 
ATOM     38  C   UNL     1      -2.466  -1.862  25.202  0.00  0.00    -0.001 A 
ATOM     39  C   UNL     1      -3.218  -2.191  25.118  0.00  0.00    +0.037 A 
BRANCH   3   2
ATOM      1  C   UNL     1      -4.598  -2.838  23.805  0.00  0.00    +0.252 C 
ATOM      2  O   UNL     1      -4.115  -3.068  24.434  0.00  0.00    -0.471 OA
ENDBRANCH   3   2
ENDBRANCH   7   6
ENDBRANCH   8   7
BRANCH  13  14
ATOM     14  C   UNL     1       1.444   0.363  22.954  0.00  0.00    +0.114 C 
BRANCH  14  15
ATOM     15  C   UNL     1       1.897  -0.121  22.463  0.00  0.00    +0.365 C 
ATOM     16  O   UNL     1       1.625  -0.313  21.709  0.00  0.00    -0.246 OA
ATOM     17  O   UNL     1       2.623  -0.412  22.727  0.00  0.00    -0.246 OA
ENDBRANCH  14  15
ENDBRANCH  13  14
BRANCH  18  19
ATOM     19  C   UNL     1       0.414   1.351  23.781  0.00  0.00    +0.019 C 
BRANCH  19  20
ATOM     20  C   UNL     1       0.531   1.782  24.475  0.00  0.00    +0.072 C 
BRANCH  20  21
ATOM     21  N   UNL     1       0.029   2.411  24.660  0.00  0.00    -0.273 NA
ATOM     22  C   UNL     1      -0.391   2.793  24.062  0.00  0.00    +0.074 C 
ATOM     23  C   UNL     1      -0.892   3.422  24.248  0.00  0.00    +0.040 C 
ATOM     24  C   UNL     1      -0.973   3.667  25.031  0.00  0.00    +0.093 C 
ATOM     25  C   UNL     1      -0.553   3.284  25.629  0.00  0.00    +0.040 C 
ATOM     26  C   UNL     1      -0.052   2.656  25.444  0.00  0.00    +0.074 C 
BRANCH  24  27
ATOM     27  N   UNL     1      -1.474   4.295  25.216  0.00  0.00    -0.280 N 
ATOM     28  C   UNL     1      -1.296   5.098  25.139  0.00  0.00    +0.350 A 
ATOM     29  O   UNL     1      -0.584   5.411  24.864  0.00  0.00    -0.244 OA
ATOM     30  N   UNL     1      -1.953   5.530  25.386  0.00  0.00    -0.191 NA
ATOM     31  C   UNL     1      -2.538   4.996  25.615  0.00  0.00    +0.102 A 
ATOM     32  C   UNL     1      -2.242   4.233  25.510  0.00  0.00    +0.082 A 
ATOM     33  C   UNL     1      -2.711   3.580  25.696  0.00  0.00    +0.019 A 
ATOM     34  C   UNL     1      -3.475   3.689  25.986  0.00  0.00    +0.002 A 
ATOM     35  C   UNL     1      -3.771   4.452  26.091  0.00  0.00    +0.002 A 
ATOM     36  C   UNL     1      -3.303   5.106  25.906  0.00  0.00    +0.021 A 
ENDBRANCH  24  27
ENDBRANCH  20  21
ENDBRANCH  19  20
ENDBRANCH  18  19
TORSDOF 9
ENDMDL
MODEL 5
REMARK VINA RESULT:      -7.4      2.253      7.270
REMARK  Name = 
REMARK  9 active torsions:
REMARK  status: ('A' for Active; 'I' for Inactive)
REMARK    1  A    between atoms: O_2  and  C_3
REMARK    2  A    between atoms: C_6  and  C_7
REMARK    3  A    between atoms: C_7  and  C_8
REMARK    4  A    between atoms: C_13  and  C_14
REMARK    5  A    between atoms: C_14  and  C_15
REMARK    6  A    between atoms: C_18  and  C_19
REMARK    7  A    between atoms: C_19  and  C_20
REMARK    8  A    between atoms: C_20  and  N_21
REMARK    9  A    between atoms: C_24  and  N_27
REMARK                            x       y       z     vdW  Elec       q    Type
REMARK                         _______ _______ _______ _____ _____    ______ ____
ROOT
ATOM      8  C   UNL     1      -1.943  -0.351  24.613  0.00  0.00    +0.230 C 
ATOM      9  O   UNL     1      -1.639  -0.931  24.111  0.00  0.00    -0.275 OA
ATOM     10  N   UNL     1      -1.502   0.328  24.773  0.00  0.00    -0.279 N 
ATOM     11  C   UNL     1      -1.806   0.908  25.275  0.00  0.00    +0.093 C 
ATOM     12  C   UNL     1      -1.366   1.587  25.435  0.00  0.00    +0.022 C 
ATOM     13  C   UNL     1      -0.621   1.686  25.093  0.00  0.00    +0.015 C 
ATOM     18  C   UNL     1      -0.317   1.106  24.592  0.00  0.00    +0.022 C 
ATOM     37  C   UNL     1      -0.758   0.427  24.432  0.00  0.00    +0.093 C 
ENDROOT
BRANCH   8   7
ATOM      7  C   UNL     1      -2.687  -0.450  24.954  0.00  0.00    +0.112 C 
BRANCH   7   6
ATOM      3  C   UNL     1      -4.195  -2.237  24.142  0.00  0.00    +0.139 A 
ATOM      4  C   UNL     1      -3.595  -2.416  24.679  0.00  0.00    +0.037 A 
ATOM      5  C   UNL     1      -3.092  -1.821  24.950  0.00  0.00    -0.001 A 
ATOM      6  C   UNL     1      -3.189  -1.046  24.684  0.00  0.00    -0.013 A 
ATOM     38  C   UNL     1      -3.789  -0.867  24.147  0.00  0.00    -0.001 A 
ATOM     39  C   UNL     1      -4.292  -1.462  23.875  0.00  0.00    +0.037 A 
BRANCH   3   2
ATOM      1  C   UNL     1      -4.384  -3.500  23.501  0.00  0.00    +0.252 C 
ATOM      2  O   UNL     1      -4.698  -2.832  23.871  0.00  0.00    -0.471 OA
ENDBRANCH   3   2
ENDBRANCH   7   6
ENDBRANCH   8   7
BRANCH  13  14
ATOM     14  C   UNL     1      -0.182   2.365  25.254  0.00  0.00    +0.114 C 
BRANCH  14  15
ATOM     15  C   UNL     1      -0.387   2.850  25.889  0.00  0.00    +0.365 C 
ATOM     16  O   UNL     1      -0.074   2.703  26.638  0.00  0.00    -0.246 OA
ATOM     17  O   UNL     1      -0.906   3.481  25.775  0.00  0.00    -0.246 OA
ENDBRANCH  14  15
ENDBRANCH  13  14
BRANCH  18  19
ATOM     19  C   UNL     1       0.426   1.206  24.250  0.00  0.00    +0.019 C 
BRANCH  19  20
ATOM     20  C   UNL     1       0.626   0.789  23.567  0.00  0.00    +0.072 C 
BRANCH  20  21
ATOM     21  N   UNL     1       1.419   0.690  23.360  0.00  0.00    -0.273 NA
ATOM     22  C   UNL     1       1.942   1.326  23.417  0.00  0.00    +0.074 C 
ATOM     23  C   UNL     1       2.735   1.227  23.211  0.00  0.00    +0.040 C 
ATOM     24  C   UNL     1       3.004   0.494  22.947  0.00  0.00    +0.093 C 
ATOM     25  C   UNL     1       2.481  -0.142  22.891  0.00  0.00    +0.040 C 
ATOM     26  C   UNL     1       1.689  -0.044  23.097  0.00  0.00    +0.074 C 
BRANCH  24  27
ATOM     27  N   UNL     1       3.797   0.396  22.741  0.00  0.00    -0.280 N 
ATOM     28  C   UNL     1       4.117   0.494  21.987  0.00  0.00    +0.350 A 
ATOM     29  O   UNL     1       3.701   0.708  21.307  0.00  0.00    -0.244 OA
ATOM     30  N   UNL     1       4.927   0.341  22.032  0.00  0.00    -0.191 NA
ATOM     31  C   UNL     1       5.106   0.148  22.813  0.00  0.00    +0.102 A 
ATOM     32  C   UNL     1       4.408   0.182  23.252  0.00  0.00    +0.082 A 
ATOM     33  C   UNL     1       4.420   0.014  24.059  0.00  0.00    +0.019 A 
ATOM     34  C   UNL     1       5.129  -0.188  24.429  0.00  0.00    +0.002 A 
ATOM     35  C   UNL     1       5.827  -0.222  23.991  0.00  0.00    +0.002 A 
ATOM     36  C   UNL     1       5.816  -0.054  23.183  0.00  0.00    +0.021 A 
ENDBRANCH  24  27
ENDBRANCH  20  21
ENDBRANCH  19  20
ENDBRANCH  18  19
TORSDOF 9
ENDMDL
MODEL 6
REMARK VINA RESULT:      -7.2     16.651     18.466
REMARK  Name = 
REMARK  9 active torsions:
REMARK  status: ('A' for Active; 'I' for Inactive)
REMARK    1  A    between atoms: O_2  and  C_3
REMARK    2  A    between atoms: C_6  and  C_7
REMARK    3  A    between atoms: C_7  and  C_8
REMARK    4  A    between atoms: C_13  and  C_14
REMARK    5  A    between atoms: C_14  and  C_15
REMARK    6  A    between atoms: C_18  and  C_19
REMARK    7  A    between atoms: C_19  and  C_20
REMARK    8  A    between atoms: C_20  and  N_21
REMARK    9  A    between atoms: C_24  and  N_27
REMARK                            x       y       z     vdW  Elec       q    Type
REMARK                         _______ _______ _______ _____ _____    ______ ____
ROOT
ATOM      8  C   UNL     1      -8.055  -8.185   9.136  0.00  0.00    +0.230 C 
ATOM      9  O   UNL     1      -8.535  -8.098   9.802  0.00  0.00    -0.275 OA
ATOM     10  N   UNL     1      -7.345  -8.601   9.192  0.00  0.00    -0.279 N 
ATOM     11  C   UNL     1      -6.865  -8.688   8.527  0.00  0.00    +0.093 C 
ATOM     12  C   UNL     1      -6.155  -9.104   8.582  0.00  0.00    +0.022 C 
ATOM     13  C   UNL     1      -5.924  -9.433   9.303  0.00  0.00    +0.015 C 
ATOM     18  C   UNL     1      -6.404  -9.346   9.968  0.00  0.00    +0.022 C 
ATOM     37  C   UNL     1      -7.114  -8.930   9.912  0.00  0.00    +0.093 C 
ENDROOT
BRANCH   8   7
ATOM      7  C   UNL     1      -8.286  -7.857   8.416  0.00  0.00    +0.112 C 
BRANCH   7   6
ATOM      3  C   UNL     1      -9.979  -6.052   8.362  0.00  0.00    +0.139 A 
ATOM      4  C   UNL     1      -9.183  -5.868   8.476  0.00  0.00    +0.037 A 
ATOM      5  C   UNL     1      -8.618  -6.468   8.494  0.00  0.00    -0.001 A 
ATOM      6  C   UNL     1      -8.850  -7.255   8.398  0.00  0.00    -0.013 A 
ATOM     38  C   UNL     1      -9.646  -7.439   8.284  0.00  0.00    -0.001 A 
ATOM     39  C   UNL     1     -10.211  -6.838   8.266  0.00  0.00    +0.037 A 
BRANCH   3   2
ATOM      1  C   UNL     1     -10.435  -4.769   8.796  0.00  0.00    +0.252 C 
ATOM      2  O   UNL     1     -10.544  -5.451   8.344  0.00  0.00    -0.471 OA
ENDBRANCH   3   2
ENDBRANCH   7   6
ENDBRANCH   8   7
BRANCH  13  14
ATOM     14  C   UNL     1      -5.214  -9.849   9.358  0.00  0.00    +0.114 C 
BRANCH  14  15
ATOM     15  C   UNL     1      -4.623  -9.732   8.794  0.00  0.00    +0.365 C 
ATOM     16  O   UNL     1      -4.558 -10.246   8.153  0.00  0.00    -0.246 OA
ATOM     17  O   UNL     1      -4.096  -9.102   8.873  0.00  0.00    -0.246 OA
ENDBRANCH  14  15
ENDBRANCH  13  14
BRANCH  18  19
ATOM     19  C   UNL     1      -6.173  -9.674  10.688  0.00  0.00    +0.019 C 
BRANCH  19  20
ATOM     20  C   UNL     1      -6.673  -9.627  11.343  0.00  0.00    +0.072 C 
BRANCH  20  21
ATOM     21  N   UNL     1      -6.380  -9.783  12.099  0.00  0.00    -0.273 NA
ATOM     22  C   UNL     1      -5.991  -9.190  12.520  0.00  0.00    +0.074 C 
ATOM     23  C   UNL     1      -5.698  -9.346  13.276  0.00  0.00    +0.040 C 
ATOM     24  C   UNL     1      -5.795 -10.095  13.609  0.00  0.00    +0.093 C 
ATOM     25  C   UNL     1      -6.184 -10.687  13.187  0.00  0.00    +0.040 C 
ATOM     26  C   UNL     1      -6.477 -10.531  12.432  0.00  0.00    +0.074 C 
BRANCH  24  27
ATOM     27  N   UNL     1      -5.502 -10.250  14.364  0.00  0.00    -0.280 N 
ATOM     28  C   UNL     1      -4.759 -10.564  14.541  0.00  0.00    +0.350 A 
ATOM     29  O   UNL     1      -4.179 -10.776  13.994  0.00  0.00    -0.244 OA
ATOM     30  N   UNL     1      -4.698 -10.627  15.361  0.00  0.00    -0.191 NA
ATOM     31  C   UNL     1      -5.403 -10.353  15.691  0.00  0.00    +0.102 A 
ATOM     32  C   UNL     1      -5.899 -10.120  15.075  0.00  0.00    +0.082 A 
ATOM     33  C   UNL     1      -6.650  -9.820  15.241  0.00  0.00    +0.019 A 
ATOM     34  C   UNL     1      -6.903  -9.753  16.023  0.00  0.00    +0.002 A 
ATOM     35  C   UNL     1      -6.407  -9.986  16.639  0.00  0.00    +0.002 A 
ATOM     36  C   UNL     1      -5.657 -10.286  16.474  0.00  0.00    +0.021 A 
ENDBRANCH  24  27
ENDBRANCH  20  21
ENDBRANCH  19  20
ENDBRANCH  18  19
TORSDOF 9
ENDMDL
MODEL 7
REMARK VINA RESULT:      -7.1     14.664     16.022
REMARK  Name = 
REMARK  9 active torsions:
REMARK  status: ('A' for Active; 'I' for Inactive)
REMARK    1  A    between atoms: O_2  and  C_3
REMARK    2  A    between atoms: C_6  and  C_7
REMARK    3  A    between atoms: C_7  and  C_8
REMARK    4  A    between atoms: C_13  and  C_14
REMARK    5  A    between atoms: C_14  and  C_15
REMARK    6  A    between atoms: C_18  and  C_19
REMARK    7  A    between atoms: C_19  and  C_20
REMARK    8  A    between atoms: C_20  and  N_21
REMARK    9  A    between atoms: C_24  and  N_27
REMARK                            x       y       z     vdW  Elec       q    Type
REMARK                         _______ _______ _______ _____ _____    ______ ____
ROOT
ATOM      8  C   UNL     1      -3.482 -10.330  12.117  0.00  0.00    +0.230 C 
ATOM      9  O   UNL     1      -3.105 -10.384  12.848  0.00  0.00    -0.275 OA
ATOM     10  N   UNL     1      -4.306 -10.299  12.079  0.00  0.00    -0.279 N 
ATOM     11  C   UNL     1      -4.683 -10.244  11.347  0.00  0.00    +0.093 C 
ATOM     12  C   UNL     1      -5.507 -10.214  11.308  0.00  0.00    +0.022 C 
ATOM     13  C   UNL     1      -5.953 -10.237  12.002  0.00  0.00    +0.015 C 
ATOM     18  C   UNL     1      -5.576 -10.292  12.734  0.00  0.00    +0.022 C 
ATOM     37  C   UNL     1      -4.752 -10.323  12.772  0.00  0.00    +0.093 C 
ENDROOT
BRANCH   8   7
ATOM      7  C   UNL     1      -3.036 -10.306  11.424  0.00  0.00    +0.112 C 
BRANCH   7   6
ATOM      3  C   UNL     1      -0.836  -9.172  11.405  0.00  0.00    +0.139 A 
ATOM      4  C   UNL     1      -0.963  -9.817  11.902  0.00  0.00    +0.037 A 
ATOM      5  C   UNL     1      -1.696 -10.196  11.909  0.00  0.00    -0.001 A 
ATOM      6  C   UNL     1      -2.302  -9.928  11.418  0.00  0.00    -0.013 A 
ATOM     38  C   UNL     1      -2.176  -9.283  10.920  0.00  0.00    -0.001 A 
ATOM     39  C   UNL     1      -1.443  -8.904  10.913  0.00  0.00    +0.037 A 
BRANCH   3   2
ATOM      1  C   UNL     1       0.399  -8.880  10.748  0.00  0.00    +0.252 C 
ATOM      2  O   UNL     1      -0.103  -8.794  11.398  0.00  0.00    -0.471 OA
ENDBRANCH   3   2
ENDBRANCH   7   6
ENDBRANCH   8   7
BRANCH  13  14
ATOM     14  C   UNL     1      -6.776 -10.206  11.963  0.00  0.00    +0.114 C 
BRANCH  14  15
ATOM     15  C   UNL     1      -7.150 -10.027  11.250  0.00  0.00    +0.365 C 
ATOM     16  O   UNL     1      -7.424 -10.635  10.764  0.00  0.00    -0.246 OA
ATOM     17  O   UNL     1      -7.249  -9.240  11.022  0.00  0.00    -0.246 OA
ENDBRANCH  14  15
ENDBRANCH  13  14
BRANCH  18  19
ATOM     19  C   UNL     1      -6.022 -10.316  13.426  0.00  0.00    +0.019 C 
BRANCH  19  20
ATOM     20  C   UNL     1      -5.645 -10.336  14.160  0.00  0.00    +0.072 C 
BRANCH  20  21
ATOM     21  N   UNL     1      -6.084 -10.237  14.853  0.00  0.00    -0.273 NA
ATOM     22  C   UNL     1      -6.733 -10.723  15.002  0.00  0.00    +0.074 C 
ATOM     23  C   UNL     1      -7.171 -10.623  15.695  0.00  0.00    +0.040 C 
ATOM     24  C   UNL     1      -6.960 -10.038  16.236  0.00  0.00    +0.093 C 
ATOM     25  C   UNL     1      -6.310  -9.553  16.086  0.00  0.00    +0.040 C 
ATOM     26  C   UNL     1      -5.872  -9.652  15.394  0.00  0.00    +0.074 C 
BRANCH  24  27
ATOM     27  N   UNL     1      -7.398  -9.939  16.928  0.00  0.00    -0.280 N 
ATOM     28  C   UNL     1      -7.231 -10.281  17.661  0.00  0.00    +0.350 A 
ATOM     29  O   UNL     1      -6.597 -10.780  17.830  0.00  0.00    -0.244 OA
ATOM     30  N   UNL     1      -7.809 -10.034  18.194  0.00  0.00    -0.191 NA
ATOM     31  C   UNL     1      -8.334  -9.541  17.792  0.00  0.00    +0.102 A 
ATOM     32  C   UNL     1      -8.079  -9.482  17.009  0.00  0.00    +0.082 A 
ATOM     33  C   UNL     1      -8.502  -9.020  16.472  0.00  0.00    +0.019 A 
ATOM     34  C   UNL     1      -9.178  -8.617  16.716  0.00  0.00    +0.002 A 
ATOM     35  C   UNL     1      -9.432  -8.675  17.499  0.00  0.00    +0.002 A 
ATOM     36  C   UNL     1      -9.011  -9.137  18.037  0.00  0.00    +0.021 A 
ENDBRANCH  24  27
ENDBRANCH  20  21
ENDBRANCH  19  20
ENDBRANCH  18  19
TORSDOF 9
ENDMDL
MODEL 8
REMARK VINA RESULT:      -7.1      1.556      2.598
REMARK  Name = 
REMARK  9 active torsions:
REMARK  status: ('A' for Active; 'I' for Inactive)
REMARK    1  A    between atoms: O_2  and  C_3
REMARK    2  A    between atoms: C_6  and  C_7
REMARK    3  A    between atoms: C_7  and  C_8
REMARK    4  A    between atoms: C_13  and  C_14
REMARK    5  A    between atoms: C_14  and  C_15
REMARK    6  A    between atoms: C_18  and  C_19
REMARK    7  A    between atoms: C_19  and  C_20
REMARK    8  A    between atoms: C_20  and  N_21
REMARK    9  A    between atoms: C_24  and  N_27
REMARK                            x       y       z     vdW  Elec       q    Type
REMARK                         _______ _______ _______ _____ _____    ______ ____
ROOT
ATOM      8  C   UNL     1      -0.717  -0.623  24.051  0.00  0.00    +0.230 C 
ATOM      9  O   UNL     1      -0.715   0.202  24.056  0.00  0.00    -0.275 OA
ATOM     10  N   UNL     1      -1.409  -1.035  24.227  0.00  0.00    -0.279 N 
ATOM     11  C   UNL     1      -1.410  -1.860  24.222  0.00  0.00    +0.093 C 
ATOM     12  C   UNL     1      -2.102  -2.273  24.398  0.00  0.00    +0.022 C 
ATOM     13  C   UNL     1      -2.793  -1.861  24.581  0.00  0.00    +0.015 C 
ATOM     18  C   UNL     1      -2.792  -1.036  24.586  0.00  0.00    +0.022 C 
ATOM     37  C   UNL     1      -2.100  -0.623  24.409  0.00  0.00    +0.093 C 
ENDROOT
BRANCH   8   7
ATOM      7  C   UNL     1      -0.026  -1.034  23.869  0.00  0.00    +0.112 C 
BRANCH   7   6
ATOM      3  C   UNL     1       1.810   0.099  22.656  0.00  0.00    +0.139 A 
ATOM      4  C   UNL     1       1.233  -0.315  22.237  0.00  0.00    +0.037 A 
ATOM      5  C   UNL     1       0.621  -0.693  22.641  0.00  0.00    -0.001 A 
ATOM      6  C   UNL     1       0.586  -0.656  23.464  0.00  0.00    -0.013 A 
ATOM     38  C   UNL     1       1.163  -0.242  23.884  0.00  0.00    -0.001 A 
ATOM     39  C   UNL     1       1.775   0.136  23.480  0.00  0.00    +0.037 A 
BRANCH   3   2
ATOM      1  C   UNL     1       3.181   0.496  22.578  0.00  0.00    +0.252 C 
ATOM      2  O   UNL     1       2.422   0.478  22.253  0.00  0.00    -0.471 OA
ENDBRANCH   3   2
ENDBRANCH   7   6
ENDBRANCH   8   7
BRANCH  13  14
ATOM     14  C   UNL     1      -3.485  -2.274  24.757  0.00  0.00    +0.114 C 
BRANCH  14  15
ATOM     15  C   UNL     1      -3.501  -3.097  24.698  0.00  0.00    +0.365 C 
ATOM     16  O   UNL     1      -3.290  -3.560  25.346  0.00  0.00    -0.246 OA
ATOM     17  O   UNL     1      -3.728  -3.455  23.990  0.00  0.00    -0.246 OA
ENDBRANCH  14  15
ENDBRANCH  13  14
BRANCH  18  19
ATOM     19  C   UNL     1      -3.483  -0.624  24.768  0.00  0.00    +0.019 C 
BRANCH  19  20
ATOM     20  C   UNL     1      -3.784  -0.068  24.238  0.00  0.00    +0.072 C 
BRANCH  20  21
ATOM     21  N   UNL     1      -3.983   0.688  24.502  0.00  0.00    -0.273 NA
ATOM     22  C   UNL     1      -3.863   1.341  24.012  0.00  0.00    +0.074 C 
ATOM     23  C   UNL     1      -4.062   2.097  24.276  0.00  0.00    +0.040 C 
ATOM     24  C   UNL     1      -4.382   2.200  25.030  0.00  0.00    +0.093 C 
ATOM     25  C   UNL     1      -4.502   1.546  25.519  0.00  0.00    +0.040 C 
ATOM     26  C   UNL     1      -4.303   0.791  25.256  0.00  0.00    +0.074 C 
BRANCH  24  27
ATOM     27  N   UNL     1      -4.581   2.955  25.293  0.00  0.00    -0.280 N 
ATOM     28  C   UNL     1      -5.342   3.276  25.318  0.00  0.00    +0.350 A 
ATOM     29  O   UNL     1      -6.035   2.896  25.083  0.00  0.00    -0.244 OA
ATOM     30  N   UNL     1      -5.285   4.042  25.618  0.00  0.00    -0.191 NA
ATOM     31  C   UNL     1      -4.492   4.195  25.779  0.00  0.00    +0.102 A 
ATOM     32  C   UNL     1      -4.056   3.523  25.578  0.00  0.00    +0.082 A 
ATOM     33  C   UNL     1      -3.238   3.517  25.681  0.00  0.00    +0.019 A 
ATOM     34  C   UNL     1      -2.854   4.181  25.985  0.00  0.00    +0.002 A 
ATOM     35  C   UNL     1      -3.290   4.852  26.186  0.00  0.00    +0.002 A 
ATOM     36  C   UNL     1      -4.108   4.860  26.083  0.00  0.00    +0.021 A 
ENDBRANCH  24  27
ENDBRANCH  20  21
ENDBRANCH  19  20
ENDBRANCH  18  19
TORSDOF 9
ENDMDL
MODEL 9
REMARK VINA RESULT:      -6.8      2.694      6.805
REMARK  Name = 
REMARK  9 active torsions:
REMARK  status: ('A' for Active; 'I' for Inactive)
REMARK    1  A    between atoms: O_2  and  C_3
REMARK    2  A    between atoms: C_6  and  C_7
REMARK    3  A    between atoms: C_7  and  C_8
REMARK    4  A    between atoms: C_13  and  C_14
REMARK    5  A    between atoms: C_14  and  C_15
REMARK    6  A    between atoms: C_18  and  C_19
REMARK    7  A    between atoms: C_19  and  C_20
REMARK    8  A    between atoms: C_20  and  N_21
REMARK    9  A    between atoms: C_24  and  N_27
REMARK                            x       y       z     vdW  Elec       q    Type
REMARK                         _______ _______ _______ _____ _____    ______ ____
ROOT
ATOM      8  C   UNL     1      -3.729   2.669  24.548  0.00  0.00    +0.230 C 
ATOM      9  O   UNL     1      -3.797   1.872  24.345  0.00  0.00    -0.275 OA
ATOM     10  N   UNL     1      -2.983   3.012  24.628  0.00  0.00    -0.279 N 
ATOM     11  C   UNL     1      -2.916   3.809  24.831  0.00  0.00    +0.093 C 
ATOM     12  C   UNL     1      -2.170   4.153  24.911  0.00  0.00    +0.022 C 
ATOM     13  C   UNL     1      -1.492   3.700  24.786  0.00  0.00    +0.015 C 
ATOM     18  C   UNL     1      -1.559   2.903  24.582  0.00  0.00    +0.022 C 
ATOM     37  C   UNL     1      -2.305   2.560  24.503  0.00  0.00    +0.093 C 
ENDROOT
BRANCH   8   7
ATOM      7  C   UNL     1      -4.407   3.121  24.673  0.00  0.00    +0.112 C 
BRANCH   7   6
ATOM      3  C   UNL     1      -6.319   2.170  25.925  0.00  0.00    +0.139 A 
ATOM      4  C   UNL     1      -6.147   1.898  25.165  0.00  0.00    +0.037 A 
ATOM      5  C   UNL     1      -5.510   2.215  24.747  0.00  0.00    -0.001 A 
ATOM      6  C   UNL     1      -5.045   2.804  25.090  0.00  0.00    -0.013 A 
ATOM     38  C   UNL     1      -5.216   3.076  25.849  0.00  0.00    -0.001 A 
ATOM     39  C   UNL     1      -5.853   2.759  26.267  0.00  0.00    +0.037 A 
BRANCH   3   2
ATOM      1  C   UNL     1      -6.831   1.493  27.074  0.00  0.00    +0.252 C 
ATOM      2  O   UNL     1      -6.956   1.854  26.342  0.00  0.00    -0.471 OA
ENDBRANCH   3   2
ENDBRANCH   7   6
ENDBRANCH   8   7
BRANCH  13  14
ATOM     14  C   UNL     1      -0.746   4.044  24.865  0.00  0.00    +0.114 C 
BRANCH  14  15
ATOM     15  C   UNL     1      -0.649   4.853  24.734  0.00  0.00    +0.365 C 
ATOM     16  O   UNL     1      -0.908   5.396  25.297  0.00  0.00    -0.246 OA
ATOM     17  O   UNL     1      -0.291   5.117  24.039  0.00  0.00    -0.246 OA
ENDBRANCH  14  15
ENDBRANCH  13  14
BRANCH  18  19
ATOM     19  C   UNL     1      -0.881   2.451  24.458  0.00  0.00    +0.019 C 
BRANCH  19  20
ATOM     20  C   UNL     1      -0.606   1.948  25.051  0.00  0.00    +0.072 C 
BRANCH  20  21
ATOM     21  N   UNL     1      -0.750   1.136  25.004  0.00  0.00    -0.273 NA
ATOM     22  C   UNL     1      -0.635   0.738  24.291  0.00  0.00    +0.074 C 
ATOM     23  C   UNL     1      -0.780  -0.073  24.244  0.00  0.00    +0.040 C 
ATOM     24  C   UNL     1      -1.039  -0.485  24.910  0.00  0.00    +0.093 C 
ATOM     25  C   UNL     1      -1.154  -0.086  25.623  0.00  0.00    +0.040 C 
ATOM     26  C   UNL     1      -1.010   0.725  25.670  0.00  0.00    +0.074 C 
BRANCH  24  27
ATOM     27  N   UNL     1      -1.184  -1.296  24.863  0.00  0.00    -0.280 N 
ATOM     28  C   UNL     1      -0.624  -1.895  24.963  0.00  0.00    +0.350 A 
ATOM     29  O   UNL     1       0.177  -1.787  25.128  0.00  0.00    -0.244 OA
ATOM     30  N   UNL     1      -1.008  -2.619  24.869  0.00  0.00    -0.191 NA
ATOM     31  C   UNL     1      -1.803  -2.468  24.711  0.00  0.00    +0.102 A 
ATOM     32  C   UNL     1      -1.911  -1.650  24.707  0.00  0.00    +0.082 A 
ATOM     33  C   UNL     1      -2.660  -1.335  24.562  0.00  0.00    +0.019 A 
ATOM     34  C   UNL     1      -3.299  -1.836  24.422  0.00  0.00    +0.002 A 
ATOM     35  C   UNL     1      -3.190  -2.654  24.426  0.00  0.00    +0.002 A 
ATOM     36  C   UNL     1      -2.442  -2.971  24.570  0.00  0.00    +0.021 A 
ENDBRANCH  24  27
ENDBRANCH  20  21
ENDBRANCH  19  20
ENDBRANCH  18  19
TORSDOF 9
ENDMDL
MODEL 10
REMARK VINA RESULT:      -6.7     15.617     16.849
REMARK  Name = 
REMARK  9 active torsions:
REMARK  status: ('A' for Active; 'I' for Inactive)
REMARK    1  A    between atoms: O_2  and  C_3
REMARK    2  A    between atoms: C_6  and  C_7
REMARK    3  A    between atoms: C_7  and  C_8
REMARK    4  A    between atoms: C_13  and  C_14
REMARK    5  A    between atoms: C_14  and  C_15
REMARK    6  A    between atoms: C_18  and  C_19
REMARK    7  A    between atoms: C_19  and  C_20
REMARK    8  A    between atoms: C_20  and  N_21
REMARK    9  A    between atoms: C_24  and  N_27
REMARK                            x       y       z     vdW  Elec       q    Type
REMARK                         _______ _______ _______ _____ _____    ______ ____
ROOT
ATOM      8  C   UNL     1      -5.381  -9.981  11.455  0.00  0.00    +0.230 C 
ATOM      9  O   UNL     1      -5.055 -10.037  12.211  0.00  0.00    -0.275 OA
ATOM     10  N   UNL     1      -6.192  -9.865  11.364  0.00  0.00    -0.279 N 
ATOM     11  C   UNL     1      -6.518  -9.809  10.608  0.00  0.00    +0.093 C 
ATOM     12  C   UNL     1      -7.330  -9.693  10.516  0.00  0.00    +0.022 C 
ATOM     13  C   UNL     1      -7.816  -9.633  11.180  0.00  0.00    +0.015 C 
ATOM     18  C   UNL     1      -7.490  -9.690  11.936  0.00  0.00    +0.022 C 
ATOM     37  C   UNL     1      -6.678  -9.806  12.027  0.00  0.00    +0.093 C 
ENDROOT
BRANCH   8   7
ATOM      7  C   UNL     1      -4.895 -10.040  10.791  0.00  0.00    +0.112 C 
BRANCH   7   6
ATOM      3  C   UNL     1      -2.435  -9.930  11.042  0.00  0.00    +0.139 A 
ATOM      4  C   UNL     1      -2.839 -10.620  11.243  0.00  0.00    +0.037 A 
ATOM      5  C   UNL     1      -3.659 -10.657  11.160  0.00  0.00    -0.001 A 
ATOM      6  C   UNL     1      -4.075 -10.004  10.875  0.00  0.00    -0.013 A 
ATOM     38  C   UNL     1      -3.670  -9.313  10.674  0.00  0.00    -0.001 A 
ATOM     39  C   UNL     1      -2.850  -9.276  10.757  0.00  0.00    +0.037 A 
BRANCH   3   2
ATOM      1  C   UNL     1      -1.282  -9.741  11.865  0.00  0.00    +0.252 C 
ATOM      2  O   UNL     1      -1.615  -9.893  11.125  0.00  0.00    -0.471 OA
ENDBRANCH   3   2
ENDBRANCH   7   6
ENDBRANCH   8   7
BRANCH  13  14
ATOM     14  C   UNL     1      -8.627  -9.518  11.088  0.00  0.00    +0.114 C 
BRANCH  14  15
ATOM     15  C   UNL     1      -8.949  -9.431  10.334  0.00  0.00    +0.365 C 
ATOM     16  O   UNL     1      -9.226 -10.092   9.926  0.00  0.00    -0.246 OA
ATOM     17  O   UNL     1      -8.994  -8.684   9.988  0.00  0.00    -0.246 OA
ENDBRANCH  14  15
ENDBRANCH  13  14
BRANCH  18  19
ATOM     19  C   UNL     1      -7.976  -9.630  12.600  0.00  0.00    +0.019 C 
BRANCH  19  20
ATOM     20  C   UNL     1      -7.862 -10.136  13.242  0.00  0.00    +0.072 C 
BRANCH  20  21
ATOM     21  N   UNL     1      -8.219  -9.970  13.967  0.00  0.00    -0.273 NA
ATOM     22  C   UNL     1      -7.765  -9.687  14.595  0.00  0.00    +0.074 C 
ATOM     23  C   UNL     1      -8.123  -9.521  15.320  0.00  0.00    +0.040 C 
ATOM     24  C   UNL     1      -8.934  -9.638  15.416  0.00  0.00    +0.093 C 
ATOM     25  C   UNL     1      -9.387  -9.921  14.788  0.00  0.00    +0.040 C 
ATOM     26  C   UNL     1      -9.030 -10.087  14.063  0.00  0.00    +0.074 C 
BRANCH  24  27
ATOM     27  N   UNL     1      -9.290  -9.472  16.141  0.00  0.00    -0.280 N 
ATOM     28  C   UNL     1      -9.367  -9.995  16.775  0.00  0.00    +0.350 A 
ATOM     29  O   UNL     1      -9.100 -10.775  16.795  0.00  0.00    -0.244 OA
ATOM     30  N   UNL     1      -9.757  -9.600  17.385  0.00  0.00    -0.191 NA
ATOM     31  C   UNL     1      -9.922  -8.834  17.128  0.00  0.00    +0.102 A 
ATOM     32  C   UNL     1      -9.634  -8.755  16.359  0.00  0.00    +0.082 A 
ATOM     33  C   UNL     1      -9.721  -8.039  15.958  0.00  0.00    +0.019 A 
ATOM     34  C   UNL     1     -10.097  -7.404  16.325  0.00  0.00    +0.002 A 
ATOM     35  C   UNL     1     -10.385  -7.483  17.094  0.00  0.00    +0.002 A 
ATOM     36  C   UNL     1     -10.298  -8.198  17.496  0.00  0.00    +0.021 A 
ENDBRANCH  24  27
ENDBRANCH  20  21
ENDBRANCH  19  20
ENDBRANCH  18  19
TORSDOF 9
ENDMDL
