MODEL 1
REMARK VINA RESULT:     -10.4      0.000      0.000
REMARK  Name = 
REMARK  3 active torsions:
REMARK  status: ('A' for Active; 'I' for Inactive)
REMARK    1  A    between atoms: C_4  and  O_5
REMARK    2  A    between atoms: O_5  and  C_6
REMARK    3  A    between atoms: C_13  and  C_15
REMARK                            x       y       z     vdW  Elec       q    Type
REMARK                         _______ _______ _______ _____ _____    ______ ____
ROOT
ATOM      6  C   UNL     1      -2.873   0.841  24.650  0.00  0.00    +0.217 C 
ATOM      7  C   UNL     1      -2.171   0.691  24.245  0.00  0.00    +0.187 C 
ATOM      8  O   UNL     1      -1.807   1.143  23.659  0.00  0.00    -0.348 OA
ATOM      9  C   UNL     1      -2.057   1.859  23.334  0.00  0.00    +0.164 C 
ATOM     10  C   UNL     1      -2.731   2.299  23.513  0.00  0.00    +0.126 C 
ATOM     11  N   UNL     1      -3.323   2.131  24.063  0.00  0.00    -0.268 N 
ATOM     12  C   UNL     1      -3.386   1.482  24.569  0.00  0.00    +0.140 C 
ATOM     13  C   UNL     1      -3.932   2.685  24.114  0.00  0.00    +0.268 C 
ATOM     14  O   UNL     1      -3.922   3.355  23.631  0.00  0.00    -0.268 OA
ENDROOT
BRANCH  13  15
ATOM     15  C   UNL     1      -4.551   2.570  24.646  0.00  0.00    +0.154 A 
ATOM     16  C   UNL     1      -4.507   2.888  25.406  0.00  0.00    +0.123 A 
ATOM     17  N   UNL     1      -5.126   2.773  25.938  0.00  0.00    -0.239 NA
ATOM     18  C   UNL     1      -5.790   2.339  25.712  0.00  0.00    +0.120 A 
ATOM     19  C   UNL     1      -5.834   2.021  24.952  0.00  0.00    +0.120 A 
ATOM     20  N   UNL     1      -5.215   2.136  24.420  0.00  0.00    -0.236 NA
ENDBRANCH  13  15
BRANCH   6   5
ATOM      5  O   UNL     1      -3.093   0.276  25.209  0.00  0.00    -0.460 OA
BRANCH   5   4
ATOM      1  C   UNL     1      -4.384  -1.907  23.892  0.00  0.00    +0.052 C 
ATOM      2  C   UNL     1      -3.759  -1.614  24.344  0.00  0.00    +0.062 A 
ATOM      3  N   UNL     1      -3.738  -0.815  24.551  0.00  0.00    -0.216 NA
ATOM      4  C   UNL     1      -3.114  -0.523  25.003  0.00  0.00    +0.225 A 
ATOM     21  C   UNL     1      -2.509  -1.028  25.248  0.00  0.00    +0.058 A 
ATOM     22  C   UNL     1      -2.530  -1.827  25.042  0.00  0.00    +0.006 A 
ATOM     23  C   UNL     1      -3.154  -2.119  24.590  0.00  0.00    +0.015 A 
ENDBRANCH   5   4
ENDBRANCH   6   5
TORSDOF 3
ENDMDL
MODEL 2
REMARK VINA RESULT:     -10.2      1.776      2.981
REMARK  Name = 
REMARK  3 active torsions:
REMARK  status: ('A' for Active; 'I' for Inactive)
REMARK    1  A    between atoms: C_4  and  O_5
REMARK    2  A    between atoms: O_5  and  C_6
REMARK    3  A    between atoms: C_13  and  C_15
REMARK                            x       y       z     vdW  Elec       q    Type
REMARK                         _______ _______ _______ _____ _____    ______ ____
ROOT
ATOM      6  C   UNL     1      -3.293   1.710  24.473  0.00  0.00    +0.217 C 
ATOM      7  C   UNL     1      -4.110   1.809  24.436  0.00  0.00    +0.187 C 
ATOM      8  O   UNL     1      -4.565   2.439  24.710  0.00  0.00    -0.348 OA
ATOM      9  C   UNL     1      -4.315   3.127  25.091  0.00  0.00    +0.164 C 
ATOM     10  C   UNL     1      -3.548   3.354  25.291  0.00  0.00    +0.126 C 
ATOM     11  N   UNL     1      -2.841   2.949  25.160  0.00  0.00    -0.268 N 
ATOM     12  C   UNL     1      -2.727   2.217  24.796  0.00  0.00    +0.140 C 
ATOM     13  C   UNL     1      -2.157   3.325  25.428  0.00  0.00    +0.268 C 
ATOM     14  O   UNL     1      -2.210   4.060  25.800  0.00  0.00    -0.268 OA
ENDROOT
BRANCH  13  15
ATOM     15  C   UNL     1      -1.422   2.967  25.324  0.00  0.00    +0.154 A 
ATOM     16  C   UNL     1      -1.008   3.072  24.618  0.00  0.00    +0.123 A 
ATOM     17  N   UNL     1      -0.272   2.714  24.514  0.00  0.00    -0.239 NA
ATOM     18  C   UNL     1       0.051   2.252  25.115  0.00  0.00    +0.120 A 
ATOM     19  C   UNL     1      -0.363   2.147  25.821  0.00  0.00    +0.120 A 
ATOM     20  N   UNL     1      -1.099   2.505  25.925  0.00  0.00    -0.236 NA
ENDBRANCH  13  15
BRANCH   6   5
ATOM      5  O   UNL     1      -3.000   1.011  24.146  0.00  0.00    -0.460 OA
BRANCH   5   4
ATOM      1  C   UNL     1      -3.090  -1.156  26.007  0.00  0.00    +0.052 C 
ATOM      2  C   UNL     1      -3.356  -0.799  25.312  0.00  0.00    +0.062 A 
ATOM      3  N   UNL     1      -3.045  -0.072  25.076  0.00  0.00    -0.216 NA
ATOM      4  C   UNL     1      -3.311   0.284  24.382  0.00  0.00    +0.225 A 
ATOM     21  C   UNL     1      -3.887  -0.086  23.923  0.00  0.00    +0.058 A 
ATOM     22  C   UNL     1      -4.198  -0.814  24.159  0.00  0.00    +0.006 A 
ATOM     23  C   UNL     1      -3.933  -1.170  24.853  0.00  0.00    +0.015 A 
ENDBRANCH   5   4
ENDBRANCH   6   5
TORSDOF 3
ENDMDL
MODEL 3
REMARK VINA RESULT:     -10.0      1.568      4.200
REMARK  Name = 
REMARK  3 active torsions:
REMARK  status: ('A' for Active; 'I' for Inactive)
REMARK    1  A    between atoms: C_4  and  O_5
REMARK    2  A    between atoms: O_5  and  C_6
REMARK    3  A    between atoms: C_13  and  C_15
REMARK                            x       y       z     vdW  Elec       q    Type
REMARK                         _______ _______ _______ _____ _____    ______ ____
ROOT
ATOM      6  C   UNL     1      -3.375   0.532  24.754  0.00  0.00    +0.217 C 
ATOM      7  C   UNL     1      -4.034   0.081  24.957  0.00  0.00    +0.187 C 
ATOM      8  O   UNL     1      -4.064  -0.627  25.377  0.00  0.00    -0.348 OA
ATOM      9  C   UNL     1      -3.440  -1.060  25.699  0.00  0.00    +0.164 C 
ATOM     10  C   UNL     1      -2.633  -0.892  25.681  0.00  0.00    +0.126 C 
ATOM     11  N   UNL     1      -2.250  -0.248  25.334  0.00  0.00    -0.268 N 
ATOM     12  C   UNL     1      -2.580   0.386  24.922  0.00  0.00    +0.140 C 
ATOM     13  C   UNL     1      -1.429  -0.236  25.411  0.00  0.00    +0.268 C 
ATOM     14  O   UNL     1      -1.043  -0.845  25.814  0.00  0.00    -0.268 OA
ENDROOT
BRANCH  13  15
ATOM     15  C   UNL     1      -0.993   0.384  25.085  0.00  0.00    +0.154 A 
ATOM     16  C   UNL     1      -0.748   0.347  24.298  0.00  0.00    +0.123 A 
ATOM     17  N   UNL     1      -0.313   0.966  23.972  0.00  0.00    -0.239 NA
ATOM     18  C   UNL     1      -0.121   1.623  24.432  0.00  0.00    +0.120 A 
ATOM     19  C   UNL     1      -0.366   1.660  25.219  0.00  0.00    +0.120 A 
ATOM     20  N   UNL     1      -0.801   1.041  25.545  0.00  0.00    -0.236 NA
ENDBRANCH  13  15
BRANCH   6   5
ATOM      5  O   UNL     1      -3.529   1.221  24.327  0.00  0.00    -0.460 OA
BRANCH   5   4
ATOM      1  C   UNL     1      -3.842   3.677  25.754  0.00  0.00    +0.052 C 
ATOM      2  C   UNL     1      -4.174   3.032  25.360  0.00  0.00    +0.062 A 
ATOM      3  N   UNL     1      -3.686   2.449  25.040  0.00  0.00    -0.216 NA
ATOM      4  C   UNL     1      -4.017   1.804  24.647  0.00  0.00    +0.225 A 
ATOM     21  C   UNL     1      -4.836   1.742  24.574  0.00  0.00    +0.058 A 
ATOM     22  C   UNL     1      -5.325   2.325  24.894  0.00  0.00    +0.006 A 
ATOM     23  C   UNL     1      -4.994   2.970  25.287  0.00  0.00    +0.015 A 
ENDBRANCH   5   4
ENDBRANCH   6   5
TORSDOF 3
ENDMDL
MODEL 4
REMARK VINA RESULT:      -9.8      2.089      3.861
REMARK  Name = 
REMARK  3 active torsions:
REMARK  status: ('A' for Active; 'I' for Inactive)
REMARK    1  A    between atoms: C_4  and  O_5
REMARK    2  A    between atoms: O_5  and  C_6
REMARK    3  A    between atoms: C_13  and  C_15
REMARK                            x       y       z     vdW  Elec       q    Type
REMARK                         _______ _______ _______ _____ _____    ______ ____
ROOT
ATOM      6  C   UNL     1      -2.435   2.683  24.601  0.00  0.00    +0.217 C 
ATOM      7  C   UNL     1      -2.724   3.411  24.857  0.00  0.00    +0.187 C 
ATOM      8  O   UNL     1      -2.369   3.957  25.363  0.00  0.00    -0.348 OA
ATOM      9  C   UNL     1      -1.636   3.909  25.738  0.00  0.00    +0.164 C 
ATOM     10  C   UNL     1      -1.077   3.304  25.700  0.00  0.00    +0.126 C 
ATOM     11  N   UNL     1      -1.114   2.596  25.277  0.00  0.00    -0.268 N 
ATOM     12  C   UNL     1      -1.718   2.320  24.788  0.00  0.00    +0.140 C 
ATOM     13  C   UNL     1      -0.459   2.099  25.352  0.00  0.00    +0.268 C 
ATOM     14  O   UNL     1       0.176   2.324  25.829  0.00  0.00    -0.268 OA
ENDROOT
BRANCH  13  15
ATOM     15  C   UNL     1      -0.440   1.379  24.952  0.00  0.00    +0.154 A 
ATOM     16  C   UNL     1      -0.160   1.344  24.177  0.00  0.00    +0.123 A 
ATOM     17  N   UNL     1      -0.141   0.623  23.777  0.00  0.00    -0.239 NA
ATOM     18  C   UNL     1      -0.401  -0.064  24.152  0.00  0.00    +0.120 A 
ATOM     19  C   UNL     1      -0.682  -0.029  24.927  0.00  0.00    +0.120 A 
ATOM     20  N   UNL     1      -0.701   0.692  25.327  0.00  0.00    -0.236 NA
ENDBRANCH  13  15
BRANCH   6   5
ATOM      5  O   UNL     1      -2.927   2.261  24.091  0.00  0.00    -0.460 OA
BRANCH   5   4
ATOM      1  C   UNL     1      -4.597   0.237  25.223  0.00  0.00    +0.052 C 
ATOM      2  C   UNL     1      -4.504   0.996  24.915  0.00  0.00    +0.062 A 
ATOM      3  N   UNL     1      -3.763   1.249  24.657  0.00  0.00    -0.216 NA
ATOM      4  C   UNL     1      -3.669   2.008  24.349  0.00  0.00    +0.225 A 
ATOM     21  C   UNL     1      -4.318   2.516  24.299  0.00  0.00    +0.058 A 
ATOM     22  C   UNL     1      -5.060   2.263  24.557  0.00  0.00    +0.006 A 
ATOM     23  C   UNL     1      -5.153   1.504  24.865  0.00  0.00    +0.015 A 
ENDBRANCH   5   4
ENDBRANCH   6   5
TORSDOF 3
ENDMDL
MODEL 5
REMARK VINA RESULT:      -9.8      2.230      3.163
REMARK  Name = 
REMARK  3 active torsions:
REMARK  status: ('A' for Active; 'I' for Inactive)
REMARK    1  A    between atoms: C_4  and  O_5
REMARK    2  A    between atoms: O_5  and  C_6
REMARK    3  A    between atoms: C_13  and  C_15
REMARK                            x       y       z     vdW  Elec       q    Type
REMARK                         _______ _______ _______ _____ _____    ______ ____
ROOT
ATOM      6  C   UNL     1      -1.145  -0.163  25.059  0.00  0.00    +0.217 C 
ATOM      7  C   UNL     1      -0.952  -0.873  24.688  0.00  0.00    +0.187 C 
ATOM      8  O   UNL     1      -0.382  -1.013  24.110  0.00  0.00    -0.348 OA
ATOM      9  C   UNL     1       0.137  -0.477  23.758  0.00  0.00    +0.164 C 
ATOM     10  C   UNL     1       0.214   0.332  23.899  0.00  0.00    +0.126 C 
ATOM     11  N   UNL     1      -0.209   0.805  24.427  0.00  0.00    -0.268 N 
ATOM     12  C   UNL     1      -0.814   0.585  24.943  0.00  0.00    +0.140 C 
ATOM     13  C   UNL     1      -0.001   1.603  24.440  0.00  0.00    +0.268 C 
ATOM     14  O   UNL     1       0.598   1.880  23.944  0.00  0.00    -0.268 OA
ENDROOT
BRANCH  13  15
ATOM     15  C   UNL     1      -0.390   2.123  24.948  0.00  0.00    +0.154 A 
ATOM     16  C   UNL     1      -0.129   2.214  25.725  0.00  0.00    +0.123 A 
ATOM     17  N   UNL     1      -0.519   2.734  26.233  0.00  0.00    -0.239 NA
ATOM     18  C   UNL     1      -1.169   3.164  25.964  0.00  0.00    +0.120 A 
ATOM     19  C   UNL     1      -1.430   3.073  25.186  0.00  0.00    +0.120 A 
ATOM     20  N   UNL     1      -1.041   2.553  24.678  0.00  0.00    -0.236 NA
ENDBRANCH  13  15
BRANCH   6   5
ATOM      5  O   UNL     1      -1.747  -0.203  25.621  0.00  0.00    -0.460 OA
BRANCH   5   4
ATOM      1  C   UNL     1      -4.351   0.222  24.522  0.00  0.00    +0.052 C 
ATOM      2  C   UNL     1      -3.791  -0.282  24.859  0.00  0.00    +0.062 A 
ATOM      3  N   UNL     1      -3.049   0.009  25.072  0.00  0.00    -0.216 NA
ATOM      4  C   UNL     1      -2.490  -0.494  25.409  0.00  0.00    +0.225 A 
ATOM     21  C   UNL     1      -2.672  -1.289  25.534  0.00  0.00    +0.058 A 
ATOM     22  C   UNL     1      -3.415  -1.580  25.321  0.00  0.00    +0.006 A 
ATOM     23  C   UNL     1      -3.974  -1.077  24.984  0.00  0.00    +0.015 A 
ENDBRANCH   5   4
ENDBRANCH   6   5
TORSDOF 3
ENDMDL
MODEL 6
REMARK VINA RESULT:      -9.8      1.243      3.852
REMARK  Name = 
REMARK  3 active torsions:
REMARK  status: ('A' for Active; 'I' for Inactive)
REMARK    1  A    between atoms: C_4  and  O_5
REMARK    2  A    between atoms: O_5  and  C_6
REMARK    3  A    between atoms: C_13  and  C_15
REMARK                            x       y       z     vdW  Elec       q    Type
REMARK                         _______ _______ _______ _____ _____    ______ ____
ROOT
ATOM      6  C   UNL     1      -2.352   1.062  24.418  0.00  0.00    +0.217 C 
ATOM      7  C   UNL     1      -1.900   1.748  24.485  0.00  0.00    +0.187 C 
ATOM      8  O   UNL     1      -1.203   1.866  24.910  0.00  0.00    -0.348 OA
ATOM      9  C   UNL     1      -0.786   1.326  25.374  0.00  0.00    +0.164 C 
ATOM     10  C   UNL     1      -0.962   0.535  25.527  0.00  0.00    +0.126 C 
ATOM     11  N   UNL     1      -1.600   0.088  25.253  0.00  0.00    -0.268 N 
ATOM     12  C   UNL     1      -2.218   0.323  24.760  0.00  0.00    +0.140 C 
ATOM     13  C   UNL     1      -1.623  -0.696  25.507  0.00  0.00    +0.268 C 
ATOM     14  O   UNL     1      -1.030  -0.987  26.003  0.00  0.00    -0.268 OA
ENDROOT
BRANCH  13  15
ATOM     15  C   UNL     1      -2.237  -1.190  25.266  0.00  0.00    +0.154 A 
ATOM     16  C   UNL     1      -2.168  -1.623  24.567  0.00  0.00    +0.123 A 
ATOM     17  N   UNL     1      -2.783  -2.118  24.325  0.00  0.00    -0.239 NA
ATOM     18  C   UNL     1      -3.467  -2.180  24.782  0.00  0.00    +0.120 A 
ATOM     19  C   UNL     1      -3.535  -1.747  25.481  0.00  0.00    +0.120 A 
ATOM     20  N   UNL     1      -2.921  -1.252  25.723  0.00  0.00    -0.236 NA
ENDBRANCH  13  15
BRANCH   6   5
ATOM      5  O   UNL     1      -3.026   1.121  23.946  0.00  0.00    -0.460 OA
BRANCH   5   4
ATOM      1  C   UNL     1      -5.420   1.849  25.327  0.00  0.00    +0.052 C 
ATOM      2  C   UNL     1      -4.803   2.044  24.816  0.00  0.00    +0.062 A 
ATOM      3  N   UNL     1      -4.223   1.485  24.637  0.00  0.00    -0.216 NA
ATOM      4  C   UNL     1      -3.606   1.680  24.126  0.00  0.00    +0.225 A 
ATOM     21  C   UNL     1      -3.568   2.434  23.793  0.00  0.00    +0.058 A 
ATOM     22  C   UNL     1      -4.149   2.993  23.972  0.00  0.00    +0.006 A 
ATOM     23  C   UNL     1      -4.765   2.798  24.483  0.00  0.00    +0.015 A 
ENDBRANCH   5   4
ENDBRANCH   6   5
TORSDOF 3
ENDMDL
MODEL 7
REMARK VINA RESULT:      -9.4      1.703      2.058
REMARK  Name = 
REMARK  3 active torsions:
REMARK  status: ('A' for Active; 'I' for Inactive)
REMARK    1  A    between atoms: C_4  and  O_5
REMARK    2  A    between atoms: O_5  and  C_6
REMARK    3  A    between atoms: C_13  and  C_15
REMARK                            x       y       z     vdW  Elec       q    Type
REMARK                         _______ _______ _______ _____ _____    ______ ____
ROOT
ATOM      6  C   UNL     1      -1.422   1.435  24.872  0.00  0.00    +0.217 C 
ATOM      7  C   UNL     1      -0.658   1.299  25.152  0.00  0.00    +0.187 C 
ATOM      8  O   UNL     1      -0.192   1.783  25.629  0.00  0.00    -0.348 OA
ATOM      9  C   UNL     1      -0.374   2.524  25.945  0.00  0.00    +0.164 C 
ATOM     10  C   UNL     1      -1.067   2.963  25.861  0.00  0.00    +0.126 C 
ATOM     11  N   UNL     1      -1.750   2.769  25.440  0.00  0.00    -0.268 N 
ATOM     12  C   UNL     1      -1.908   2.089  25.000  0.00  0.00    +0.140 C 
ATOM     13  C   UNL     1      -2.356   3.329  25.463  0.00  0.00    +0.268 C 
ATOM     14  O   UNL     1      -2.254   4.029  25.888  0.00  0.00    -0.268 OA
ENDROOT
BRANCH  13  15
ATOM     15  C   UNL     1      -3.062   3.189  25.060  0.00  0.00    +0.154 A 
ATOM     16  C   UNL     1      -3.125   3.377  24.259  0.00  0.00    +0.123 A 
ATOM     17  N   UNL     1      -3.831   3.237  23.857  0.00  0.00    -0.239 NA
ATOM     18  C   UNL     1      -4.475   2.911  24.255  0.00  0.00    +0.120 A 
ATOM     19  C   UNL     1      -4.412   2.724  25.057  0.00  0.00    +0.120 A 
ATOM     20  N   UNL     1      -3.706   2.863  25.459  0.00  0.00    -0.236 NA
ENDBRANCH  13  15
BRANCH   6   5
ATOM      5  O   UNL     1      -1.742   0.838  24.401  0.00  0.00    -0.460 OA
BRANCH   5   4
ATOM      1  C   UNL     1      -3.293  -1.125  25.783  0.00  0.00    +0.052 C 
ATOM      2  C   UNL     1      -2.599  -0.907  25.394  0.00  0.00    +0.062 A 
ATOM      3  N   UNL     1      -2.517  -0.144  25.092  0.00  0.00    -0.216 NA
ATOM      4  C   UNL     1      -1.824   0.074  24.704  0.00  0.00    +0.225 A 
ATOM     21  C   UNL     1      -1.211  -0.471  24.616  0.00  0.00    +0.058 A 
ATOM     22  C   UNL     1      -1.293  -1.235  24.918  0.00  0.00    +0.006 A 
ATOM     23  C   UNL     1      -1.986  -1.453  25.307  0.00  0.00    +0.015 A 
ENDBRANCH   5   4
ENDBRANCH   6   5
TORSDOF 3
ENDMDL
