MODEL 1
REMARK VINA RESULT:     -12.4      0.000      0.000
REMARK  Name = 
REMARK  3 active torsions:
REMARK  status: ('A' for Active; 'I' for Inactive)
REMARK    1  A    between atoms: C_7  and  N_10
REMARK    2  A    between atoms: C_13  and  C_15
REMARK    3  A    between atoms: C_20  and  C_24
REMARK                            x       y       z     vdW  Elec       q    Type
REMARK                         _______ _______ _______ _____ _____    ______ ____
ROOT
ATOM     10  N   UNL     1      -3.776   0.703  24.775  0.00  0.00    -0.273 NA
ATOM     11  C   UNL     1      -4.445   1.185  24.741  0.00  0.00    +0.073 C 
ATOM     12  C   UNL     1      -4.197   1.970  24.802  0.00  0.00    +0.026 C 
ATOM     13  C   UNL     1      -3.375   1.973  24.872  0.00  0.00    +0.076 C 
ATOM     14  C   UNL     1      -3.115   1.190  24.856  0.00  0.00    +0.080 C 
ENDROOT
BRANCH  10   7
ATOM      1  C   UNL     1      -3.999  -2.975  23.927  0.00  0.00    +0.095 C 
ATOM      2  C   UNL     1      -3.749  -2.593  24.615  0.00  0.00    +0.226 C 
ATOM      3  O   UNL     1      -3.492  -3.035  25.262  0.00  0.00    -0.275 OA
ATOM      4  N   UNL     1      -3.756  -1.769  24.655  0.00  0.00    -0.279 N 
ATOM      5  C   UNL     1      -3.506  -1.387  25.342  0.00  0.00    +0.095 C 
ATOM      6  C   UNL     1      -3.513  -0.563  25.382  0.00  0.00    +0.038 C 
ATOM      7  C   UNL     1      -3.770  -0.121  24.735  0.00  0.00    +0.061 C 
ATOM      8  C   UNL     1      -4.019  -0.503  24.047  0.00  0.00    +0.038 C 
ATOM      9  C   UNL     1      -4.012  -1.327  24.007  0.00  0.00    +0.095 C 
ENDBRANCH  10   7
BRANCH  13  15
ATOM     15  C   UNL     1      -2.897   2.641  24.947  0.00  0.00    +0.140 A 
ATOM     16  N   UNL     1      -3.159   3.412  25.079  0.00  0.00    -0.229 NA
ATOM     17  C   UNL     1      -2.497   3.903  25.116  0.00  0.00    +0.100 A 
ATOM     18  C   UNL     1      -1.826   3.435  25.006  0.00  0.00    +0.105 A 
ATOM     19  N   UNL     1      -2.073   2.656  24.901  0.00  0.00    -0.229 NA
ATOM     20  C   UNL     1      -1.077   3.781  25.015  0.00  0.00    +0.076 A 
ATOM     21  C   UNL     1      -0.999   4.593  25.134  0.00  0.00    +0.006 A 
ATOM     22  C   UNL     1      -1.669   5.061  25.244  0.00  0.00    +0.002 A 
ATOM     23  C   UNL     1      -2.419   4.716  25.235  0.00  0.00    +0.021 A 
BRANCH  20  24
ATOM     24  C   UNL     1      -0.406   3.314  24.905  0.00  0.00    +0.286 C 
ATOM     25  N   UNL     1      -0.010   3.000  25.558  0.00  0.00    -0.084 NA
ATOM     26  O   UNL     1      -0.130   3.160  24.143  0.00  0.00    -0.267 OA
ENDBRANCH  20  24
ENDBRANCH  13  15
TORSDOF 3
ENDMDL
MODEL 2
REMARK VINA RESULT:     -12.0      1.152      5.351
REMARK  Name = 
REMARK  3 active torsions:
REMARK  status: ('A' for Active; 'I' for Inactive)
REMARK    1  A    between atoms: C_7  and  N_10
REMARK    2  A    between atoms: C_13  and  C_15
REMARK    3  A    between atoms: C_20  and  C_24
REMARK                            x       y       z     vdW  Elec       q    Type
REMARK                         _______ _______ _______ _____ _____    ______ ____
ROOT
ATOM     10  N   UNL     1      -3.301   2.120  24.828  0.00  0.00    -0.273 NA
ATOM     11  C   UNL     1      -4.124   2.098  24.881  0.00  0.00    +0.073 C 
ATOM     12  C   UNL     1      -4.365   1.315  24.783  0.00  0.00    +0.026 C 
ATOM     13  C   UNL     1      -3.691   0.853  24.669  0.00  0.00    +0.076 C 
ATOM     14  C   UNL     1      -3.033   1.350  24.697  0.00  0.00    +0.080 C 
ENDROOT
BRANCH  10   7
ATOM      1  C   UNL     1      -0.630   4.796  24.821  0.00  0.00    +0.095 C 
ATOM      2  C   UNL     1      -1.409   4.811  25.094  0.00  0.00    +0.226 C 
ATOM      3  O   UNL     1      -1.714   5.498  25.433  0.00  0.00    -0.275 OA
ATOM      4  N   UNL     1      -1.882   4.138  25.028  0.00  0.00    -0.279 N 
ATOM      5  C   UNL     1      -2.660   4.152  25.300  0.00  0.00    +0.095 C 
ATOM      6  C   UNL     1      -3.133   3.479  25.234  0.00  0.00    +0.038 C 
ATOM      7  C   UNL     1      -2.828   2.792  24.895  0.00  0.00    +0.061 C 
ATOM      8  C   UNL     1      -2.049   2.778  24.622  0.00  0.00    +0.038 C 
ATOM      9  C   UNL     1      -1.576   3.451  24.689  0.00  0.00    +0.095 C 
ENDBRANCH  10   7
BRANCH  13  15
ATOM     15  C   UNL     1      -3.677   0.037  24.549  0.00  0.00    +0.140 A 
ATOM     16  N   UNL     1      -4.292  -0.418  24.241  0.00  0.00    -0.229 NA
ATOM     17  C   UNL     1      -4.041  -1.203  24.217  0.00  0.00    +0.100 A 
ATOM     18  C   UNL     1      -3.271  -1.234  24.510  0.00  0.00    +0.105 A 
ATOM     19  N   UNL     1      -3.045  -0.468  24.715  0.00  0.00    -0.229 NA
ATOM     20  C   UNL     1      -2.874  -1.956  24.551  0.00  0.00    +0.076 A 
ATOM     21  C   UNL     1      -3.247  -2.647  24.301  0.00  0.00    +0.006 A 
ATOM     22  C   UNL     1      -4.018  -2.617  24.008  0.00  0.00    +0.002 A 
ATOM     23  C   UNL     1      -4.415  -1.895  23.966  0.00  0.00    +0.021 A 
BRANCH  20  24
ATOM     24  C   UNL     1      -2.103  -1.987  24.844  0.00  0.00    +0.286 C 
ATOM     25  N   UNL     1      -1.466  -2.044  24.323  0.00  0.00    -0.084 NA
ATOM     26  O   UNL     1      -1.969  -1.961  25.658  0.00  0.00    -0.267 OA
ENDBRANCH  20  24
ENDBRANCH  13  15
TORSDOF 3
ENDMDL
MODEL 3
REMARK VINA RESULT:     -11.6      1.359      1.955
REMARK  Name = 
REMARK  3 active torsions:
REMARK  status: ('A' for Active; 'I' for Inactive)
REMARK    1  A    between atoms: C_7  and  N_10
REMARK    2  A    between atoms: C_13  and  C_15
REMARK    3  A    between atoms: C_20  and  C_24
REMARK                            x       y       z     vdW  Elec       q    Type
REMARK                         _______ _______ _______ _____ _____    ______ ____
ROOT
ATOM     10  N   UNL     1      -1.882   0.082  25.030  0.00  0.00    -0.273 NA
ATOM     11  C   UNL     1      -1.133   0.064  25.375  0.00  0.00    +0.073 C 
ATOM     12  C   UNL     1      -0.877   0.843  25.471  0.00  0.00    +0.026 C 
ATOM     13  C   UNL     1      -1.468   1.342  25.184  0.00  0.00    +0.076 C 
ATOM     14  C   UNL     1      -2.089   0.873  24.912  0.00  0.00    +0.080 C 
ENDROOT
BRANCH  10   7
ATOM      1  C   UNL     1      -4.427  -2.443  23.829  0.00  0.00    +0.095 C 
ATOM      2  C   UNL     1      -3.727  -2.542  24.256  0.00  0.00    +0.226 C 
ATOM      3  O   UNL     1      -3.490  -3.296  24.490  0.00  0.00    -0.275 OA
ATOM      4  N   UNL     1      -3.266  -1.886  24.450  0.00  0.00    -0.279 N 
ATOM      5  C   UNL     1      -2.567  -1.984  24.876  0.00  0.00    +0.095 C 
ATOM      6  C   UNL     1      -2.106  -1.328  25.070  0.00  0.00    +0.038 C 
ATOM      7  C   UNL     1      -2.343  -0.573  24.836  0.00  0.00    +0.061 C 
ATOM      8  C   UNL     1      -3.043  -0.475  24.409  0.00  0.00    +0.038 C 
ATOM      9  C   UNL     1      -3.504  -1.132  24.216  0.00  0.00    +0.095 C 
ENDBRANCH  10   7
BRANCH  13  15
ATOM     15  C   UNL     1      -1.443   2.167  25.173  0.00  0.00    +0.140 A 
ATOM     16  N   UNL     1      -0.805   2.629  24.927  0.00  0.00    -0.229 NA
ATOM     17  C   UNL     1      -1.019   3.421  25.007  0.00  0.00    +0.100 A 
ATOM     18  C   UNL     1      -1.788   3.449  25.303  0.00  0.00    +0.105 A 
ATOM     19  N   UNL     1      -2.051   2.675  25.405  0.00  0.00    -0.229 NA
ATOM     20  C   UNL     1      -2.150   4.178  25.440  0.00  0.00    +0.076 A 
ATOM     21  C   UNL     1      -1.744   4.878  25.283  0.00  0.00    +0.006 A 
ATOM     22  C   UNL     1      -0.974   4.849  24.987  0.00  0.00    +0.002 A 
ATOM     23  C   UNL     1      -0.611   4.122  24.849  0.00  0.00    +0.021 A 
BRANCH  20  24
ATOM     24  C   UNL     1      -2.920   4.206  25.736  0.00  0.00    +0.286 C 
ATOM     25  N   UNL     1      -3.562   4.200  25.217  0.00  0.00    -0.084 NA
ATOM     26  O   UNL     1      -3.049   4.240  26.550  0.00  0.00    -0.267 OA
ENDBRANCH  20  24
ENDBRANCH  13  15
TORSDOF 3
ENDMDL
MODEL 4
REMARK VINA RESULT:     -10.7      1.578      5.728
REMARK  Name = 
REMARK  3 active torsions:
REMARK  status: ('A' for Active; 'I' for Inactive)
REMARK    1  A    between atoms: C_7  and  N_10
REMARK    2  A    between atoms: C_13  and  C_15
REMARK    3  A    between atoms: C_20  and  C_24
REMARK                            x       y       z     vdW  Elec       q    Type
REMARK                         _______ _______ _______ _____ _____    ______ ____
ROOT
ATOM     10  N   UNL     1      -0.898   1.627  24.720  0.00  0.00    -0.273 NA
ATOM     11  C   UNL     1      -0.190   1.219  24.608  0.00  0.00    +0.073 C 
ATOM     12  C   UNL     1      -0.364   0.413  24.562  0.00  0.00    +0.026 C 
ATOM     13  C   UNL     1      -1.180   0.324  24.645  0.00  0.00    +0.076 C 
ATOM     14  C   UNL     1      -1.510   1.073  24.743  0.00  0.00    +0.080 C 
ENDROOT
BRANCH  10   7
ATOM      1  C   UNL     1      -1.890   5.211  25.401  0.00  0.00    +0.095 C 
ATOM      2  C   UNL     1      -1.226   4.897  25.023  0.00  0.00    +0.226 C 
ATOM      3  O   UNL     1      -0.646   5.399  24.723  0.00  0.00    -0.275 OA
ATOM      4  N   UNL     1      -1.144   4.079  24.948  0.00  0.00    -0.279 N 
ATOM      5  C   UNL     1      -0.482   3.764  24.571  0.00  0.00    +0.095 C 
ATOM      6  C   UNL     1      -0.400   2.947  24.495  0.00  0.00    +0.038 C 
ATOM      7  C   UNL     1      -0.980   2.444  24.796  0.00  0.00    +0.061 C 
ATOM      8  C   UNL     1      -1.643   2.759  25.173  0.00  0.00    +0.038 C 
ATOM      9  C   UNL     1      -1.725   3.577  25.249  0.00  0.00    +0.095 C 
ENDBRANCH  10   7
BRANCH  13  15
ATOM     15  C   UNL     1      -1.593  -0.390  24.633  0.00  0.00    +0.140 A 
ATOM     16  N   UNL     1      -1.259  -1.144  24.612  0.00  0.00    -0.229 NA
ATOM     17  C   UNL     1      -1.872  -1.695  24.605  0.00  0.00    +0.100 A 
ATOM     18  C   UNL     1      -2.586  -1.282  24.623  0.00  0.00    +0.105 A 
ATOM     19  N   UNL     1      -2.414  -0.475  24.640  0.00  0.00    -0.229 NA
ATOM     20  C   UNL     1      -3.301  -1.694  24.621  0.00  0.00    +0.076 A 
ATOM     21  C   UNL     1      -3.302  -2.518  24.601  0.00  0.00    +0.006 A 
ATOM     22  C   UNL     1      -2.588  -2.931  24.584  0.00  0.00    +0.002 A 
ATOM     23  C   UNL     1      -1.873  -2.520  24.586  0.00  0.00    +0.021 A 
BRANCH  20  24
ATOM     24  C   UNL     1      -4.015  -1.281  24.638  0.00  0.00    +0.286 C 
ATOM     25  N   UNL     1      -4.447  -1.174  23.943  0.00  0.00    -0.084 NA
ATOM     26  O   UNL     1      -4.298  -0.975  25.350  0.00  0.00    -0.267 OA
ENDBRANCH  20  24
ENDBRANCH  13  15
TORSDOF 3
ENDMDL
MODEL 5
REMARK VINA RESULT:     -10.1      2.566      4.147
REMARK  Name = 
REMARK  3 active torsions:
REMARK  status: ('A' for Active; 'I' for Inactive)
REMARK    1  A    between atoms: C_7  and  N_10
REMARK    2  A    between atoms: C_13  and  C_15
REMARK    3  A    between atoms: C_20  and  C_24
REMARK                            x       y       z     vdW  Elec       q    Type
REMARK                         _______ _______ _______ _____ _____    ______ ____
ROOT
ATOM     10  N   UNL     1      -1.263   0.334  24.471  0.00  0.00    -0.273 NA
ATOM     11  C   UNL     1      -1.517  -0.212  25.036  0.00  0.00    +0.073 C 
ATOM     12  C   UNL     1      -2.286  -0.011  25.258  0.00  0.00    +0.026 C 
ATOM     13  C   UNL     1      -2.508   0.659  24.829  0.00  0.00    +0.076 C 
ATOM     14  C   UNL     1      -1.876   0.872  24.344  0.00  0.00    +0.080 C 
ENDROOT
BRANCH  10   7
ATOM      1  C   UNL     1       1.921  -0.285  22.530  0.00  0.00    +0.095 C 
ATOM      2  C   UNL     1       1.682   0.362  22.983  0.00  0.00    +0.226 C 
ATOM      3  O   UNL     1       2.179   1.015  23.065  0.00  0.00    -0.275 OA
ATOM      4  N   UNL     1       0.946   0.355  23.355  0.00  0.00    -0.279 N 
ATOM      5  C   UNL     1       0.706   1.000  23.809  0.00  0.00    +0.095 C 
ATOM      6  C   UNL     1      -0.030   0.994  24.181  0.00  0.00    +0.038 C 
ATOM      7  C   UNL     1      -0.527   0.341  24.099  0.00  0.00    +0.061 C 
ATOM      8  C   UNL     1      -0.288  -0.306  23.645  0.00  0.00    +0.038 C 
ATOM      9  C   UNL     1       0.449  -0.298  23.273  0.00  0.00    +0.095 C 
ENDBRANCH  10   7
BRANCH  13  15
ATOM     15  C   UNL     1      -3.234   1.047  24.879  0.00  0.00    +0.140 A 
ATOM     16  N   UNL     1      -3.977   0.691  24.856  0.00  0.00    -0.229 NA
ATOM     17  C   UNL     1      -4.547   1.283  24.923  0.00  0.00    +0.100 A 
ATOM     18  C   UNL     1      -4.155   2.007  24.987  0.00  0.00    +0.105 A 
ATOM     19  N   UNL     1      -3.344   1.861  24.960  0.00  0.00    -0.229 NA
ATOM     20  C   UNL     1      -4.589   2.705  25.062  0.00  0.00    +0.076 A 
ATOM     21  C   UNL     1      -5.413   2.679  25.073  0.00  0.00    +0.006 A 
ATOM     22  C   UNL     1      -5.804   1.956  25.009  0.00  0.00    +0.002 A 
ATOM     23  C   UNL     1      -5.372   1.258  24.934  0.00  0.00    +0.021 A 
BRANCH  20  24
ATOM     24  C   UNL     1      -4.198   3.428  25.126  0.00  0.00    +0.286 C 
ATOM     25  N   UNL     1      -4.029   3.742  25.871  0.00  0.00    -0.084 NA
ATOM     26  O   UNL     1      -3.976   3.839  24.446  0.00  0.00    -0.267 OA
ENDBRANCH  20  24
ENDBRANCH  13  15
TORSDOF 3
ENDMDL
MODEL 6
REMARK VINA RESULT:     -10.0      2.282      5.221
REMARK  Name = 
REMARK  3 active torsions:
REMARK  status: ('A' for Active; 'I' for Inactive)
REMARK    1  A    between atoms: C_7  and  N_10
REMARK    2  A    between atoms: C_13  and  C_15
REMARK    3  A    between atoms: C_20  and  C_24
REMARK                            x       y       z     vdW  Elec       q    Type
REMARK                         _______ _______ _______ _____ _____    ______ ____
ROOT
ATOM     10  N   UNL     1      -4.069   1.564  24.299  0.00  0.00    -0.273 NA
ATOM     11  C   UNL     1      -3.653   1.553  23.587  0.00  0.00    +0.073 C 
ATOM     12  C   UNL     1      -3.369   0.787  23.469  0.00  0.00    +0.026 C 
ATOM     13  C   UNL     1      -3.609   0.325  24.110  0.00  0.00    +0.076 C 
ATOM     14  C   UNL     1      -4.042   0.805  24.622  0.00  0.00    +0.080 C 
ENDROOT
BRANCH  10   7
ATOM      1  C   UNL     1      -5.173   4.898  25.701  0.00  0.00    +0.095 C 
ATOM      2  C   UNL     1      -5.578   4.182  25.626  0.00  0.00    +0.226 C 
ATOM      3  O   UNL     1      -6.360   4.122  25.881  0.00  0.00    -0.275 OA
ATOM      4  N   UNL     1      -5.201   3.528  25.294  0.00  0.00    -0.279 N 
ATOM      5  C   UNL     1      -5.605   2.813  25.218  0.00  0.00    +0.095 C 
ATOM      6  C   UNL     1      -5.228   2.159  24.887  0.00  0.00    +0.038 C 
ATOM      7  C   UNL     1      -4.446   2.219  24.631  0.00  0.00    +0.061 C 
ATOM      8  C   UNL     1      -4.041   2.934  24.707  0.00  0.00    +0.038 C 
ATOM      9  C   UNL     1      -4.419   3.589  25.038  0.00  0.00    +0.095 C 
ENDBRANCH  10   7
BRANCH  13  15
ATOM     15  C   UNL     1      -3.445  -0.476  24.218  0.00  0.00    +0.140 A 
ATOM     16  N   UNL     1      -3.996  -1.090  24.201  0.00  0.00    -0.229 NA
ATOM     17  C   UNL     1      -3.593  -1.797  24.334  0.00  0.00    +0.100 A 
ATOM     18  C   UNL     1      -2.793  -1.620  24.434  0.00  0.00    +0.105 A 
ATOM     19  N   UNL     1      -2.702  -0.804  24.362  0.00  0.00    -0.229 NA
ATOM     20  C   UNL     1      -2.252  -2.226  24.577  0.00  0.00    +0.076 A 
ATOM     21  C   UNL     1      -2.509  -3.008  24.621  0.00  0.00    +0.006 A 
ATOM     22  C   UNL     1      -3.309  -3.185  24.522  0.00  0.00    +0.002 A 
ATOM     23  C   UNL     1      -3.851  -2.580  24.378  0.00  0.00    +0.021 A 
BRANCH  20  24
ATOM     24  C   UNL     1      -1.452  -2.049  24.676  0.00  0.00    +0.286 C 
ATOM     25  N   UNL     1      -1.142  -1.950  25.435  0.00  0.00    -0.084 NA
ATOM     26  O   UNL     1      -0.961  -1.971  24.018  0.00  0.00    -0.267 OA
ENDBRANCH  20  24
ENDBRANCH  13  15
TORSDOF 3
ENDMDL
MODEL 7
REMARK VINA RESULT:      -9.5      1.943      2.883
REMARK  Name = 
REMARK  3 active torsions:
REMARK  status: ('A' for Active; 'I' for Inactive)
REMARK    1  A    between atoms: C_7  and  N_10
REMARK    2  A    between atoms: C_13  and  C_15
REMARK    3  A    between atoms: C_20  and  C_24
REMARK                            x       y       z     vdW  Elec       q    Type
REMARK                         _______ _______ _______ _____ _____    ______ ____
ROOT
ATOM     10  N   UNL     1      -3.377  -0.447  24.694  0.00  0.00    -0.273 NA
ATOM     11  C   UNL     1      -4.075  -0.643  24.299  0.00  0.00    +0.073 C 
ATOM     12  C   UNL     1      -4.588   0.001  24.352  0.00  0.00    +0.026 C 
ATOM     13  C   UNL     1      -4.207   0.596  24.779  0.00  0.00    +0.076 C 
ATOM     14  C   UNL     1      -3.459   0.319  24.991  0.00  0.00    +0.080 C 
ENDROOT
BRANCH  10   7
ATOM      1  C   UNL     1      -0.007  -2.059  25.270  0.00  0.00    +0.095 C 
ATOM      2  C   UNL     1      -0.726  -2.383  25.027  0.00  0.00    +0.226 C 
ATOM      3  O   UNL     1      -0.782  -3.190  24.868  0.00  0.00    -0.275 OA
ATOM      4  N   UNL     1      -1.389  -1.899  24.944  0.00  0.00    -0.279 N 
ATOM      5  C   UNL     1      -2.108  -2.222  24.701  0.00  0.00    +0.095 C 
ATOM      6  C   UNL     1      -2.770  -1.738  24.617  0.00  0.00    +0.038 C 
ATOM      7  C   UNL     1      -2.715  -0.930  24.777  0.00  0.00    +0.061 C 
ATOM      8  C   UNL     1      -1.995  -0.607  25.020  0.00  0.00    +0.038 C 
ATOM      9  C   UNL     1      -1.332  -1.092  25.103  0.00  0.00    +0.095 C 
ENDBRANCH  10   7
BRANCH  13  15
ATOM     15  C   UNL     1      -4.520   1.337  24.963  0.00  0.00    +0.140 A 
ATOM     16  N   UNL     1      -5.278   1.485  25.253  0.00  0.00    -0.229 NA
ATOM     17  C   UNL     1      -5.355   2.299  25.358  0.00  0.00    +0.100 A 
ATOM     18  C   UNL     1      -4.645   2.654  25.134  0.00  0.00    +0.105 A 
ATOM     19  N   UNL     1      -4.129   2.060  24.890  0.00  0.00    -0.229 NA
ATOM     20  C   UNL     1      -4.562   3.474  25.182  0.00  0.00    +0.076 A 
ATOM     21  C   UNL     1      -5.187   3.938  25.453  0.00  0.00    +0.006 A 
ATOM     22  C   UNL     1      -5.897   3.582  25.677  0.00  0.00    +0.002 A 
ATOM     23  C   UNL     1      -5.982   2.763  25.630  0.00  0.00    +0.021 A 
BRANCH  20  24
ATOM     24  C   UNL     1      -3.852   3.829  24.957  0.00  0.00    +0.286 C 
ATOM     25  N   UNL     1      -3.269   3.981  25.523  0.00  0.00    -0.084 NA
ATOM     26  O   UNL     1      -3.723   4.034  24.169  0.00  0.00    -0.267 OA
ENDBRANCH  20  24
ENDBRANCH  13  15
TORSDOF 3
ENDMDL
MODEL 8
REMARK VINA RESULT:      -9.3      2.708      4.431
REMARK  Name = 
REMARK  3 active torsions:
REMARK  status: ('A' for Active; 'I' for Inactive)
REMARK    1  A    between atoms: C_7  and  N_10
REMARK    2  A    between atoms: C_13  and  C_15
REMARK    3  A    between atoms: C_20  and  C_24
REMARK                            x       y       z     vdW  Elec       q    Type
REMARK                         _______ _______ _______ _____ _____    ______ ____
ROOT
ATOM     10  N   UNL     1      -3.224   2.152  23.982  0.00  0.00    -0.273 NA
ATOM     11  C   UNL     1      -3.040   2.325  23.197  0.00  0.00    +0.073 C 
ATOM     12  C   UNL     1      -2.358   1.904  22.997  0.00  0.00    +0.026 C 
ATOM     13  C   UNL     1      -2.121   1.472  23.659  0.00  0.00    +0.076 C 
ATOM     14  C   UNL     1      -2.656   1.625  24.268  0.00  0.00    +0.080 C 
ENDROOT
BRANCH  10   7
ATOM      1  C   UNL     1      -6.364   2.846  25.971  0.00  0.00    +0.095 C 
ATOM      2  C   UNL     1      -5.781   3.357  25.685  0.00  0.00    +0.226 C 
ATOM      3  O   UNL     1      -5.839   4.167  25.825  0.00  0.00    -0.275 OA
ATOM      4  N   UNL     1      -5.142   3.055  25.259  0.00  0.00    -0.279 N 
ATOM      5  C   UNL     1      -4.560   3.565  24.974  0.00  0.00    +0.095 C 
ATOM      6  C   UNL     1      -3.921   3.264  24.548  0.00  0.00    +0.038 C 
ATOM      7  C   UNL     1      -3.863   2.453  24.408  0.00  0.00    +0.061 C 
ATOM      8  C   UNL     1      -4.446   1.943  24.694  0.00  0.00    +0.038 C 
ATOM      9  C   UNL     1      -5.086   2.245  25.120  0.00  0.00    +0.095 C 
ENDBRANCH  10   7
BRANCH  13  15
ATOM     15  C   UNL     1      -1.465   0.975  23.704  0.00  0.00    +0.140 A 
ATOM     16  N   UNL     1      -0.726   1.115  23.365  0.00  0.00    -0.229 NA
ATOM     17  C   UNL     1      -0.237   0.476  23.547  0.00  0.00    +0.100 A 
ATOM     18  C   UNL     1      -0.673  -0.058  23.999  0.00  0.00    +0.105 A 
ATOM     19  N   UNL     1      -1.432   0.249  24.096  0.00  0.00    -0.229 NA
ATOM     20  C   UNL     1      -0.322  -0.757  24.264  0.00  0.00    +0.076 A 
ATOM     21  C   UNL     1       0.464  -0.920  24.077  0.00  0.00    +0.006 A 
ATOM     22  C   UNL     1       0.900  -0.385  23.625  0.00  0.00    +0.002 A 
ATOM     23  C   UNL     1       0.551   0.313  23.360  0.00  0.00    +0.021 A 
BRANCH  20  24
ATOM     24  C   UNL     1      -0.758  -1.292  24.716  0.00  0.00    +0.286 C 
ATOM     25  N   UNL     1      -0.702  -1.279  25.539  0.00  0.00    -0.084 NA
ATOM     26  O   UNL     1      -1.251  -1.840  24.345  0.00  0.00    -0.267 OA
ENDBRANCH  20  24
ENDBRANCH  13  15
TORSDOF 3
ENDMDL
MODEL 9
REMARK VINA RESULT:      -8.7     17.454     19.539
REMARK  Name = 
REMARK  3 active torsions:
REMARK  status: ('A' for Active; 'I' for Inactive)
REMARK    1  A    between atoms: C_7  and  N_10
REMARK    2  A    between atoms: C_13  and  C_15
REMARK    3  A    between atoms: C_20  and  C_24
REMARK                            x       y       z     vdW  Elec       q    Type
REMARK                         _______ _______ _______ _____ _____    ______ ____
ROOT
ATOM     10  N   UNL     1      13.359   8.289  18.509  0.00  0.00    -0.273 NA
ATOM     11  C   UNL     1      13.555   8.751  19.165  0.00  0.00    +0.073 C 
ATOM     12  C   UNL     1      14.257   8.456  19.484  0.00  0.00    +0.026 C 
ATOM     13  C   UNL     1      14.495   7.812  19.025  0.00  0.00    +0.076 C 
ATOM     14  C   UNL     1      13.940   7.709  18.423  0.00  0.00    +0.080 C 
ENDROOT
BRANCH  10   7
ATOM      1  C   UNL     1      10.791   9.093  15.854  0.00  0.00    +0.095 C 
ATOM      2  C   UNL     1      10.718   8.691  16.572  0.00  0.00    +0.226 C 
ATOM      3  O   UNL     1       9.987   8.390  16.804  0.00  0.00    -0.275 OA
ATOM      4  N   UNL     1      11.379   8.591  17.056  0.00  0.00    -0.279 N 
ATOM      5  C   UNL     1      11.308   8.189  17.773  0.00  0.00    +0.095 C 
ATOM      6  C   UNL     1      11.967   8.089  18.257  0.00  0.00    +0.038 C 
ATOM      7  C   UNL     1      12.700   8.390  18.025  0.00  0.00    +0.061 C 
ATOM      8  C   UNL     1      12.771   8.792  17.308  0.00  0.00    +0.038 C 
ATOM      9  C   UNL     1      12.110   8.892  16.823  0.00  0.00    +0.095 C 
ENDBRANCH  10   7
BRANCH  13  15
ATOM     15  C   UNL     1      15.168   7.352  19.148  0.00  0.00    +0.140 A 
ATOM     16  N   UNL     1      15.534   6.869  18.589  0.00  0.00    -0.229 NA
ATOM     17  C   UNL     1      16.186   6.513  18.947  0.00  0.00    +0.100 A 
ATOM     18  C   UNL     1      16.224   6.777  19.727  0.00  0.00    +0.105 A 
ATOM     19  N   UNL     1      15.595   7.295  19.852  0.00  0.00    -0.229 NA
ATOM     20  C   UNL     1      16.827   6.510  20.224  0.00  0.00    +0.076 A 
ATOM     21  C   UNL     1      17.391   5.980  19.940  0.00  0.00    +0.006 A 
ATOM     22  C   UNL     1      17.354   5.717  19.159  0.00  0.00    +0.002 A 
ATOM     23  C   UNL     1      16.751   5.983  18.662  0.00  0.00    +0.021 A 
BRANCH  20  24
ATOM     24  C   UNL     1      16.865   6.774  21.004  0.00  0.00    +0.286 C 
ATOM     25  N   UNL     1      17.381   7.384  21.210  0.00  0.00    -0.084 NA
ATOM     26  O   UNL     1      16.387   6.428  21.581  0.00  0.00    -0.267 OA
ENDBRANCH  20  24
ENDBRANCH  13  15
TORSDOF 3
ENDMDL
