MODEL 1
REMARK VINA RESULT:     -12.4      0.000      0.000
REMARK  Name = 
REMARK  6 active torsions:
REMARK  status: ('A' for Active; 'I' for Inactive)
REMARK    1  A    between atoms: O_2  and  C_3
REMARK    2  A    between atoms: C_5  and  N_6
REMARK    3  A    between atoms: N_9  and  C_10
REMARK    4  A    between atoms: C_10  and  C_11
REMARK    5  A    between atoms: C_13  and  C_14
REMARK    6  A    between atoms: C_14  and  C_15
REMARK                            x       y       z     vdW  Elec       q    Type
REMARK                         _______ _______ _______ _____ _____    ______ ____
ROOT
ATOM     11  C   UNL     1      -4.966   1.543  25.042  0.00  0.00    +0.170 C 
ATOM     12  O   UNL     1      -4.292   2.018  25.008  0.00  0.00    -0.351 OA
ATOM     13  C   UNL     1      -4.523   2.798  25.145  0.00  0.00    +0.157 C 
ATOM     26  C   UNL     1      -5.340   2.805  25.265  0.00  0.00    +0.212 C 
ATOM     27  O   UNL     1      -5.801   3.471  25.421  0.00  0.00    -0.218 OA
ATOM     28  C   UNL     1      -5.613   2.030  25.202  0.00  0.00    +0.213 C 
ATOM     29  O   UNL     1      -6.397   1.784  25.283  0.00  0.00    -0.218 OA
ENDROOT
BRANCH  11  10
ATOM     10  C   UNL     1      -4.989   0.726  24.937  0.00  0.00    +0.149 C 
BRANCH  10   9
ATOM      6  N   UNL     1      -3.654  -0.903  25.509  0.00  0.00    -0.161 NA
ATOM      7  C   UNL     1      -4.135  -0.414  25.051  0.00  0.00    +0.344 C 
ATOM      8  O   UNL     1      -4.243  -0.576  24.249  0.00  0.00    -0.249 OA
ATOM      9  N   UNL     1      -4.508   0.236  25.395  0.00  0.00    -0.184 NA
BRANCH   6   5
ATOM      3  C   UNL     1      -2.111  -2.160  24.610  0.00  0.00    +0.140 A 
ATOM      4  C   UNL     1      -2.484  -1.509  24.954  0.00  0.00    +0.054 A 
ATOM      5  C   UNL     1      -3.281  -1.554  25.164  0.00  0.00    +0.078 A 
ATOM     30  C   UNL     1      -3.705  -2.249  25.031  0.00  0.00    +0.017 A 
ATOM     31  C   UNL     1      -3.332  -2.900  24.687  0.00  0.00    +0.004 A 
ATOM     32  C   UNL     1      -2.535  -2.856  24.476  0.00  0.00    +0.037 A 
BRANCH   3   2
ATOM      1  C   UNL     1      -0.764  -1.810  24.932  0.00  0.00    +0.252 C 
ATOM      2  O   UNL     1      -1.316  -2.116  24.400  0.00  0.00    -0.471 OA
ENDBRANCH   3   2
ENDBRANCH   6   5
ENDBRANCH  10   9
ENDBRANCH  11  10
BRANCH  13  14
ATOM     14  C   UNL     1      -4.024   3.456  25.160  0.00  0.00    +0.118 C 
BRANCH  14  15
ATOM     15  C   UNL     1      -3.260   3.401  24.854  0.00  0.00    +0.232 C 
ATOM     16  O   UNL     1      -3.079   2.818  24.299  0.00  0.00    -0.274 OA
ATOM     17  N   UNL     1      -2.677   3.928  25.104  0.00  0.00    -0.259 N 
ATOM     18  C   UNL     1      -2.776   4.536  25.653  0.00  0.00    +0.103 C 
ATOM     19  C   UNL     1      -2.053   4.924  25.738  0.00  0.00    +0.049 C 
ATOM     20  C   UNL     1      -1.507   4.556  25.241  0.00  0.00    -0.007 A 
ATOM     21  C   UNL     1      -0.709   4.702  25.093  0.00  0.00    -0.003 A 
ATOM     22  C   UNL     1      -0.296   4.233  24.556  0.00  0.00    -0.000 A 
ATOM     23  C   UNL     1      -0.682   3.617  24.164  0.00  0.00    +0.001 A 
ATOM     24  C   UNL     1      -1.480   3.471  24.311  0.00  0.00    +0.015 A 
ATOM     25  C   UNL     1      -1.893   3.941  24.850  0.00  0.00    +0.050 A 
ENDBRANCH  14  15
ENDBRANCH  13  14
TORSDOF 6
ENDMDL
MODEL 2
REMARK VINA RESULT:     -11.8      0.998      5.071
REMARK  Name = 
REMARK  6 active torsions:
REMARK  status: ('A' for Active; 'I' for Inactive)
REMARK    1  A    between atoms: O_2  and  C_3
REMARK    2  A    between atoms: C_5  and  N_6
REMARK    3  A    between atoms: N_9  and  C_10
REMARK    4  A    between atoms: C_10  and  C_11
REMARK    5  A    between atoms: C_13  and  C_14
REMARK    6  A    between atoms: C_14  and  C_15
REMARK                            x       y       z     vdW  Elec       q    Type
REMARK                         _______ _______ _______ _____ _____    ______ ____
ROOT
ATOM     11  C   UNL     1      -4.843   2.567  25.056  0.00  0.00    +0.170 C 
ATOM     12  O   UNL     1      -4.543   1.832  24.832  0.00  0.00    -0.351 OA
ATOM     13  C   UNL     1      -5.137   1.270  24.939  0.00  0.00    +0.157 C 
ATOM     26  C   UNL     1      -5.805   1.657  25.231  0.00  0.00    +0.212 C 
ATOM     27  O   UNL     1      -6.528   1.305  25.417  0.00  0.00    -0.218 OA
ATOM     28  C   UNL     1      -5.623   2.458  25.303  0.00  0.00    +0.213 C 
ATOM     29  O   UNL     1      -6.133   3.049  25.574  0.00  0.00    -0.218 OA
ENDROOT
BRANCH  11  10
ATOM     10  C   UNL     1      -4.436   3.283  25.038  0.00  0.00    +0.149 C 
BRANCH  10   9
ATOM      6  N   UNL     1      -2.396   3.811  25.609  0.00  0.00    -0.161 NA
ATOM      7  C   UNL     1      -3.078   3.711  25.155  0.00  0.00    +0.344 C 
ATOM      8  O   UNL     1      -3.082   3.942  24.362  0.00  0.00    -0.249 OA
ATOM      9  N   UNL     1      -3.754   3.383  25.493  0.00  0.00    -0.184 NA
BRANCH   6   5
ATOM      3  C   UNL     1      -0.478   3.981  24.581  0.00  0.00    +0.140 A 
ATOM      4  C   UNL     1      -1.155   3.652  24.919  0.00  0.00    +0.054 A 
ATOM      5  C   UNL     1      -1.719   4.140  25.271  0.00  0.00    +0.078 A 
ATOM     30  C   UNL     1      -1.608   4.957  25.285  0.00  0.00    +0.017 A 
ATOM     31  C   UNL     1      -0.931   5.286  24.946  0.00  0.00    +0.004 A 
ATOM     32  C   UNL     1      -0.365   4.799  24.594  0.00  0.00    +0.037 A 
BRANCH   3   2
ATOM      1  C   UNL     1       0.235   2.744  24.540  0.00  0.00    +0.252 C 
ATOM      2  O   UNL     1       0.087   3.494  24.229  0.00  0.00    -0.471 OA
ENDBRANCH   3   2
ENDBRANCH   6   5
ENDBRANCH  10   9
ENDBRANCH  11  10
BRANCH  13  14
ATOM     14  C   UNL     1      -5.075   0.461  24.783  0.00  0.00    +0.118 C 
BRANCH  14  15
ATOM     15  C   UNL     1      -4.400   0.048  25.014  0.00  0.00    +0.232 C 
ATOM     16  O   UNL     1      -3.914   0.351  25.608  0.00  0.00    -0.274 OA
ATOM     17  N   UNL     1      -4.211  -0.669  24.651  0.00  0.00    -0.259 N 
ATOM     18  C   UNL     1      -4.642  -1.037  24.053  0.00  0.00    +0.103 C 
ATOM     19  C   UNL     1      -4.255  -1.739  23.855  0.00  0.00    +0.049 C 
ATOM     20  C   UNL     1      -3.585  -1.803  24.331  0.00  0.00    -0.007 A 
ATOM     21  C   UNL     1      -2.995  -2.378  24.380  0.00  0.00    -0.003 A 
ATOM     22  C   UNL     1      -2.379  -2.292  24.921  0.00  0.00    -0.000 A 
ATOM     23  C   UNL     1      -2.352  -1.631  25.413  0.00  0.00    +0.001 A 
ATOM     24  C   UNL     1      -2.940  -1.055  25.365  0.00  0.00    +0.015 A 
ATOM     25  C   UNL     1      -3.557  -1.141  24.823  0.00  0.00    +0.050 A 
ENDBRANCH  14  15
ENDBRANCH  13  14
TORSDOF 6
ENDMDL
MODEL 3
REMARK VINA RESULT:     -11.6      1.819      6.352
REMARK  Name = 
REMARK  6 active torsions:
REMARK  status: ('A' for Active; 'I' for Inactive)
REMARK    1  A    between atoms: O_2  and  C_3
REMARK    2  A    between atoms: C_5  and  N_6
REMARK    3  A    between atoms: N_9  and  C_10
REMARK    4  A    between atoms: C_10  and  C_11
REMARK    5  A    between atoms: C_13  and  C_14
REMARK    6  A    between atoms: C_14  and  C_15
REMARK                            x       y       z     vdW  Elec       q    Type
REMARK                         _______ _______ _______ _____ _____    ______ ____
ROOT
ATOM     11  C   UNL     1       0.082   0.923  24.006  0.00  0.00    +0.170 C 
ATOM     12  O   UNL     1      -0.507   0.475  24.370  0.00  0.00    -0.351 OA
ATOM     13  C   UNL     1      -0.354  -0.321  24.217  0.00  0.00    +0.157 C 
ATOM     26  C   UNL     1       0.331  -0.366  23.758  0.00  0.00    +0.212 C 
ATOM     27  O   UNL     1       0.683  -1.057  23.479  0.00  0.00    -0.218 OA
ATOM     28  C   UNL     1       0.600   0.403  23.628  0.00  0.00    +0.213 C 
ATOM     29  O   UNL     1       1.270   0.615  23.196  0.00  0.00    -0.218 OA
ENDROOT
BRANCH  11  10
ATOM     10  C   UNL     1       0.144   1.745  24.018  0.00  0.00    +0.149 C 
BRANCH  10   9
ATOM      6  N   UNL     1      -0.652   3.215  25.421  0.00  0.00    -0.161 NA
ATOM      7  C   UNL     1      -0.513   2.801  24.721  0.00  0.00    +0.344 C 
ATOM      8  O   UNL     1      -0.893   3.028  24.025  0.00  0.00    -0.249 OA
ATOM      9  N   UNL     1       0.005   2.160  24.718  0.00  0.00    -0.184 NA
BRANCH   6   5
ATOM      3  C   UNL     1      -2.443   4.418  25.753  0.00  0.00    +0.140 A 
ATOM      4  C   UNL     1      -1.924   3.776  25.750  0.00  0.00    +0.054 A 
ATOM      5  C   UNL     1      -1.171   3.857  25.425  0.00  0.00    +0.078 A 
ATOM     30  C   UNL     1      -0.935   4.579  25.103  0.00  0.00    +0.017 A 
ATOM     31  C   UNL     1      -1.454   5.221  25.106  0.00  0.00    +0.004 A 
ATOM     32  C   UNL     1      -2.208   5.141  25.431  0.00  0.00    +0.037 A 
BRANCH   3   2
ATOM      1  C   UNL     1      -3.788   3.947  25.657  0.00  0.00    +0.252 C 
ATOM      2  O   UNL     1      -3.196   4.338  26.078  0.00  0.00    -0.471 OA
ENDBRANCH   3   2
ENDBRANCH   6   5
ENDBRANCH  10   9
ENDBRANCH  11  10
BRANCH  13  14
ATOM     14  C   UNL     1      -0.807  -0.961  24.477  0.00  0.00    +0.118 C 
BRANCH  14  15
ATOM     15  C   UNL     1      -1.624  -0.960  24.366  0.00  0.00    +0.232 C 
ATOM     16  O   UNL     1      -2.018  -0.252  24.210  0.00  0.00    -0.274 OA
ATOM     17  N   UNL     1      -2.047  -1.667  24.412  0.00  0.00    -0.259 N 
ATOM     18  C   UNL     1      -1.730  -2.413  24.564  0.00  0.00    +0.103 C 
ATOM     19  C   UNL     1      -2.349  -2.959  24.559  0.00  0.00    +0.049 C 
ATOM     20  C   UNL     1      -3.048  -2.550  24.405  0.00  0.00    -0.007 A 
ATOM     21  C   UNL     1      -3.831  -2.801  24.336  0.00  0.00    -0.003 A 
ATOM     22  C   UNL     1      -4.427  -2.254  24.175  0.00  0.00    -0.000 A 
ATOM     23  C   UNL     1      -4.241  -1.456  24.084  0.00  0.00    +0.001 A 
ATOM     24  C   UNL     1      -3.458  -1.204  24.153  0.00  0.00    +0.015 A 
ATOM     25  C   UNL     1      -2.862  -1.751  24.314  0.00  0.00    +0.050 A 
ENDBRANCH  14  15
ENDBRANCH  13  14
TORSDOF 6
ENDMDL
MODEL 4
REMARK VINA RESULT:     -11.5      1.569      3.459
REMARK  Name = 
REMARK  6 active torsions:
REMARK  status: ('A' for Active; 'I' for Inactive)
REMARK    1  A    between atoms: O_2  and  C_3
REMARK    2  A    between atoms: C_5  and  N_6
REMARK    3  A    between atoms: N_9  and  C_10
REMARK    4  A    between atoms: C_10  and  C_11
REMARK    5  A    between atoms: C_13  and  C_14
REMARK    6  A    between atoms: C_14  and  C_15
REMARK                            x       y       z     vdW  Elec       q    Type
REMARK                         _______ _______ _______ _____ _____    ______ ____
ROOT
ATOM     11  C   UNL     1      -0.457   1.578  24.540  0.00  0.00    +0.170 C 
ATOM     12  O   UNL     1      -1.175   1.956  24.686  0.00  0.00    -0.351 OA
ATOM     13  C   UNL     1      -1.054   2.770  24.618  0.00  0.00    +0.157 C 
ATOM     26  C   UNL     1      -0.260   2.894  24.430  0.00  0.00    +0.212 C 
ATOM     27  O   UNL     1       0.101   3.627  24.312  0.00  0.00    -0.218 OA
ATOM     28  C   UNL     1       0.109   2.158  24.382  0.00  0.00    +0.213 C 
ATOM     29  O   UNL     1       0.904   2.025  24.206  0.00  0.00    -0.218 OA
ENDROOT
BRANCH  11  10
ATOM     10  C   UNL     1      -0.326   0.764  24.550  0.00  0.00    +0.149 C 
BRANCH  10   9
ATOM      6  N   UNL     1      -1.567  -0.866  25.303  0.00  0.00    -0.161 NA
ATOM      7  C   UNL     1      -1.141  -0.385  24.784  0.00  0.00    +0.344 C 
ATOM      8  O   UNL     1      -1.107  -0.574  23.982  0.00  0.00    -0.249 OA
ATOM      9  N   UNL     1      -0.752   0.283  25.068  0.00  0.00    -0.184 NA
BRANCH   6   5
ATOM      3  C   UNL     1      -3.168  -2.197  24.649  0.00  0.00    +0.140 A 
ATOM      4  C   UNL     1      -2.778  -1.528  24.933  0.00  0.00    +0.054 A 
ATOM      5  C   UNL     1      -1.958  -1.535  25.019  0.00  0.00    +0.078 A 
ATOM     30  C   UNL     1      -1.527  -2.210  24.822  0.00  0.00    +0.017 A 
ATOM     31  C   UNL     1      -1.918  -2.880  24.538  0.00  0.00    +0.004 A 
ATOM     32  C   UNL     1      -2.738  -2.874  24.451  0.00  0.00    +0.037 A 
BRANCH   3   2
ATOM      1  C   UNL     1      -4.324  -2.102  23.813  0.00  0.00    +0.252 C 
ATOM      2  O   UNL     1      -3.988  -2.191  24.562  0.00  0.00    -0.471 OA
ENDBRANCH   3   2
ENDBRANCH   6   5
ENDBRANCH  10   9
ENDBRANCH  11  10
BRANCH  13  14
ATOM     14  C   UNL     1      -1.627   3.355  24.720  0.00  0.00    +0.118 C 
BRANCH  14  15
ATOM     15  C   UNL     1      -2.425   3.173  24.620  0.00  0.00    +0.232 C 
ATOM     16  O   UNL     1      -2.666   2.711  23.981  0.00  0.00    -0.274 OA
ATOM     17  N   UNL     1      -2.983   3.455  25.159  0.00  0.00    -0.259 N 
ATOM     18  C   UNL     1      -2.825   3.921  25.821  0.00  0.00    +0.103 C 
ATOM     19  C   UNL     1      -3.541   4.073  26.202  0.00  0.00    +0.049 C 
ATOM     20  C   UNL     1      -4.141   3.701  25.775  0.00  0.00    -0.007 A 
ATOM     21  C   UNL     1      -4.957   3.661  25.889  0.00  0.00    -0.003 A 
ATOM     22  C   UNL     1      -5.428   3.239  25.360  0.00  0.00    -0.000 A 
ATOM     23  C   UNL     1      -5.082   2.856  24.716  0.00  0.00    +0.001 A 
ATOM     24  C   UNL     1      -4.267   2.896  24.600  0.00  0.00    +0.015 A 
ATOM     25  C   UNL     1      -3.796   3.319  25.130  0.00  0.00    +0.050 A 
ENDBRANCH  14  15
ENDBRANCH  13  14
TORSDOF 6
ENDMDL
MODEL 5
REMARK VINA RESULT:     -10.8      1.722      6.081
REMARK  Name = 
REMARK  6 active torsions:
REMARK  status: ('A' for Active; 'I' for Inactive)
REMARK    1  A    between atoms: O_2  and  C_3
REMARK    2  A    between atoms: C_5  and  N_6
REMARK    3  A    between atoms: N_9  and  C_10
REMARK    4  A    between atoms: C_10  and  C_11
REMARK    5  A    between atoms: C_13  and  C_14
REMARK    6  A    between atoms: C_14  and  C_15
REMARK                            x       y       z     vdW  Elec       q    Type
REMARK                         _______ _______ _______ _____ _____    ______ ____
ROOT
ATOM     11  C   UNL     1      -0.268   1.258  24.580  0.00  0.00    +0.170 C 
ATOM     12  O   UNL     1      -0.775   0.622  24.719  0.00  0.00    -0.351 OA
ATOM     13  C   UNL     1      -0.479  -0.034  24.314  0.00  0.00    +0.157 C 
ATOM     26  C   UNL     1       0.211   0.198  23.924  0.00  0.00    +0.212 C 
ATOM     27  O   UNL     1       0.686  -0.285  23.453  0.00  0.00    -0.218 OA
ATOM     28  C   UNL     1       0.341   0.995  24.088  0.00  0.00    +0.213 C 
ATOM     29  O   UNL     1       0.970   1.451  23.810  0.00  0.00    -0.218 OA
ENDROOT
BRANCH  11  10
ATOM     10  C   UNL     1      -0.354   2.021  24.879  0.00  0.00    +0.149 C 
BRANCH  10   9
ATOM      6  N   UNL     1      -2.060   3.370  24.681  0.00  0.00    -0.161 NA
ATOM      7  C   UNL     1      -1.506   2.856  25.014  0.00  0.00    +0.344 C 
ATOM      8  O   UNL     1      -1.553   2.663  25.815  0.00  0.00    -0.249 OA
ATOM      9  N   UNL     1      -0.908   2.535  24.546  0.00  0.00    -0.184 NA
BRANCH   6   5
ATOM      3  C   UNL     1      -4.043   3.798  25.485  0.00  0.00    +0.140 A 
ATOM      4  C   UNL     1      -3.444   3.477  25.017  0.00  0.00    +0.054 A 
ATOM      5  C   UNL     1      -2.659   3.690  25.149  0.00  0.00    +0.078 A 
ATOM     30  C   UNL     1      -2.471   4.224  25.749  0.00  0.00    +0.017 A 
ATOM     31  C   UNL     1      -3.070   4.545  26.218  0.00  0.00    +0.004 A 
ATOM     32  C   UNL     1      -3.856   4.332  26.086  0.00  0.00    +0.037 A 
BRANCH   3   2
ATOM      1  C   UNL     1      -5.209   3.066  25.871  0.00  0.00    +0.252 C 
ATOM      2  O   UNL     1      -4.829   3.585  25.353  0.00  0.00    -0.471 OA
ENDBRANCH   3   2
ENDBRANCH   6   5
ENDBRANCH  10   9
ENDBRANCH  11  10
BRANCH  13  14
ATOM     14  C   UNL     1      -0.815  -0.788  24.300  0.00  0.00    +0.118 C 
BRANCH  14  15
ATOM     15  C   UNL     1      -1.628  -0.875  24.192  0.00  0.00    +0.232 C 
ATOM     16  O   UNL     1      -2.081  -0.236  23.931  0.00  0.00    -0.274 OA
ATOM     17  N   UNL     1      -1.988  -1.602  24.343  0.00  0.00    -0.259 N 
ATOM     18  C   UNL     1      -1.609  -2.286  24.604  0.00  0.00    +0.103 C 
ATOM     19  C   UNL     1      -2.178  -2.879  24.683  0.00  0.00    +0.049 C 
ATOM     20  C   UNL     1      -2.908  -2.561  24.470  0.00  0.00    -0.007 A 
ATOM     21  C   UNL     1      -3.665  -2.887  24.440  0.00  0.00    -0.003 A 
ATOM     22  C   UNL     1      -4.304  -2.426  24.200  0.00  0.00    -0.000 A 
ATOM     23  C   UNL     1      -4.188  -1.636  23.990  0.00  0.00    +0.001 A 
ATOM     24  C   UNL     1      -3.431  -1.309  24.020  0.00  0.00    +0.015 A 
ATOM     25  C   UNL     1      -2.791  -1.772  24.260  0.00  0.00    +0.050 A 
ENDBRANCH  14  15
ENDBRANCH  13  14
TORSDOF 6
ENDMDL
MODEL 6
REMARK VINA RESULT:     -10.6      1.641      4.448
REMARK  Name = 
REMARK  6 active torsions:
REMARK  status: ('A' for Active; 'I' for Inactive)
REMARK    1  A    between atoms: O_2  and  C_3
REMARK    2  A    between atoms: C_5  and  N_6
REMARK    3  A    between atoms: N_9  and  C_10
REMARK    4  A    between atoms: C_10  and  C_11
REMARK    5  A    between atoms: C_13  and  C_14
REMARK    6  A    between atoms: C_14  and  C_15
REMARK                            x       y       z     vdW  Elec       q    Type
REMARK                         _______ _______ _______ _____ _____    ______ ____
ROOT
ATOM     11  C   UNL     1      -3.261  -1.217  24.768  0.00  0.00    +0.170 C 
ATOM     12  O   UNL     1      -2.597  -0.729  24.813  0.00  0.00    -0.351 OA
ATOM     13  C   UNL     1      -1.926  -1.206  24.760  0.00  0.00    +0.157 C 
ATOM     26  C   UNL     1      -2.175  -1.989  24.683  0.00  0.00    +0.212 C 
ATOM     27  O   UNL     1      -1.685  -2.649  24.614  0.00  0.00    -0.218 OA
ATOM     28  C   UNL     1      -2.999  -1.996  24.688  0.00  0.00    +0.213 C 
ATOM     29  O   UNL     1      -3.479  -2.664  24.624  0.00  0.00    -0.218 OA
ENDROOT
BRANCH  11  10
ATOM     10  C   UNL     1      -4.047  -0.970  24.798  0.00  0.00    +0.149 C 
BRANCH  10   9
ATOM      6  N   UNL     1      -4.818   1.030  24.385  0.00  0.00    -0.161 NA
ATOM      7  C   UNL     1      -4.581   0.355  24.797  0.00  0.00    +0.344 C 
ATOM      8  O   UNL     1      -4.642   0.331  25.619  0.00  0.00    -0.249 OA
ATOM      9  N   UNL     1      -4.284  -0.295  24.386  0.00  0.00    -0.184 NA
BRANCH   6   5
ATOM      3  C   UNL     1      -4.963   3.019  25.272  0.00  0.00    +0.140 A 
ATOM      4  C   UNL     1      -4.665   2.368  24.861  0.00  0.00    +0.054 A 
ATOM      5  C   UNL     1      -5.116   1.681  24.797  0.00  0.00    +0.078 A 
ATOM     30  C   UNL     1      -5.863   1.642  25.143  0.00  0.00    +0.017 A 
ATOM     31  C   UNL     1      -6.161   2.293  25.554  0.00  0.00    +0.004 A 
ATOM     32  C   UNL     1      -5.711   2.982  25.619  0.00  0.00    +0.037 A 
BRANCH   3   2
ATOM      1  C   UNL     1      -3.883   3.740  25.869  0.00  0.00    +0.252 C 
ATOM      2  O   UNL     1      -4.513   3.707  25.337  0.00  0.00    -0.471 OA
ENDBRANCH   3   2
ENDBRANCH   6   5
ENDBRANCH  10   9
ENDBRANCH  11  10
BRANCH  13  14
ATOM     14  C   UNL     1      -1.143  -0.946  24.782  0.00  0.00    +0.118 C 
BRANCH  14  15
ATOM     15  C   UNL     1      -0.960  -0.217  25.122  0.00  0.00    +0.232 C 
ATOM     16  O   UNL     1      -1.203  -0.048  25.892  0.00  0.00    -0.274 OA
ATOM     17  N   UNL     1      -0.534   0.344  24.691  0.00  0.00    -0.259 N 
ATOM     18  C   UNL     1      -0.256   0.253  23.920  0.00  0.00    +0.103 C 
ATOM     19  C   UNL     1       0.139   0.947  23.708  0.00  0.00    +0.049 C 
ATOM     20  C   UNL     1       0.104   1.465  24.348  0.00  0.00    -0.007 A 
ATOM     21  C   UNL     1       0.397   2.229  24.458  0.00  0.00    -0.003 A 
ATOM     22  C   UNL     1       0.275   2.619  25.173  0.00  0.00    -0.000 A 
ATOM     23  C   UNL     1      -0.141   2.247  25.781  0.00  0.00    +0.001 A 
ATOM     24  C   UNL     1      -0.434   1.483  25.673  0.00  0.00    +0.015 A 
ATOM     25  C   UNL     1      -0.312   1.092  24.956  0.00  0.00    +0.050 A 
ENDBRANCH  14  15
ENDBRANCH  13  14
TORSDOF 6
ENDMDL
MODEL 7
REMARK VINA RESULT:     -10.5      2.729      4.614
REMARK  Name = 
REMARK  6 active torsions:
REMARK  status: ('A' for Active; 'I' for Inactive)
REMARK    1  A    between atoms: O_2  and  C_3
REMARK    2  A    between atoms: C_5  and  N_6
REMARK    3  A    between atoms: N_9  and  C_10
REMARK    4  A    between atoms: C_10  and  C_11
REMARK    5  A    between atoms: C_13  and  C_14
REMARK    6  A    between atoms: C_14  and  C_15
REMARK                            x       y       z     vdW  Elec       q    Type
REMARK                         _______ _______ _______ _____ _____    ______ ____
ROOT
ATOM     11  C   UNL     1      -1.742  -0.617  24.707  0.00  0.00    +0.170 C 
ATOM     12  O   UNL     1      -2.265  -0.009  24.514  0.00  0.00    -0.351 OA
ATOM     13  C   UNL     1      -3.006  -0.202  24.823  0.00  0.00    +0.157 C 
ATOM     26  C   UNL     1      -2.940  -0.929  25.207  0.00  0.00    +0.212 C 
ATOM     27  O   UNL     1      -3.548  -1.330  25.595  0.00  0.00    -0.218 OA
ATOM     28  C   UNL     1      -2.159  -1.186  25.136  0.00  0.00    +0.213 C 
ATOM     29  O   UNL     1      -1.849  -1.888  25.440  0.00  0.00    -0.218 OA
ENDROOT
BRANCH  11  10
ATOM     10  C   UNL     1      -0.942  -0.651  24.508  0.00  0.00    +0.149 C 
BRANCH  10   9
ATOM      6  N   UNL     1       0.468   0.408  23.221  0.00  0.00    -0.161 NA
ATOM      7  C   UNL     1       0.137  -0.177  23.700  0.00  0.00    +0.344 C 
ATOM      8  O   UNL     1       0.555  -0.872  23.850  0.00  0.00    -0.249 OA
ATOM      9  N   UNL     1      -0.611  -0.066  24.028  0.00  0.00    -0.184 NA
BRANCH   6   5
ATOM      3  C   UNL     1       2.620   0.567  22.889  0.00  0.00    +0.140 A 
ATOM      4  C   UNL     1       1.871   0.678  23.218  0.00  0.00    +0.054 A 
ATOM      5  C   UNL     1       1.217   0.297  22.892  0.00  0.00    +0.078 A 
ATOM     30  C   UNL     1       1.309  -0.196  22.237  0.00  0.00    +0.017 A 
ATOM     31  C   UNL     1       2.058  -0.307  21.908  0.00  0.00    +0.004 A 
ATOM     32  C   UNL     1       2.714   0.074  22.234  0.00  0.00    +0.037 A 
BRANCH   3   2
ATOM      1  C   UNL     1       4.009   0.896  22.843  0.00  0.00    +0.252 C 
ATOM      2  O   UNL     1       3.274   0.948  23.215  0.00  0.00    -0.471 OA
ENDBRANCH   3   2
ENDBRANCH   6   5
ENDBRANCH  10   9
ENDBRANCH  11  10
BRANCH  13  14
ATOM     14  C   UNL     1      -3.691   0.253  24.758  0.00  0.00    +0.118 C 
BRANCH  14  15
ATOM     15  C   UNL     1      -3.666   1.061  24.919  0.00  0.00    +0.232 C 
ATOM     16  O   UNL     1      -2.940   1.443  25.007  0.00  0.00    -0.274 OA
ATOM     17  N   UNL     1      -4.368   1.489  24.993  0.00  0.00    -0.259 N 
ATOM     18  C   UNL     1      -5.131   1.185  24.920  0.00  0.00    +0.103 C 
ATOM     19  C   UNL     1      -5.665   1.804  25.034  0.00  0.00    +0.049 C 
ATOM     20  C   UNL     1      -5.232   2.490  25.177  0.00  0.00    -0.007 A 
ATOM     21  C   UNL     1      -5.462   3.268  25.328  0.00  0.00    -0.003 A 
ATOM     22  C   UNL     1      -4.893   3.851  25.453  0.00  0.00    -0.000 A 
ATOM     23  C   UNL     1      -4.091   3.656  25.428  0.00  0.00    +0.001 A 
ATOM     24  C   UNL     1      -3.860   2.879  25.277  0.00  0.00    +0.015 A 
ATOM     25  C   UNL     1      -4.430   2.296  25.152  0.00  0.00    +0.050 A 
ENDBRANCH  14  15
ENDBRANCH  13  14
TORSDOF 6
ENDMDL
