MODEL 1
REMARK VINA RESULT:     -17.7      0.000      0.000
REMARK  Name = 
REMARK  2 active torsions:
REMARK  status: ('A' for Active; 'I' for Inactive)
REMARK    1  A    between atoms: C_5  and  C_8
REMARK    2  A    between atoms: C_17  and  C_24
REMARK                            x       y       z     vdW  Elec       q    Type
REMARK                         _______ _______ _______ _____ _____    ______ ____
ROOT
ATOM      8  C   UNL     1      -3.849   3.345  24.395  0.00  0.00    +0.249 C 
ATOM      9  O   UNL     1      -3.692   4.219  24.243  0.00  0.00    -0.270 OA
ATOM     10  N   UNL     1      -3.224   2.739  24.199  0.00  0.00    -0.276 N 
ATOM     11  C   UNL     1      -2.460   2.575  23.902  0.00  0.00    +0.096 C 
ATOM     12  C   UNL     1      -2.453   1.591  23.998  0.00  0.00    +0.043 C 
ATOM     13  C   UNL     1      -2.291   0.793  24.012  0.00  0.00    +0.011 C 
ATOM     14  C   UNL     1      -2.822   1.218  24.187  0.00  0.00    +0.058 C 
ATOM     15  C   UNL     1      -2.813   2.167  24.088  0.00  0.00    +0.099 C 
ATOM     16  C   UNL     1      -3.671   1.203  24.538  0.00  0.00    +0.041 A 
ATOM     17  C   UNL     1      -4.237   0.675  24.824  0.00  0.00    +0.012 A 
ATOM     18  C   UNL     1      -4.963   0.957  25.094  0.00  0.00    +0.006 A 
ATOM     19  C   UNL     1      -5.124   1.766  25.079  0.00  0.00    +0.061 A 
ATOM     20  C   UNL     1      -4.559   2.293  24.793  0.00  0.00    +0.261 A 
ATOM     21  O   UNL     1      -4.721   3.306  24.758  0.00  0.00    -0.267 OA
ATOM     22  N   UNL     1      -3.832   2.012  24.522  0.00  0.00    -0.299 N 
ATOM     23  C   UNL     1      -3.341   1.586  24.364  0.00  0.00    +0.110 C 
ENDROOT
BRANCH   8   5
ATOM      1  F   UNL     1      -6.301   1.521  25.922  0.00  0.00    -0.204 F 
ATOM      2  C   UNL     1      -5.716   1.948  25.527  0.00  0.00    +0.140 A 
ATOM      3  C   UNL     1      -5.693   1.768  24.737  0.00  0.00    +0.030 A 
ATOM      4  C   UNL     1      -5.020   2.269  24.321  0.00  0.00    +0.007 A 
ATOM      5  C   UNL     1      -4.547   2.802  24.737  0.00  0.00    +0.054 A 
ATOM      6  C   UNL     1      -4.658   2.908  25.547  0.00  0.00    +0.007 A 
ATOM      7  C   UNL     1      -5.243   2.480  25.942  0.00  0.00    +0.030 A 
ENDBRANCH   8   5
BRANCH  17  24
ATOM     24  C   UNL     1      -4.076  -0.134  24.839  0.00  0.00    +0.001 A 
ATOM     25  C   UNL     1      -3.727  -0.473  25.505  0.00  0.00    +0.000 A 
ATOM     26  C   UNL     1      -3.566  -1.282  25.520  0.00  0.00    +0.000 A 
ATOM     27  C   UNL     1      -3.754  -1.752  24.870  0.00  0.00    +0.000 A 
ATOM     28  C   UNL     1      -4.103  -1.414  24.203  0.00  0.00    +0.000 A 
ATOM     29  C   UNL     1      -4.264  -0.605  24.188  0.00  0.00    +0.000 A 
ENDBRANCH  17  24
TORSDOF 2
ENDMDL
MODEL 2
REMARK VINA RESULT:     -17.3      1.197      2.344
REMARK  Name = 
REMARK  2 active torsions:
REMARK  status: ('A' for Active; 'I' for Inactive)
REMARK    1  A    between atoms: C_5  and  C_8
REMARK    2  A    between atoms: C_17  and  C_24
REMARK                            x       y       z     vdW  Elec       q    Type
REMARK                         _______ _______ _______ _____ _____    ______ ____
ROOT
ATOM      8  C   UNL     1      -3.941   3.247  24.304  0.00  0.00    +0.249 C 
ATOM      9  O   UNL     1      -4.114   4.131  24.324  0.00  0.00    -0.270 OA
ATOM     10  N   UNL     1      -4.516   2.672  24.671  0.00  0.00    -0.276 N 
ATOM     11  C   UNL     1      -5.235   2.547  25.080  0.00  0.00    +0.096 C 
ATOM     12  C   UNL     1      -5.214   1.562  25.153  0.00  0.00    +0.043 C 
ATOM     13  C   UNL     1      -5.346   0.770  25.293  0.00  0.00    +0.011 C 
ATOM     14  C   UNL     1      -4.855   1.168  24.988  0.00  0.00    +0.058 C 
ATOM     15  C   UNL     1      -4.889   2.121  24.925  0.00  0.00    +0.099 C 
ATOM     16  C   UNL     1      -4.051   1.109  24.547  0.00  0.00    +0.041 A 
ATOM     17  C   UNL     1      -3.500   0.551  24.291  0.00  0.00    +0.012 A 
ATOM     18  C   UNL     1      -2.820   0.796  23.893  0.00  0.00    +0.006 A 
ATOM     19  C   UNL     1      -2.690   1.598  23.752  0.00  0.00    +0.061 A 
ATOM     20  C   UNL     1      -3.240   2.156  24.009  0.00  0.00    +0.261 A 
ATOM     21  O   UNL     1      -3.115   3.163  23.853  0.00  0.00    -0.267 OA
ATOM     22  N   UNL     1      -3.921   1.912  24.407  0.00  0.00    -0.299 N 
ATOM     23  C   UNL     1      -4.374   1.510  24.692  0.00  0.00    +0.110 C 
ENDROOT
BRANCH   8   5
ATOM      1  F   UNL     1      -1.314   1.270  23.378  0.00  0.00    -0.204 F 
ATOM      2  C   UNL     1      -1.964   1.735  23.579  0.00  0.00    +0.140 A 
ATOM      3  C   UNL     1      -2.591   1.608  23.081  0.00  0.00    +0.030 A 
ATOM      4  C   UNL     1      -3.310   2.152  23.337  0.00  0.00    +0.007 A 
ATOM      5  C   UNL     1      -3.265   2.667  23.979  0.00  0.00    +0.054 A 
ATOM      6  C   UNL     1      -2.571   2.717  24.422  0.00  0.00    +0.007 A 
ATOM      7  C   UNL     1      -1.920   2.250  24.221  0.00  0.00    +0.030 A 
ENDBRANCH   8   5
BRANCH  17  24
ATOM     24  C   UNL     1      -3.631  -0.251  24.431  0.00  0.00    +0.001 A 
ATOM     25  C   UNL     1      -4.028  -0.709  23.872  0.00  0.00    +0.000 A 
ATOM     26  C   UNL     1      -4.158  -1.511  24.013  0.00  0.00    +0.000 A 
ATOM     27  C   UNL     1      -3.891  -1.856  24.713  0.00  0.00    +0.000 A 
ATOM     28  C   UNL     1      -3.493  -1.399  25.272  0.00  0.00    +0.000 A 
ATOM     29  C   UNL     1      -3.363  -0.596  25.131  0.00  0.00    +0.000 A 
ENDBRANCH  17  24
TORSDOF 2
ENDMDL
MODEL 3
REMARK VINA RESULT:     -15.9      2.080      3.520
REMARK  Name = 
REMARK  2 active torsions:
REMARK  status: ('A' for Active; 'I' for Inactive)
REMARK    1  A    between atoms: C_5  and  C_8
REMARK    2  A    between atoms: C_17  and  C_24
REMARK                            x       y       z     vdW  Elec       q    Type
REMARK                         _______ _______ _______ _____ _____    ______ ____
ROOT
ATOM      8  C   UNL     1      -1.665  -1.149  25.259  0.00  0.00    +0.249 C 
ATOM      9  O   UNL     1      -1.059  -1.781  25.471  0.00  0.00    -0.270 OA
ATOM     10  N   UNL     1      -1.425  -0.289  25.242  0.00  0.00    -0.276 N 
ATOM     11  C   UNL     1      -0.825   0.284  25.343  0.00  0.00    +0.096 C 
ATOM     12  C   UNL     1      -1.341   1.101  25.137  0.00  0.00    +0.043 C 
ATOM     13  C   UNL     1      -1.619   1.854  24.998  0.00  0.00    +0.011 C 
ATOM     14  C   UNL     1      -1.871   1.199  24.993  0.00  0.00    +0.058 C 
ATOM     15  C   UNL     1      -1.359   0.418  25.194  0.00  0.00    +0.099 C 
ATOM     16  C   UNL     1      -2.643   0.724  24.838  0.00  0.00    +0.041 A 
ATOM     17  C   UNL     1      -3.432   0.836  24.627  0.00  0.00    +0.012 A 
ATOM     18  C   UNL     1      -3.936   0.187  24.557  0.00  0.00    +0.006 A 
ATOM     19  C   UNL     1      -3.651  -0.574  24.699  0.00  0.00    +0.061 A 
ATOM     20  C   UNL     1      -2.862  -0.686  24.911  0.00  0.00    +0.261 A 
ATOM     21  O   UNL     1      -2.470  -1.616  25.095  0.00  0.00    -0.267 OA
ATOM     22  N   UNL     1      -2.358  -0.037  24.980  0.00  0.00    -0.299 N 
ATOM     23  C   UNL     1      -2.143   0.597  24.978  0.00  0.00    +0.110 C 
ENDROOT
BRANCH   8   5
ATOM      1  F   UNL     1      -4.882  -1.110  24.111  0.00  0.00    -0.204 F 
ATOM      2  C   UNL     1      -4.115  -1.107  24.413  0.00  0.00    +0.140 A 
ATOM      3  C   UNL     1      -4.087  -0.792  25.160  0.00  0.00    +0.030 A 
ATOM      4  C   UNL     1      -3.204  -0.803  25.472  0.00  0.00    +0.007 A 
ATOM      5  C   UNL     1      -2.581  -1.100  25.020  0.00  0.00    +0.054 A 
ATOM      6  C   UNL     1      -2.724  -1.400  24.265  0.00  0.00    +0.007 A 
ATOM      7  C   UNL     1      -3.492  -1.403  23.962  0.00  0.00    +0.030 A 
ENDBRANCH   8   5
BRANCH  17  24
ATOM     24  C   UNL     1      -3.717   1.597  24.485  0.00  0.00    +0.001 A 
ATOM     25  C   UNL     1      -4.086   2.019  25.090  0.00  0.00    +0.000 A 
ATOM     26  C   UNL     1      -4.371   2.780  24.948  0.00  0.00    +0.000 A 
ATOM     27  C   UNL     1      -4.287   3.120  24.201  0.00  0.00    +0.000 A 
ATOM     28  C   UNL     1      -3.918   2.698  23.595  0.00  0.00    +0.000 A 
ATOM     29  C   UNL     1      -3.633   1.937  23.737  0.00  0.00    +0.000 A 
ENDBRANCH  17  24
TORSDOF 2
ENDMDL
