MODEL 1
REMARK VINA RESULT:      -9.0      0.000      0.000
REMARK  Name = 
REMARK  9 active torsions:
REMARK  status: ('A' for Active; 'I' for Inactive)
REMARK    1  A    between atoms: C_2  and  C_4
REMARK    2  A    between atoms: C_6  and  C_7
REMARK    3  A    between atoms: C_7  and  C_8
REMARK    4  A    between atoms: C_11  and  C_13
REMARK    5  A    between atoms: C_16  and  N_19
REMARK    6  A    between atoms: C_25  and  C_26
REMARK    7  A    between atoms: C_26  and  N_27
REMARK    8  A    between atoms: N_27  and  C_28
REMARK    9  A    between atoms: C_28  and  C_29
REMARK                            x       y       z     vdW  Elec       q    Type
REMARK                         _______ _______ _______ _____ _____    ______ ____
ROOT
ATOM      4  C   UNL     1      -0.254   0.653  24.121  0.00  0.00    +0.006 C 
ATOM      5  C   UNL     1      -0.874   0.336  24.565  0.00  0.00    +0.005 C 
ATOM      6  C   UNL     1      -0.943  -0.482  24.650  0.00  0.00    +0.027 C 
ATOM     22  C   UNL     1      -0.395  -0.982  24.291  0.00  0.00    -0.048 C 
ATOM     23  C   UNL     1      -0.465  -1.800  24.376  0.00  0.00    +0.026 C 
ATOM     24  C   UNL     1       0.224  -0.665  23.847  0.00  0.00    -0.033 C 
ATOM     25  C   UNL     1       0.295   0.152  23.762  0.00  0.00    +0.039 C 
ENDROOT
BRANCH   4   2
ATOM      1  C   UNL     1       0.226   1.909  24.602  0.00  0.00    +0.000 C 
ATOM      2  C   UNL     1      -0.184   1.470  24.036  0.00  0.00    +0.000 C 
ATOM      3  C   UNL     1      -0.525   1.849  23.387  0.00  0.00    +0.000 C 
ENDBRANCH   4   2
BRANCH   6   7
ATOM      7  C   UNL     1      -1.563  -0.799  25.094  0.00  0.00    +0.091 C 
BRANCH   7   8
ATOM      8  C   UNL     1      -2.344  -0.614  24.904  0.00  0.00    +0.227 A 
ATOM      9  N   UNL     1      -2.856  -1.078  24.452  0.00  0.00    -0.111 NA
ATOM     10  N   UNL     1      -3.578  -0.683  24.401  0.00  0.00    -0.107 NA
ATOM     11  C   UNL     1      -3.513   0.024  24.820  0.00  0.00    +0.250 A 
ATOM     12  O   UNL     1      -2.750   0.067  25.131  0.00  0.00    -0.420 OA
BRANCH  11  13
ATOM     13  C   UNL     1      -4.107   0.590  24.913  0.00  0.00    +0.055 A 
ATOM     14  C   UNL     1      -4.730   0.453  25.435  0.00  0.00    +0.006 A 
ATOM     15  C   UNL     1      -5.324   1.018  25.527  0.00  0.00    +0.015 A 
ATOM     16  C   UNL     1      -5.294   1.721  25.097  0.00  0.00    +0.048 A 
ATOM     17  C   UNL     1      -4.671   1.859  24.573  0.00  0.00    +0.015 A 
ATOM     18  C   UNL     1      -4.078   1.293  24.482  0.00  0.00    +0.006 A 
BRANCH  16  19
ATOM     19  N   UNL     1      -5.887   2.286  25.188  0.00  0.00    -0.304 N 
ATOM     20  C   UNL     1      -5.711   3.020  25.524  0.00  0.00    +0.112 C 
ATOM     21  C   UNL     1      -6.658   2.120  24.945  0.00  0.00    +0.112 C 
ENDBRANCH  16  19
ENDBRANCH  11  13
ENDBRANCH   7   8
ENDBRANCH   6   7
BRANCH  25  26
ATOM     26  C   UNL     1       0.913   0.469  23.319  0.00  0.00    +0.093 C 
BRANCH  26  27
ATOM     27  N   UNL     1       1.617   0.048  23.232  0.00  0.00    -0.211 NA
BRANCH  27  28
ATOM     28  C   UNL     1       2.141   0.240  22.625  0.00  0.00    +0.134 C 
BRANCH  28  29
ATOM     29  C   UNL     1       2.953   0.254  22.769  0.00  0.00    +0.077 A 
ATOM     30  N   UNL     1       3.340  -0.431  23.017  0.00  0.00    -0.247 NA
ATOM     31  C   UNL     1       4.152  -0.418  23.161  0.00  0.00    +0.098 A 
ATOM     32  C   UNL     1       4.577   0.281  23.057  0.00  0.00    +0.021 A 
ATOM     33  C   UNL     1       4.191   0.967  22.809  0.00  0.00    +0.003 A 
ATOM     34  C   UNL     1       3.378   0.953  22.665  0.00  0.00    +0.016 A 
ENDBRANCH  28  29
ENDBRANCH  27  28
ENDBRANCH  26  27
ENDBRANCH  25  26
TORSDOF 9
ENDMDL
MODEL 2
REMARK VINA RESULT:      -8.3      1.311      2.105
REMARK  Name = 
REMARK  9 active torsions:
REMARK  status: ('A' for Active; 'I' for Inactive)
REMARK    1  A    between atoms: C_2  and  C_4
REMARK    2  A    between atoms: C_6  and  C_7
REMARK    3  A    between atoms: C_7  and  C_8
REMARK    4  A    between atoms: C_11  and  C_13
REMARK    5  A    between atoms: C_16  and  N_19
REMARK    6  A    between atoms: C_25  and  C_26
REMARK    7  A    between atoms: C_26  and  N_27
REMARK    8  A    between atoms: N_27  and  C_28
REMARK    9  A    between atoms: C_28  and  C_29
REMARK                            x       y       z     vdW  Elec       q    Type
REMARK                         _______ _______ _______ _____ _____    ______ ____
ROOT
ATOM      4  C   UNL     1      -0.243   0.646  24.216  0.00  0.00    +0.006 C 
ATOM      5  C   UNL     1      -0.727   1.157  24.648  0.00  0.00    +0.005 C 
ATOM      6  C   UNL     1      -0.500   1.943  24.759  0.00  0.00    +0.027 C 
ATOM     22  C   UNL     1       0.209   2.217  24.440  0.00  0.00    -0.048 C 
ATOM     23  C   UNL     1       0.434   3.003  24.552  0.00  0.00    +0.026 C 
ATOM     24  C   UNL     1       0.691   1.707  24.008  0.00  0.00    -0.033 C 
ATOM     25  C   UNL     1       0.466   0.921  23.896  0.00  0.00    +0.039 C 
ENDROOT
BRANCH   4   2
ATOM      1  C   UNL     1      -0.881  -0.356  23.423  0.00  0.00    +0.000 C 
ATOM      2  C   UNL     1      -0.470  -0.139  24.104  0.00  0.00    +0.000 C 
ATOM      3  C   UNL     1      -0.285  -0.707  24.673  0.00  0.00    +0.000 C 
ENDBRANCH   4   2
BRANCH   6   7
ATOM      7  C   UNL     1      -0.984   2.454  25.192  0.00  0.00    +0.091 C 
BRANCH   7   8
ATOM      8  C   UNL     1      -1.755   2.604  24.940  0.00  0.00    +0.227 A 
ATOM      9  N   UNL     1      -1.974   3.105  24.321  0.00  0.00    -0.111 NA
ATOM     10  N   UNL     1      -2.797   3.090  24.261  0.00  0.00    -0.107 NA
ATOM     11  C   UNL     1      -3.086   2.580  24.842  0.00  0.00    +0.250 A 
ATOM     12  O   UNL     1      -2.442   2.280  25.261  0.00  0.00    -0.420 OA
BRANCH  11  13
ATOM     13  C   UNL     1      -3.880   2.402  24.979  0.00  0.00    +0.055 A 
ATOM     14  C   UNL     1      -4.176   1.656  24.785  0.00  0.00    +0.006 A 
ATOM     15  C   UNL     1      -4.969   1.479  24.923  0.00  0.00    +0.015 A 
ATOM     16  C   UNL     1      -5.468   2.046  25.254  0.00  0.00    +0.048 A 
ATOM     17  C   UNL     1      -5.172   2.792  25.448  0.00  0.00    +0.015 A 
ATOM     18  C   UNL     1      -4.379   2.970  25.311  0.00  0.00    +0.006 A 
BRANCH  16  19
ATOM     19  N   UNL     1      -6.261   1.869  25.391  0.00  0.00    -0.304 N 
ATOM     20  C   UNL     1      -6.779   1.772  24.756  0.00  0.00    +0.112 C 
ATOM     21  C   UNL     1      -6.538   1.787  26.164  0.00  0.00    +0.112 C 
ENDBRANCH  16  19
ENDBRANCH  11  13
ENDBRANCH   7   8
ENDBRANCH   6   7
BRANCH  25  26
ATOM     26  C   UNL     1       0.948   0.411  23.465  0.00  0.00    +0.093 C 
BRANCH  26  27
ATOM     27  N   UNL     1       1.722   0.629  23.284  0.00  0.00    -0.211 NA
BRANCH  27  28
ATOM     28  C   UNL     1       2.196   0.133  22.825  0.00  0.00    +0.134 C 
BRANCH  28  29
ATOM     29  C   UNL     1       3.017   0.189  22.868  0.00  0.00    +0.077 A 
ATOM     30  N   UNL     1       3.456  -0.421  23.208  0.00  0.00    -0.247 NA
ATOM     31  C   UNL     1       4.277  -0.365  23.251  0.00  0.00    +0.098 A 
ATOM     32  C   UNL     1       4.661   0.302  22.954  0.00  0.00    +0.021 A 
ATOM     33  C   UNL     1       4.223   0.913  22.614  0.00  0.00    +0.003 A 
ATOM     34  C   UNL     1       3.401   0.856  22.571  0.00  0.00    +0.016 A 
ENDBRANCH  28  29
ENDBRANCH  27  28
ENDBRANCH  26  27
ENDBRANCH  25  26
TORSDOF 9
ENDMDL
MODEL 3
REMARK VINA RESULT:      -8.2      2.333      4.175
REMARK  Name = 
REMARK  9 active torsions:
REMARK  status: ('A' for Active; 'I' for Inactive)
REMARK    1  A    between atoms: C_2  and  C_4
REMARK    2  A    between atoms: C_6  and  C_7
REMARK    3  A    between atoms: C_7  and  C_8
REMARK    4  A    between atoms: C_11  and  C_13
REMARK    5  A    between atoms: C_16  and  N_19
REMARK    6  A    between atoms: C_25  and  C_26
REMARK    7  A    between atoms: C_26  and  N_27
REMARK    8  A    between atoms: N_27  and  C_28
REMARK    9  A    between atoms: C_28  and  C_29
REMARK                            x       y       z     vdW  Elec       q    Type
REMARK                         _______ _______ _______ _____ _____    ______ ____
ROOT
ATOM      4  C   UNL     1      -0.456   1.121  24.285  0.00  0.00    +0.006 C 
ATOM      5  C   UNL     1      -0.409   1.927  24.456  0.00  0.00    +0.005 C 
ATOM      6  C   UNL     1      -0.380   2.180  25.241  0.00  0.00    +0.027 C 
ATOM     22  C   UNL     1      -0.399   1.628  25.854  0.00  0.00    -0.048 C 
ATOM     23  C   UNL     1      -0.370   1.882  26.638  0.00  0.00    +0.026 C 
ATOM     24  C   UNL     1      -0.446   0.823  25.682  0.00  0.00    -0.033 C 
ATOM     25  C   UNL     1      -0.474   0.569  24.898  0.00  0.00    +0.039 C 
ENDROOT
BRANCH   4   2
ATOM      1  C   UNL     1       0.188   0.548  23.146  0.00  0.00    +0.000 C 
ATOM      2  C   UNL     1      -0.485   0.868  23.500  0.00  0.00    +0.000 C 
ATOM      3  C   UNL     1      -1.186   0.934  23.070  0.00  0.00    +0.000 C 
ENDBRANCH   4   2
BRANCH   6   7
ATOM      7  C   UNL     1      -0.333   2.986  25.413  0.00  0.00    +0.091 C 
BRANCH   7   8
ATOM      8  C   UNL     1      -1.003   3.462  25.344  0.00  0.00    +0.227 A 
ATOM      9  N   UNL     1      -1.010   4.267  25.159  0.00  0.00    -0.111 NA
ATOM     10  N   UNL     1      -1.794   4.519  25.148  0.00  0.00    -0.107 NA
ATOM     11  C   UNL     1      -2.273   3.872  25.327  0.00  0.00    +0.250 A 
ATOM     12  O   UNL     1      -1.784   3.219  25.448  0.00  0.00    -0.420 OA
BRANCH  11  13
ATOM     13  C   UNL     1      -3.097   3.877  25.376  0.00  0.00    +0.055 A 
ATOM     14  C   UNL     1      -3.552   3.877  24.688  0.00  0.00    +0.006 A 
ATOM     15  C   UNL     1      -4.375   3.882  24.737  0.00  0.00    +0.015 A 
ATOM     16  C   UNL     1      -4.744   3.887  25.475  0.00  0.00    +0.048 A 
ATOM     17  C   UNL     1      -4.290   3.887  26.164  0.00  0.00    +0.015 A 
ATOM     18  C   UNL     1      -3.467   3.882  26.114  0.00  0.00    +0.006 A 
BRANCH  16  19
ATOM     19  N   UNL     1      -5.568   3.892  25.524  0.00  0.00    -0.304 N 
ATOM     20  C   UNL     1      -5.978   3.187  25.654  0.00  0.00    +0.112 C 
ATOM     21  C   UNL     1      -5.982   4.601  25.444  0.00  0.00    +0.112 C 
ENDBRANCH  16  19
ENDBRANCH  11  13
ENDBRANCH   7   8
ENDBRANCH   6   7
BRANCH  25  26
ATOM     26  C   UNL     1      -0.521  -0.236  24.726  0.00  0.00    +0.093 C 
BRANCH  26  27
ATOM     27  N   UNL     1      -1.062  -0.713  25.126  0.00  0.00    -0.211 NA
BRANCH  27  28
ATOM     28  C   UNL     1      -1.097  -1.522  24.968  0.00  0.00    +0.134 C 
BRANCH  28  29
ATOM     29  C   UNL     1      -1.827  -1.902  24.918  0.00  0.00    +0.077 A 
ATOM     30  N   UNL     1      -1.965  -2.454  24.320  0.00  0.00    -0.247 NA
ATOM     31  C   UNL     1      -2.695  -2.835  24.270  0.00  0.00    +0.098 A 
ATOM     32  C   UNL     1      -3.287  -2.663  24.818  0.00  0.00    +0.021 A 
ATOM     33  C   UNL     1      -3.151  -2.111  25.415  0.00  0.00    +0.003 A 
ATOM     34  C   UNL     1      -2.419  -1.730  25.465  0.00  0.00    +0.016 A 
ENDBRANCH  28  29
ENDBRANCH  27  28
ENDBRANCH  26  27
ENDBRANCH  25  26
TORSDOF 9
ENDMDL
MODEL 4
REMARK VINA RESULT:      -8.1      1.442      6.876
REMARK  Name = 
REMARK  9 active torsions:
REMARK  status: ('A' for Active; 'I' for Inactive)
REMARK    1  A    between atoms: C_2  and  C_4
REMARK    2  A    between atoms: C_6  and  C_7
REMARK    3  A    between atoms: C_7  and  C_8
REMARK    4  A    between atoms: C_11  and  C_13
REMARK    5  A    between atoms: C_16  and  N_19
REMARK    6  A    between atoms: C_25  and  C_26
REMARK    7  A    between atoms: C_26  and  N_27
REMARK    8  A    between atoms: N_27  and  C_28
REMARK    9  A    between atoms: C_28  and  C_29
REMARK                            x       y       z     vdW  Elec       q    Type
REMARK                         _______ _______ _______ _____ _____    ______ ____
ROOT
ATOM      4  C   UNL     1      -0.815   1.662  24.612  0.00  0.00    +0.006 C 
ATOM      5  C   UNL     1      -0.338   1.024  24.395  0.00  0.00    +0.005 C 
ATOM      6  C   UNL     1      -0.683   0.301  24.197  0.00  0.00    +0.027 C 
ATOM     22  C   UNL     1      -1.503   0.215  24.216  0.00  0.00    -0.048 C 
ATOM     23  C   UNL     1      -1.846  -0.509  24.018  0.00  0.00    +0.026 C 
ATOM     24  C   UNL     1      -1.979   0.852  24.433  0.00  0.00    -0.033 C 
ATOM     25  C   UNL     1      -1.636   1.576  24.631  0.00  0.00    +0.039 C 
ENDROOT
BRANCH   4   2
ATOM      1  C   UNL     1      -0.208   2.518  25.580  0.00  0.00    +0.000 C 
ATOM      2  C   UNL     1      -0.471   2.385  24.809  0.00  0.00    +0.000 C 
ATOM      3  C   UNL     1      -0.390   2.974  24.237  0.00  0.00    +0.000 C 
ENDBRANCH   4   2
BRANCH   6   7
ATOM      7  C   UNL     1      -0.205  -0.337  23.980  0.00  0.00    +0.091 C 
BRANCH   7   8
ATOM      8  C   UNL     1       0.454  -0.214  23.500  0.00  0.00    +0.227 A 
ATOM      9  N   UNL     1       0.447  -0.116  22.680  0.00  0.00    -0.111 NA
ATOM     10  N   UNL     1       1.225  -0.009  22.430  0.00  0.00    -0.107 NA
ATOM     11  C   UNL     1       1.714  -0.041  23.094  0.00  0.00    +0.250 A 
ATOM     12  O   UNL     1       1.237  -0.168  23.755  0.00  0.00    -0.420 OA
BRANCH  11  13
ATOM     13  C   UNL     1       2.535   0.039  23.096  0.00  0.00    +0.055 A 
ATOM     14  C   UNL     1       2.880   0.764  22.906  0.00  0.00    +0.006 A 
ATOM     15  C   UNL     1       3.701   0.844  22.908  0.00  0.00    +0.015 A 
ATOM     16  C   UNL     1       4.177   0.200  23.100  0.00  0.00    +0.048 A 
ATOM     17  C   UNL     1       3.833  -0.526  23.291  0.00  0.00    +0.015 A 
ATOM     18  C   UNL     1       3.013  -0.606  23.288  0.00  0.00    +0.006 A 
BRANCH  16  19
ATOM     19  N   UNL     1       4.998   0.279  23.102  0.00  0.00    -0.304 N 
ATOM     20  C   UNL     1       5.379   0.612  23.755  0.00  0.00    +0.112 C 
ATOM     21  C   UNL     1       5.439   0.027  22.452  0.00  0.00    +0.112 C 
ENDBRANCH  16  19
ENDBRANCH  11  13
ENDBRANCH   7   8
ENDBRANCH   6   7
BRANCH  25  26
ATOM     26  C   UNL     1      -2.112   2.213  24.848  0.00  0.00    +0.093 C 
BRANCH  26  27
ATOM     27  N   UNL     1      -2.930   2.123  24.883  0.00  0.00    -0.211 NA
BRANCH  27  28
ATOM     28  C   UNL     1      -3.419   2.788  24.908  0.00  0.00    +0.134 C 
BRANCH  28  29
ATOM     29  C   UNL     1      -4.220   2.705  25.082  0.00  0.00    +0.077 A 
ATOM     30  N   UNL     1      -4.546   3.098  25.730  0.00  0.00    -0.247 NA
ATOM     31  C   UNL     1      -5.347   3.016  25.904  0.00  0.00    +0.098 A 
ATOM     32  C   UNL     1      -5.825   2.539  25.429  0.00  0.00    +0.021 A 
ATOM     33  C   UNL     1      -5.501   2.146  24.780  0.00  0.00    +0.003 A 
ATOM     34  C   UNL     1      -4.698   2.229  24.607  0.00  0.00    +0.016 A 
ENDBRANCH  28  29
ENDBRANCH  27  28
ENDBRANCH  26  27
ENDBRANCH  25  26
TORSDOF 9
ENDMDL
MODEL 5
REMARK VINA RESULT:      -7.8      2.495      4.541
REMARK  Name = 
REMARK  9 active torsions:
REMARK  status: ('A' for Active; 'I' for Inactive)
REMARK    1  A    between atoms: C_2  and  C_4
REMARK    2  A    between atoms: C_6  and  C_7
REMARK    3  A    between atoms: C_7  and  C_8
REMARK    4  A    between atoms: C_11  and  C_13
REMARK    5  A    between atoms: C_16  and  N_19
REMARK    6  A    between atoms: C_25  and  C_26
REMARK    7  A    between atoms: C_26  and  N_27
REMARK    8  A    between atoms: N_27  and  C_28
REMARK    9  A    between atoms: C_28  and  C_29
REMARK                            x       y       z     vdW  Elec       q    Type
REMARK                         _______ _______ _______ _____ _____    ______ ____
ROOT
ATOM      4  C   UNL     1      -3.474   3.729  25.530  0.00  0.00    +0.006 C 
ATOM      5  C   UNL     1      -4.154   3.291  25.364  0.00  0.00    +0.005 C 
ATOM      6  C   UNL     1      -4.284   3.007  24.601  0.00  0.00    +0.027 C 
ATOM     22  C   UNL     1      -3.735   3.160  24.004  0.00  0.00    -0.048 C 
ATOM     23  C   UNL     1      -3.867   2.875  23.241  0.00  0.00    +0.026 C 
ATOM     24  C   UNL     1      -3.057   3.597  24.170  0.00  0.00    -0.033 C 
ATOM     25  C   UNL     1      -2.925   3.882  24.934  0.00  0.00    +0.039 C 
ENDROOT
BRANCH   4   2
ATOM      1  C   UNL     1      -3.088   3.500  26.886  0.00  0.00    +0.000 C 
ATOM      2  C   UNL     1      -3.344   4.013  26.294  0.00  0.00    +0.000 C 
ATOM      3  C   UNL     1      -3.470   4.811  26.465  0.00  0.00    +0.000 C 
ENDBRANCH   4   2
BRANCH   6   7
ATOM      7  C   UNL     1      -4.964   2.569  24.434  0.00  0.00    +0.091 C 
BRANCH   7   8
ATOM      8  C   UNL     1      -5.014   1.779  24.667  0.00  0.00    +0.227 A 
ATOM      9  N   UNL     1      -5.618   1.444  25.119  0.00  0.00    -0.111 NA
ATOM     10  N   UNL     1      -5.446   0.644  25.221  0.00  0.00    -0.107 NA
ATOM     11  C   UNL     1      -4.736   0.485  24.833  0.00  0.00    +0.250 A 
ATOM     12  O   UNL     1      -4.469   1.186  24.491  0.00  0.00    -0.420 OA
BRANCH  11  13
ATOM     13  C   UNL     1      -4.358  -0.248  24.793  0.00  0.00    +0.055 A 
ATOM     14  C   UNL     1      -3.915  -0.520  25.434  0.00  0.00    +0.006 A 
ATOM     15  C   UNL     1      -3.538  -1.252  25.394  0.00  0.00    +0.015 A 
ATOM     16  C   UNL     1      -3.604  -1.714  24.714  0.00  0.00    +0.048 A 
ATOM     17  C   UNL     1      -4.048  -1.443  24.072  0.00  0.00    +0.015 A 
ATOM     18  C   UNL     1      -4.424  -0.710  24.112  0.00  0.00    +0.006 A 
BRANCH  16  19
ATOM     19  N   UNL     1      -3.228  -2.447  24.674  0.00  0.00    -0.304 N 
ATOM     20  C   UNL     1      -3.671  -3.142  24.707  0.00  0.00    +0.112 C 
ATOM     21  C   UNL     1      -2.407  -2.485  24.601  0.00  0.00    +0.112 C 
ENDBRANCH  16  19
ENDBRANCH  11  13
ENDBRANCH   7   8
ENDBRANCH   6   7
BRANCH  25  26
ATOM     26  C   UNL     1      -2.247   4.319  25.100  0.00  0.00    +0.093 C 
BRANCH  26  27
ATOM     27  N   UNL     1      -1.552   4.179  24.679  0.00  0.00    -0.211 NA
BRANCH  27  28
ATOM     28  C   UNL     1      -0.834   4.107  25.078  0.00  0.00    +0.134 C 
BRANCH  28  29
ATOM     29  C   UNL     1      -0.358   3.445  24.955  0.00  0.00    +0.077 A 
ATOM     30  N   UNL     1      -0.116   3.246  24.191  0.00  0.00    -0.247 NA
ATOM     31  C   UNL     1       0.360   2.585  24.068  0.00  0.00    +0.098 A 
ATOM     32  C   UNL     1       0.595   2.121  24.708  0.00  0.00    +0.021 A 
ATOM     33  C   UNL     1       0.355   2.319  25.472  0.00  0.00    +0.003 A 
ATOM     34  C   UNL     1      -0.122   2.982  25.595  0.00  0.00    +0.016 A 
ENDBRANCH  28  29
ENDBRANCH  27  28
ENDBRANCH  26  27
ENDBRANCH  25  26
TORSDOF 9
ENDMDL
MODEL 6
REMARK VINA RESULT:      -7.7      1.686      3.045
REMARK  Name = 
REMARK  9 active torsions:
REMARK  status: ('A' for Active; 'I' for Inactive)
REMARK    1  A    between atoms: C_2  and  C_4
REMARK    2  A    between atoms: C_6  and  C_7
REMARK    3  A    between atoms: C_7  and  C_8
REMARK    4  A    between atoms: C_11  and  C_13
REMARK    5  A    between atoms: C_16  and  N_19
REMARK    6  A    between atoms: C_25  and  C_26
REMARK    7  A    between atoms: C_26  and  N_27
REMARK    8  A    between atoms: N_27  and  C_28
REMARK    9  A    between atoms: C_28  and  C_29
REMARK                            x       y       z     vdW  Elec       q    Type
REMARK                         _______ _______ _______ _____ _____    ______ ____
ROOT
ATOM      4  C   UNL     1      -0.938   2.194  25.090  0.00  0.00    +0.006 C 
ATOM      5  C   UNL     1      -1.762   2.235  25.085  0.00  0.00    +0.005 C 
ATOM      6  C   UNL     1      -2.167   2.278  24.367  0.00  0.00    +0.027 C 
ATOM     22  C   UNL     1      -1.749   2.281  23.656  0.00  0.00    -0.048 C 
ATOM     23  C   UNL     1      -2.156   2.324  22.939  0.00  0.00    +0.026 C 
ATOM     24  C   UNL     1      -0.926   2.240  23.662  0.00  0.00    -0.033 C 
ATOM     25  C   UNL     1      -0.519   2.196  24.379  0.00  0.00    +0.039 C 
ENDROOT
BRANCH   4   2
ATOM      1  C   UNL     1      -0.419   1.419  26.172  0.00  0.00    +0.000 C 
ATOM      2  C   UNL     1      -0.533   2.150  25.808  0.00  0.00    +0.000 C 
ATOM      3  C   UNL     1      -0.242   2.837  26.160  0.00  0.00    +0.000 C 
ENDBRANCH   4   2
BRANCH   6   7
ATOM      7  C   UNL     1      -2.992   2.319  24.361  0.00  0.00    +0.091 C 
BRANCH   7   8
ATOM      8  C   UNL     1      -3.440   1.647  24.530  0.00  0.00    +0.227 A 
ATOM      9  N   UNL     1      -4.178   1.636  24.899  0.00  0.00    -0.111 NA
ATOM     10  N   UNL     1      -4.422   0.850  24.956  0.00  0.00    -0.107 NA
ATOM     11  C   UNL     1      -3.835   0.376  24.623  0.00  0.00    +0.250 A 
ATOM     12  O   UNL     1      -3.228   0.868  24.360  0.00  0.00    -0.420 OA
BRANCH  11  13
ATOM     13  C   UNL     1      -3.853  -0.447  24.564  0.00  0.00    +0.055 A 
ATOM     14  C   UNL     1      -3.499  -0.911  25.148  0.00  0.00    +0.006 A 
ATOM     15  C   UNL     1      -3.517  -1.733  25.088  0.00  0.00    +0.015 A 
ATOM     16  C   UNL     1      -3.888  -2.093  24.445  0.00  0.00    +0.048 A 
ATOM     17  C   UNL     1      -4.241  -1.629  23.861  0.00  0.00    +0.015 A 
ATOM     18  C   UNL     1      -4.224  -0.807  23.920  0.00  0.00    +0.006 A 
BRANCH  16  19
ATOM     19  N   UNL     1      -3.905  -2.915  24.386  0.00  0.00    -0.304 N 
ATOM     20  C   UNL     1      -3.504  -3.378  24.938  0.00  0.00    +0.112 C 
ATOM     21  C   UNL     1      -4.325  -3.276  23.773  0.00  0.00    +0.112 C 
ENDBRANCH  16  19
ENDBRANCH  11  13
ENDBRANCH   7   8
ENDBRANCH   6   7
BRANCH  25  26
ATOM     26  C   UNL     1       0.304   2.156  24.385  0.00  0.00    +0.093 C 
BRANCH  26  27
ATOM     27  N   UNL     1       0.699   1.709  23.816  0.00  0.00    -0.211 NA
BRANCH  27  28
ATOM     28  C   UNL     1       1.500   1.533  23.911  0.00  0.00    +0.134 C 
BRANCH  28  29
ATOM     29  C   UNL     1       1.878   1.029  23.380  0.00  0.00    +0.077 A 
ATOM     30  N   UNL     1       2.667   1.158  23.178  0.00  0.00    -0.247 NA
ATOM     31  C   UNL     1       3.045   0.654  22.646  0.00  0.00    +0.098 A 
ATOM     32  C   UNL     1       2.634   0.019  22.316  0.00  0.00    +0.021 A 
ATOM     33  C   UNL     1       1.845  -0.111  22.518  0.00  0.00    +0.003 A 
ATOM     34  C   UNL     1       1.467   0.394  23.050  0.00  0.00    +0.016 A 
ENDBRANCH  28  29
ENDBRANCH  27  28
ENDBRANCH  26  27
ENDBRANCH  25  26
TORSDOF 9
ENDMDL
MODEL 7
REMARK VINA RESULT:      -7.7      1.938      3.122
REMARK  Name = 
REMARK  9 active torsions:
REMARK  status: ('A' for Active; 'I' for Inactive)
REMARK    1  A    between atoms: C_2  and  C_4
REMARK    2  A    between atoms: C_6  and  C_7
REMARK    3  A    between atoms: C_7  and  C_8
REMARK    4  A    between atoms: C_11  and  C_13
REMARK    5  A    between atoms: C_16  and  N_19
REMARK    6  A    between atoms: C_25  and  C_26
REMARK    7  A    between atoms: C_26  and  N_27
REMARK    8  A    between atoms: N_27  and  C_28
REMARK    9  A    between atoms: C_28  and  C_29
REMARK                            x       y       z     vdW  Elec       q    Type
REMARK                         _______ _______ _______ _____ _____    ______ ____
ROOT
ATOM      4  C   UNL     1      -0.287   2.550  25.516  0.00  0.00    +0.006 C 
ATOM      5  C   UNL     1      -0.787   3.204  25.580  0.00  0.00    +0.005 C 
ATOM      6  C   UNL     1      -0.916   3.689  24.926  0.00  0.00    +0.027 C 
ATOM     22  C   UNL     1      -0.546   3.522  24.208  0.00  0.00    -0.048 C 
ATOM     23  C   UNL     1      -0.676   4.008  23.554  0.00  0.00    +0.026 C 
ATOM     24  C   UNL     1      -0.047   2.869  24.144  0.00  0.00    -0.033 C 
ATOM     25  C   UNL     1       0.083   2.382  24.798  0.00  0.00    +0.039 C 
ENDROOT
BRANCH   4   2
ATOM      1  C   UNL     1      -0.555   1.343  26.232  0.00  0.00    +0.000 C 
ATOM      2  C   UNL     1      -0.158   2.064  26.170  0.00  0.00    +0.000 C 
ATOM      3  C   UNL     1       0.367   2.299  26.761  0.00  0.00    +0.000 C 
ENDBRANCH   4   2
BRANCH   6   7
ATOM      7  C   UNL     1      -1.416   4.343  24.990  0.00  0.00    +0.091 C 
BRANCH   7   8
ATOM      8  C   UNL     1      -2.174   4.254  25.304  0.00  0.00    +0.227 A 
ATOM      9  N   UNL     1      -2.511   4.719  25.896  0.00  0.00    -0.111 NA
ATOM     10  N   UNL     1      -3.273   4.437  26.039  0.00  0.00    -0.107 NA
ATOM     11  C   UNL     1      -3.406   3.797  25.535  0.00  0.00    +0.250 A 
ATOM     12  O   UNL     1      -2.727   3.684  25.081  0.00  0.00    -0.420 OA
BRANCH  11  13
ATOM     13  C   UNL     1      -4.098   3.349  25.493  0.00  0.00    +0.055 A 
ATOM     14  C   UNL     1      -4.091   2.612  25.122  0.00  0.00    +0.006 A 
ATOM     15  C   UNL     1      -4.782   2.164  25.080  0.00  0.00    +0.015 A 
ATOM     16  C   UNL     1      -5.481   2.453  25.409  0.00  0.00    +0.048 A 
ATOM     17  C   UNL     1      -5.489   3.191  25.779  0.00  0.00    +0.015 A 
ATOM     18  C   UNL     1      -4.798   3.638  25.821  0.00  0.00    +0.006 A 
BRANCH  16  19
ATOM     19  N   UNL     1      -6.173   2.006  25.367  0.00  0.00    -0.304 N 
ATOM     20  C   UNL     1      -6.487   1.666  26.050  0.00  0.00    +0.112 C 
ATOM     21  C   UNL     1      -6.551   1.898  24.642  0.00  0.00    +0.112 C 
ENDBRANCH  16  19
ENDBRANCH  11  13
ENDBRANCH   7   8
ENDBRANCH   6   7
BRANCH  25  26
ATOM     26  C   UNL     1       0.582   1.729  24.734  0.00  0.00    +0.093 C 
BRANCH  26  27
ATOM     27  N   UNL     1       0.887   1.514  23.999  0.00  0.00    -0.211 NA
BRANCH  27  28
ATOM     28  C   UNL     1       1.140   0.739  23.867  0.00  0.00    +0.134 C 
BRANCH  28  29
ATOM     29  C   UNL     1       1.704   0.582  23.287  0.00  0.00    +0.077 A 
ATOM     30  N   UNL     1       2.457   0.914  23.341  0.00  0.00    -0.247 NA
ATOM     31  C   UNL     1       3.021   0.757  22.760  0.00  0.00    +0.098 A 
ATOM     32  C   UNL     1       2.832   0.266  22.125  0.00  0.00    +0.021 A 
ATOM     33  C   UNL     1       2.079  -0.067  22.069  0.00  0.00    +0.003 A 
ATOM     34  C   UNL     1       1.515   0.091  22.651  0.00  0.00    +0.016 A 
ENDBRANCH  28  29
ENDBRANCH  27  28
ENDBRANCH  26  27
ENDBRANCH  25  26
TORSDOF 9
ENDMDL
MODEL 8
REMARK VINA RESULT:      -7.6      2.734      4.323
REMARK  Name = 
REMARK  9 active torsions:
REMARK  status: ('A' for Active; 'I' for Inactive)
REMARK    1  A    between atoms: C_2  and  C_4
REMARK    2  A    between atoms: C_6  and  C_7
REMARK    3  A    between atoms: C_7  and  C_8
REMARK    4  A    between atoms: C_11  and  C_13
REMARK    5  A    between atoms: C_16  and  N_19
REMARK    6  A    between atoms: C_25  and  C_26
REMARK    7  A    between atoms: C_26  and  N_27
REMARK    8  A    between atoms: N_27  and  C_28
REMARK    9  A    between atoms: C_28  and  C_29
REMARK                            x       y       z     vdW  Elec       q    Type
REMARK                         _______ _______ _______ _____ _____    ______ ____
ROOT
ATOM      4  C   UNL     1      -0.693   2.206  25.186  0.00  0.00    +0.006 C 
ATOM      5  C   UNL     1      -1.449   2.313  24.872  0.00  0.00    +0.005 C 
ATOM      6  C   UNL     1      -1.986   2.812  25.250  0.00  0.00    +0.027 C 
ATOM     22  C   UNL     1      -1.767   3.204  25.942  0.00  0.00    -0.048 C 
ATOM     23  C   UNL     1      -2.305   3.703  26.320  0.00  0.00    +0.026 C 
ATOM     24  C   UNL     1      -1.013   3.098  26.256  0.00  0.00    -0.033 C 
ATOM     25  C   UNL     1      -0.475   2.599  25.878  0.00  0.00    +0.039 C 
ENDROOT
BRANCH   4   2
ATOM      1  C   UNL     1       0.366   2.014  24.247  0.00  0.00    +0.000 C 
ATOM      2  C   UNL     1      -0.156   1.707  24.807  0.00  0.00    +0.000 C 
ATOM      3  C   UNL     1      -0.142   0.903  24.989  0.00  0.00    +0.000 C 
ENDBRANCH   4   2
BRANCH   6   7
ATOM      7  C   UNL     1      -2.742   2.918  24.936  0.00  0.00    +0.091 C 
BRANCH   7   8
ATOM      8  C   UNL     1      -3.261   2.279  24.883  0.00  0.00    +0.227 A 
ATOM      9  N   UNL     1      -4.084   2.319  24.924  0.00  0.00    -0.111 NA
ATOM     10  N   UNL     1      -4.379   1.553  24.847  0.00  0.00    -0.107 NA
ATOM     11  C   UNL     1      -3.739   1.040  24.759  0.00  0.00    +0.250 A 
ATOM     12  O   UNL     1      -3.048   1.489  24.781  0.00  0.00    -0.420 OA
BRANCH  11  13
ATOM     13  C   UNL     1      -3.783   0.221  24.664  0.00  0.00    +0.055 A 
ATOM     14  C   UNL     1      -3.677  -0.276  25.314  0.00  0.00    +0.006 A 
ATOM     15  C   UNL     1      -3.721  -1.094  25.219  0.00  0.00    +0.015 A 
ATOM     16  C   UNL     1      -3.870  -1.416  24.475  0.00  0.00    +0.048 A 
ATOM     17  C   UNL     1      -3.976  -0.919  23.824  0.00  0.00    +0.015 A 
ATOM     18  C   UNL     1      -3.932  -0.101  23.919  0.00  0.00    +0.006 A 
BRANCH  16  19
ATOM     19  N   UNL     1      -3.914  -2.234  24.380  0.00  0.00    -0.304 N 
ATOM     20  C   UNL     1      -4.357  -2.555  23.763  0.00  0.00    +0.112 C 
ATOM     21  C   UNL     1      -3.515  -2.732  24.903  0.00  0.00    +0.112 C 
ENDBRANCH  16  19
ENDBRANCH  11  13
ENDBRANCH   7   8
ENDBRANCH   6   7
BRANCH  25  26
ATOM     26  C   UNL     1       0.280   2.492  26.192  0.00  0.00    +0.093 C 
BRANCH  26  27
ATOM     27  N   UNL     1       0.415   2.621  26.995  0.00  0.00    -0.211 NA
BRANCH  27  28
ATOM     28  C   UNL     1       1.177   2.788  27.264  0.00  0.00    +0.134 C 
BRANCH  28  29
ATOM     29  C   UNL     1       1.367   2.680  28.059  0.00  0.00    +0.077 A 
ATOM     30  N   UNL     1       2.131   2.840  28.327  0.00  0.00    -0.247 NA
ATOM     31  C   UNL     1       2.321   2.732  29.122  0.00  0.00    +0.098 A 
ATOM     32  C   UNL     1       1.747   2.464  29.650  0.00  0.00    +0.021 A 
ATOM     33  C   UNL     1       0.983   2.304  29.383  0.00  0.00    +0.003 A 
ATOM     34  C   UNL     1       0.793   2.412  28.587  0.00  0.00    +0.016 A 
ENDBRANCH  28  29
ENDBRANCH  27  28
ENDBRANCH  26  27
ENDBRANCH  25  26
TORSDOF 9
ENDMDL
MODEL 9
REMARK VINA RESULT:      -7.5      2.327      6.440
REMARK  Name = 
REMARK  9 active torsions:
REMARK  status: ('A' for Active; 'I' for Inactive)
REMARK    1  A    between atoms: C_2  and  C_4
REMARK    2  A    between atoms: C_6  and  C_7
REMARK    3  A    between atoms: C_7  and  C_8
REMARK    4  A    between atoms: C_11  and  C_13
REMARK    5  A    between atoms: C_16  and  N_19
REMARK    6  A    between atoms: C_25  and  C_26
REMARK    7  A    between atoms: C_26  and  N_27
REMARK    8  A    between atoms: N_27  and  C_28
REMARK    9  A    between atoms: C_28  and  C_29
REMARK                            x       y       z     vdW  Elec       q    Type
REMARK                         _______ _______ _______ _____ _____    ______ ____
ROOT
ATOM      4  C   UNL     1      -2.845   3.236  24.058  0.00  0.00    +0.006 C 
ATOM      5  C   UNL     1      -2.026   3.130  24.083  0.00  0.00    +0.005 C 
ATOM      6  C   UNL     1      -1.609   3.310  24.771  0.00  0.00    +0.027 C 
ATOM     22  C   UNL     1      -2.008   3.595  25.434  0.00  0.00    -0.048 C 
ATOM     23  C   UNL     1      -1.589   3.774  26.122  0.00  0.00    +0.026 C 
ATOM     24  C   UNL     1      -2.825   3.701  25.409  0.00  0.00    -0.033 C 
ATOM     25  C   UNL     1      -3.244   3.522  24.721  0.00  0.00    +0.039 C 
ENDROOT
BRANCH   4   2
ATOM      1  C   UNL     1      -3.378   2.270  23.152  0.00  0.00    +0.000 C 
ATOM      2  C   UNL     1      -3.262   3.057  23.369  0.00  0.00    +0.000 C 
ATOM      3  C   UNL     1      -3.563   3.664  22.899  0.00  0.00    +0.000 C 
ENDBRANCH   4   2
BRANCH   6   7
ATOM      7  C   UNL     1      -0.790   3.203  24.797  0.00  0.00    +0.091 C 
BRANCH   7   8
ATOM      8  C   UNL     1      -0.467   2.454  24.673  0.00  0.00    +0.227 A 
ATOM      9  N   UNL     1       0.279   2.293  24.359  0.00  0.00    -0.111 NA
ATOM     10  N   UNL     1       0.373   1.475  24.334  0.00  0.00    -0.107 NA
ATOM     11  C   UNL     1      -0.314   1.129  24.631  0.00  0.00    +0.250 A 
ATOM     12  O   UNL     1      -0.834   1.734  24.840  0.00  0.00    -0.420 OA
BRANCH  11  13
ATOM     13  C   UNL     1      -0.457   0.320  24.705  0.00  0.00    +0.055 A 
ATOM     14  C   UNL     1      -0.229  -0.197  24.104  0.00  0.00    +0.006 A 
ATOM     15  C   UNL     1      -0.373  -1.006  24.179  0.00  0.00    +0.015 A 
ATOM     16  C   UNL     1      -0.743  -1.299  24.854  0.00  0.00    +0.048 A 
ATOM     17  C   UNL     1      -0.972  -0.782  25.456  0.00  0.00    +0.015 A 
ATOM     18  C   UNL     1      -0.829   0.027  25.382  0.00  0.00    +0.006 A 
BRANCH  16  19
ATOM     19  N   UNL     1      -0.886  -2.107  24.929  0.00  0.00    -0.304 N 
ATOM     20  C   UNL     1      -0.329  -2.593  25.296  0.00  0.00    +0.112 C 
ATOM     21  C   UNL     1      -1.587  -2.431  24.638  0.00  0.00    +0.112 C 
ENDBRANCH  16  19
ENDBRANCH  11  13
ENDBRANCH   7   8
ENDBRANCH   6   7
BRANCH  25  26
ATOM     26  C   UNL     1      -4.061   3.628  24.695  0.00  0.00    +0.093 C 
BRANCH  26  27
ATOM     27  N   UNL     1      -4.520   3.456  25.358  0.00  0.00    -0.211 NA
BRANCH  27  28
ATOM     28  C   UNL     1      -5.342   3.418  25.293  0.00  0.00    +0.134 C 
BRANCH  28  29
ATOM     29  C   UNL     1      -5.756   2.795  25.640  0.00  0.00    +0.077 A 
ATOM     30  N   UNL     1      -5.840   2.761  26.460  0.00  0.00    -0.247 NA
ATOM     31  C   UNL     1      -6.253   2.138  26.808  0.00  0.00    +0.098 A 
ATOM     32  C   UNL     1      -6.583   1.548  26.335  0.00  0.00    +0.021 A 
ATOM     33  C   UNL     1      -6.500   1.581  25.515  0.00  0.00    +0.003 A 
ATOM     34  C   UNL     1      -6.086   2.205  25.168  0.00  0.00    +0.016 A 
ENDBRANCH  28  29
ENDBRANCH  27  28
ENDBRANCH  26  27
ENDBRANCH  25  26
TORSDOF 9
ENDMDL
MODEL 10
REMARK VINA RESULT:      -7.2      2.262      5.270
REMARK  Name = 
REMARK  9 active torsions:
REMARK  status: ('A' for Active; 'I' for Inactive)
REMARK    1  A    between atoms: C_2  and  C_4
REMARK    2  A    between atoms: C_6  and  C_7
REMARK    3  A    between atoms: C_7  and  C_8
REMARK    4  A    between atoms: C_11  and  C_13
REMARK    5  A    between atoms: C_16  and  N_19
REMARK    6  A    between atoms: C_25  and  C_26
REMARK    7  A    between atoms: C_26  and  N_27
REMARK    8  A    between atoms: N_27  and  C_28
REMARK    9  A    between atoms: C_28  and  C_29
REMARK                            x       y       z     vdW  Elec       q    Type
REMARK                         _______ _______ _______ _____ _____    ______ ____
ROOT
ATOM      4  C   UNL     1      -0.355   2.383  25.368  0.00  0.00    +0.006 C 
ATOM      5  C   UNL     1      -0.017   1.734  24.985  0.00  0.00    +0.005 C 
ATOM      6  C   UNL     1      -0.198   1.583  24.194  0.00  0.00    +0.027 C 
ATOM     22  C   UNL     1      -0.715   2.079  23.786  0.00  0.00    -0.048 C 
ATOM     23  C   UNL     1      -0.895   1.926  22.996  0.00  0.00    +0.026 C 
ATOM     24  C   UNL     1      -1.053   2.727  24.169  0.00  0.00    -0.033 C 
ATOM     25  C   UNL     1      -0.873   2.879  24.960  0.00  0.00    +0.039 C 
ENDROOT
BRANCH   4   2
ATOM      1  C   UNL     1      -0.589   2.146  26.756  0.00  0.00    +0.000 C 
ATOM      2  C   UNL     1      -0.175   2.535  26.158  0.00  0.00    +0.000 C 
ATOM      3  C   UNL     1       0.419   3.075  26.350  0.00  0.00    +0.000 C 
ENDBRANCH   4   2
BRANCH   6   7
ATOM      7  C   UNL     1       0.140   0.934  23.812  0.00  0.00    +0.091 C 
BRANCH   7   8
ATOM      8  C   UNL     1      -0.092   0.169  24.014  0.00  0.00    +0.227 A 
ATOM      9  N   UNL     1       0.412  -0.457  24.204  0.00  0.00    -0.111 NA
ATOM     10  N   UNL     1      -0.053  -1.117  24.369  0.00  0.00    -0.107 NA
ATOM     11  C   UNL     1      -0.845  -0.900  24.281  0.00  0.00    +0.250 A 
ATOM     12  O   UNL     1      -0.868  -0.106  24.062  0.00  0.00    -0.420 OA
BRANCH  11  13
ATOM     13  C   UNL     1      -1.498  -1.392  24.393  0.00  0.00    +0.055 A 
ATOM     14  C   UNL     1      -1.463  -2.184  24.163  0.00  0.00    +0.006 A 
ATOM     15  C   UNL     1      -2.116  -2.675  24.275  0.00  0.00    +0.015 A 
ATOM     16  C   UNL     1      -2.804  -2.376  24.618  0.00  0.00    +0.048 A 
ATOM     17  C   UNL     1      -2.839  -1.584  24.848  0.00  0.00    +0.015 A 
ATOM     18  C   UNL     1      -2.186  -1.093  24.736  0.00  0.00    +0.006 A 
BRANCH  16  19
ATOM     19  N   UNL     1      -3.457  -2.867  24.730  0.00  0.00    -0.304 N 
ATOM     20  C   UNL     1      -4.036  -2.924  24.145  0.00  0.00    +0.112 C 
ATOM     21  C   UNL     1      -3.531  -3.302  25.427  0.00  0.00    +0.112 C 
ENDBRANCH  16  19
ENDBRANCH  11  13
ENDBRANCH   7   8
ENDBRANCH   6   7
BRANCH  25  26
ATOM     26  C   UNL     1      -1.210   3.527  25.342  0.00  0.00    +0.093 C 
BRANCH  26  27
ATOM     27  N   UNL     1      -1.912   3.854  25.059  0.00  0.00    -0.211 NA
BRANCH  27  28
ATOM     28  C   UNL     1      -2.443   4.208  25.582  0.00  0.00    +0.134 C 
BRANCH  28  29
ATOM     29  C   UNL     1      -3.253   4.072  25.504  0.00  0.00    +0.077 A 
ATOM     30  N   UNL     1      -3.619   4.163  24.770  0.00  0.00    -0.247 NA
ATOM     31  C   UNL     1      -4.428   4.026  24.693  0.00  0.00    +0.098 A 
ATOM     32  C   UNL     1      -4.872   3.797  25.349  0.00  0.00    +0.021 A 
ATOM     33  C   UNL     1      -4.507   3.706  26.083  0.00  0.00    +0.003 A 
ATOM     34  C   UNL     1      -3.697   3.843  26.160  0.00  0.00    +0.016 A 
ENDBRANCH  28  29
ENDBRANCH  27  28
ENDBRANCH  26  27
ENDBRANCH  25  26
TORSDOF 9
ENDMDL
