MODEL 1
REMARK VINA RESULT:     -11.8      0.000      0.000
REMARK  Name = 
REMARK  5 active torsions:
REMARK  status: ('A' for Active; 'I' for Inactive)
REMARK    1  A    between atoms: C_4  and  C_13
REMARK    2  A    between atoms: C_6  and  C_8
REMARK    3  A    between atoms: C_20  and  C_21
REMARK    4  A    between atoms: C_21  and  N_22
REMARK    5  A    between atoms: N_22  and  C_23
REMARK                            x       y       z     vdW  Elec       q    Type
REMARK                         _______ _______ _______ _____ _____    ______ ____
ROOT
ATOM     13  C   UNL     1      -3.082   2.051  24.888  0.00  0.00    +0.056 C 
ATOM     14  C   UNL     1      -2.709   1.462  25.233  0.00  0.00    +0.078 C 
ATOM     15  N   UNL     1      -3.222   1.403  24.589  0.00  0.00    -0.272 NA
ATOM     16  C   UNL     1      -3.554   2.373  24.368  0.00  0.00    +0.072 C 
ATOM     17  C   UNL     1      -3.912   2.782  24.005  0.00  0.00    +0.018 C 
ATOM     18  C   UNL     1      -3.584   1.985  24.255  0.00  0.00    +0.010 C 
ATOM     19  C   UNL     1      -3.854   1.293  23.788  0.00  0.00    +0.018 C 
ATOM     20  C   UNL     1      -3.506   0.688  24.099  0.00  0.00    +0.075 C 
ENDROOT
BRANCH  13   4
ATOM      1  C   UNL     1      -3.914   4.222  26.551  0.00  0.00    +0.074 C 
ATOM      2  C   UNL     1      -3.372   3.894  26.023  0.00  0.00    +0.139 A 
ATOM      3  N   UNL     1      -3.498   3.137  25.720  0.00  0.00    -0.235 NA
ATOM      4  C   UNL     1      -2.956   2.809  25.191  0.00  0.00    +0.063 A 
ATOM      5  C   UNL     1      -2.288   3.237  24.966  0.00  0.00    +0.037 A 
ATOM      6  C   UNL     1      -2.162   3.993  25.270  0.00  0.00    +0.118 A 
ATOM      7  N   UNL     1      -2.703   4.322  25.798  0.00  0.00    -0.228 NA
BRANCH   6   8
ATOM      8  C   UNL     1      -1.494   4.422  25.045  0.00  0.00    +0.163 A 
ATOM      9  C   UNL     1      -1.439   5.244  24.998  0.00  0.00    +0.042 A 
ATOM     10  C   UNL     1      -0.675   5.435  24.752  0.00  0.00    +0.044 A 
ATOM     11  C   UNL     1      -0.257   4.731  24.647  0.00  0.00    +0.180 A 
ATOM     12  O   UNL     1      -0.763   4.105  24.828  0.00  0.00    -0.449 OA
ENDBRANCH   6   8
ENDBRANCH  13   4
BRANCH  20  21
ATOM     21  C   UNL     1      -3.433  -0.130  24.030  0.00  0.00    +0.104 C 
BRANCH  21  22
ATOM     22  N   UNL     1      -4.039  -0.622  24.297  0.00  0.00    -0.218 NA
BRANCH  22  23
ATOM     23  C   UNL     1      -3.922  -1.437  24.336  0.00  0.00    +0.073 C 
ATOM     24  C   UNL     1      -4.225  -1.927  23.745  0.00  0.00    +0.017 C 
ATOM     25  C   UNL     1      -4.108  -2.743  23.785  0.00  0.00    +0.001 C 
ATOM     26  C   UNL     1      -3.687  -3.069  24.416  0.00  0.00    +0.000 C 
ATOM     27  C   UNL     1      -3.384  -2.579  25.006  0.00  0.00    +0.001 C 
ATOM     28  C   UNL     1      -3.501  -1.764  24.966  0.00  0.00    +0.017 C 
ENDBRANCH  22  23
ENDBRANCH  21  22
ENDBRANCH  20  21
TORSDOF 5
ENDMDL
MODEL 2
REMARK VINA RESULT:     -11.0      2.366      5.942
REMARK  Name = 
REMARK  5 active torsions:
REMARK  status: ('A' for Active; 'I' for Inactive)
REMARK    1  A    between atoms: C_4  and  C_13
REMARK    2  A    between atoms: C_6  and  C_8
REMARK    3  A    between atoms: C_20  and  C_21
REMARK    4  A    between atoms: C_21  and  N_22
REMARK    5  A    between atoms: N_22  and  C_23
REMARK                            x       y       z     vdW  Elec       q    Type
REMARK                         _______ _______ _______ _____ _____    ______ ____
ROOT
ATOM     13  C   UNL     1      -1.014   0.226  24.951  0.00  0.00    +0.056 C 
ATOM     14  C   UNL     1      -1.349   0.646  25.515  0.00  0.00    +0.078 C 
ATOM     15  N   UNL     1      -0.877   0.939  24.904  0.00  0.00    -0.272 NA
ATOM     16  C   UNL     1      -0.585   0.119  24.318  0.00  0.00    +0.072 C 
ATOM     17  C   UNL     1      -0.262  -0.127  23.807  0.00  0.00    +0.018 C 
ATOM     18  C   UNL     1      -0.552   0.521  24.355  0.00  0.00    +0.010 C 
ATOM     19  C   UNL     1      -0.295   1.337  24.158  0.00  0.00    +0.018 C 
ATOM     20  C   UNL     1      -0.606   1.784  24.694  0.00  0.00    +0.075 C 
ENDROOT
BRANCH  13   4
ATOM      1  C   UNL     1      -0.046  -2.423  25.414  0.00  0.00    +0.074 C 
ATOM      2  C   UNL     1      -0.657  -1.914  25.193  0.00  0.00    +0.139 A 
ATOM      3  N   UNL     1      -0.531  -1.099  25.183  0.00  0.00    -0.235 NA
ATOM      4  C   UNL     1      -1.141  -0.590  24.962  0.00  0.00    +0.063 A 
ATOM      5  C   UNL     1      -1.877  -0.895  24.752  0.00  0.00    +0.037 A 
ATOM      6  C   UNL     1      -2.004  -1.710  24.762  0.00  0.00    +0.118 A 
ATOM      7  N   UNL     1      -1.394  -2.220  24.983  0.00  0.00    -0.228 NA
BRANCH   6   8
ATOM      8  C   UNL     1      -2.741  -2.017  24.552  0.00  0.00    +0.163 A 
ATOM      9  C   UNL     1      -3.158  -2.600  24.961  0.00  0.00    +0.042 A 
ATOM     10  C   UNL     1      -3.864  -2.738  24.559  0.00  0.00    +0.044 A 
ATOM     11  C   UNL     1      -3.884  -2.240  23.901  0.00  0.00    +0.180 A 
ATOM     12  O   UNL     1      -3.190  -1.794  23.897  0.00  0.00    -0.449 OA
ENDBRANCH   6   8
ENDBRANCH  13   4
BRANCH  20  21
ATOM     21  C   UNL     1      -0.662   2.569  24.937  0.00  0.00    +0.104 C 
BRANCH  21  22
ATOM     22  N   UNL     1      -0.958   3.141  24.421  0.00  0.00    -0.218 NA
BRANCH  22  23
ATOM     23  C   UNL     1      -1.164   3.887  24.705  0.00  0.00    +0.073 C 
ATOM     24  C   UNL     1      -0.633   4.515  24.641  0.00  0.00    +0.017 C 
ATOM     25  C   UNL     1      -0.840   5.261  24.926  0.00  0.00    +0.001 C 
ATOM     26  C   UNL     1      -1.578   5.380  25.274  0.00  0.00    +0.000 C 
ATOM     27  C   UNL     1      -2.109   4.752  25.338  0.00  0.00    +0.001 C 
ATOM     28  C   UNL     1      -1.902   4.006  25.054  0.00  0.00    +0.017 C 
ENDBRANCH  22  23
ENDBRANCH  21  22
ENDBRANCH  20  21
TORSDOF 5
ENDMDL
MODEL 3
REMARK VINA RESULT:     -10.8      1.619      2.078
REMARK  Name = 
REMARK  5 active torsions:
REMARK  status: ('A' for Active; 'I' for Inactive)
REMARK    1  A    between atoms: C_4  and  C_13
REMARK    2  A    between atoms: C_6  and  C_8
REMARK    3  A    between atoms: C_20  and  C_21
REMARK    4  A    between atoms: C_21  and  N_22
REMARK    5  A    between atoms: N_22  and  C_23
REMARK                            x       y       z     vdW  Elec       q    Type
REMARK                         _______ _______ _______ _____ _____    ______ ____
ROOT
ATOM     13  C   UNL     1      -1.435   1.398  25.165  0.00  0.00    +0.056 C 
ATOM     14  C   UNL     1      -2.136   1.238  25.462  0.00  0.00    +0.078 C 
ATOM     15  N   UNL     1      -1.751   0.816  24.866  0.00  0.00    -0.272 NA
ATOM     16  C   UNL     1      -0.830   1.289  24.698  0.00  0.00    +0.072 C 
ATOM     17  C   UNL     1      -0.262   1.327  24.379  0.00  0.00    +0.018 C 
ATOM     18  C   UNL     1      -1.063   0.980  24.580  0.00  0.00    +0.010 C 
ATOM     19  C   UNL     1      -1.301   0.268  24.124  0.00  0.00    +0.018 C 
ATOM     20  C   UNL     1      -1.991   0.076  24.389  0.00  0.00    +0.075 C 
ENDROOT
BRANCH  13   4
ATOM      1  C   UNL     1       0.543   2.494  26.914  0.00  0.00    +0.074 C 
ATOM      2  C   UNL     1      -0.047   2.600  26.346  0.00  0.00    +0.139 A 
ATOM      3  N   UNL     1      -0.446   1.947  26.039  0.00  0.00    -0.235 NA
ATOM      4  C   UNL     1      -1.036   2.053  25.472  0.00  0.00    +0.063 A 
ATOM      5  C   UNL     1      -1.226   2.811  25.212  0.00  0.00    +0.037 A 
ATOM      6  C   UNL     1      -0.827   3.465  25.518  0.00  0.00    +0.118 A 
ATOM      7  N   UNL     1      -0.238   3.360  26.086  0.00  0.00    -0.228 NA
BRANCH   6   8
ATOM      8  C   UNL     1      -1.017   4.224  25.259  0.00  0.00    +0.163 A 
ATOM      9  C   UNL     1      -1.712   4.635  25.428  0.00  0.00    +0.042 A 
ATOM     10  C   UNL     1      -1.671   5.371  25.059  0.00  0.00    +0.044 A 
ATOM     11  C   UNL     1      -0.950   5.416  24.660  0.00  0.00    +0.180 A 
ATOM     12  O   UNL     1      -0.546   4.707  24.783  0.00  0.00    -0.449 OA
ENDBRANCH   6   8
ENDBRANCH  13   4
BRANCH  20  21
ATOM     21  C   UNL     1      -2.597  -0.475  24.296  0.00  0.00    +0.104 C 
BRANCH  21  22
ATOM     22  N   UNL     1      -2.433  -1.281  24.355  0.00  0.00    -0.218 NA
BRANCH  22  23
ATOM     23  C   UNL     1      -3.042  -1.833  24.285  0.00  0.00    +0.073 C 
ATOM     24  C   UNL     1      -3.728  -1.641  23.870  0.00  0.00    +0.017 C 
ATOM     25  C   UNL     1      -4.337  -2.194  23.801  0.00  0.00    +0.001 C 
ATOM     26  C   UNL     1      -4.260  -2.939  24.147  0.00  0.00    +0.000 C 
ATOM     27  C   UNL     1      -3.574  -3.131  24.562  0.00  0.00    +0.001 C 
ATOM     28  C   UNL     1      -2.965  -2.578  24.631  0.00  0.00    +0.017 C 
ENDBRANCH  22  23
ENDBRANCH  21  22
ENDBRANCH  20  21
TORSDOF 5
ENDMDL
MODEL 4
REMARK VINA RESULT:      -9.8      1.461      2.329
REMARK  Name = 
REMARK  5 active torsions:
REMARK  status: ('A' for Active; 'I' for Inactive)
REMARK    1  A    between atoms: C_4  and  C_13
REMARK    2  A    between atoms: C_6  and  C_8
REMARK    3  A    between atoms: C_20  and  C_21
REMARK    4  A    between atoms: C_21  and  N_22
REMARK    5  A    between atoms: N_22  and  C_23
REMARK                            x       y       z     vdW  Elec       q    Type
REMARK                         _______ _______ _______ _____ _____    ______ ____
ROOT
ATOM     13  C   UNL     1      -1.560   1.224  24.693  0.00  0.00    +0.056 C 
ATOM     14  C   UNL     1      -2.028   0.954  24.133  0.00  0.00    +0.078 C 
ATOM     15  N   UNL     1      -1.682   0.508  24.736  0.00  0.00    -0.272 NA
ATOM     16  C   UNL     1      -1.113   1.167  25.320  0.00  0.00    +0.072 C 
ATOM     17  C   UNL     1      -0.717   1.279  25.828  0.00  0.00    +0.018 C 
ATOM     18  C   UNL     1      -1.224   0.780  25.282  0.00  0.00    +0.010 C 
ATOM     19  C   UNL     1      -1.268  -0.076  25.471  0.00  0.00    +0.018 C 
ATOM     20  C   UNL     1      -1.723  -0.380  24.939  0.00  0.00    +0.075 C 
ENDROOT
BRANCH  13   4
ATOM      1  C   UNL     1       0.166   3.388  23.978  0.00  0.00    +0.074 C 
ATOM      2  C   UNL     1      -0.528   3.114  24.330  0.00  0.00    +0.139 A 
ATOM      3  N   UNL     1      -0.697   2.306  24.336  0.00  0.00    -0.235 NA
ATOM      4  C   UNL     1      -1.391   2.032  24.688  0.00  0.00    +0.063 A 
ATOM      5  C   UNL     1      -1.916   2.565  25.034  0.00  0.00    +0.037 A 
ATOM      6  C   UNL     1      -1.748   3.373  25.028  0.00  0.00    +0.118 A 
ATOM      7  N   UNL     1      -1.054   3.647  24.676  0.00  0.00    -0.228 NA
BRANCH   6   8
ATOM      8  C   UNL     1      -2.273   3.907  25.374  0.00  0.00    +0.163 A 
ATOM      9  C   UNL     1      -2.069   4.613  25.749  0.00  0.00    +0.042 A 
ATOM     10  C   UNL     1      -2.763   4.972  26.012  0.00  0.00    +0.044 A 
ATOM     11  C   UNL     1      -3.397   4.487  25.801  0.00  0.00    +0.180 A 
ATOM     12  O   UNL     1      -3.094   3.829  25.407  0.00  0.00    -0.449 OA
ENDBRANCH   6   8
ENDBRANCH  13   4
BRANCH  20  21
ATOM     21  C   UNL     1      -2.055  -1.093  24.693  0.00  0.00    +0.104 C 
BRANCH  21  22
ATOM     22  N   UNL     1      -2.729  -1.385  25.069  0.00  0.00    -0.218 NA
BRANCH  22  23
ATOM     23  C   UNL     1      -3.203  -1.945  24.691  0.00  0.00    +0.073 C 
ATOM     24  C   UNL     1      -3.019  -2.747  24.748  0.00  0.00    +0.017 C 
ATOM     25  C   UNL     1      -3.494  -3.307  24.371  0.00  0.00    +0.001 C 
ATOM     26  C   UNL     1      -4.152  -3.065  23.936  0.00  0.00    +0.000 C 
ATOM     27  C   UNL     1      -4.335  -2.262  23.879  0.00  0.00    +0.001 C 
ATOM     28  C   UNL     1      -3.861  -1.703  24.257  0.00  0.00    +0.017 C 
ENDBRANCH  22  23
ENDBRANCH  21  22
ENDBRANCH  20  21
TORSDOF 5
ENDMDL
MODEL 5
REMARK VINA RESULT:      -9.7      1.542      5.422
REMARK  Name = 
REMARK  5 active torsions:
REMARK  status: ('A' for Active; 'I' for Inactive)
REMARK    1  A    between atoms: C_4  and  C_13
REMARK    2  A    between atoms: C_6  and  C_8
REMARK    3  A    between atoms: C_20  and  C_21
REMARK    4  A    between atoms: C_21  and  N_22
REMARK    5  A    between atoms: N_22  and  C_23
REMARK                            x       y       z     vdW  Elec       q    Type
REMARK                         _______ _______ _______ _____ _____    ______ ____
ROOT
ATOM     13  C   UNL     1      -3.187   0.743  24.464  0.00  0.00    +0.056 C 
ATOM     14  C   UNL     1      -2.639   1.122  24.061  0.00  0.00    +0.078 C 
ATOM     15  N   UNL     1      -3.180   1.460  24.585  0.00  0.00    -0.272 NA
ATOM     16  C   UNL     1      -3.776   0.683  24.960  0.00  0.00    +0.072 C 
ATOM     17  C   UNL     1      -4.264   0.475  25.341  0.00  0.00    +0.018 C 
ATOM     18  C   UNL     1      -3.714   1.082  24.977  0.00  0.00    +0.010 C 
ATOM     19  C   UNL     1      -3.837   1.914  25.229  0.00  0.00    +0.018 C 
ATOM     20  C   UNL     1      -3.314   2.322  24.851  0.00  0.00    +0.075 C 
ENDROOT
BRANCH  13   4
ATOM      1  C   UNL     1      -4.649  -1.565  23.625  0.00  0.00    +0.074 C 
ATOM      2  C   UNL     1      -3.966  -1.229  23.942  0.00  0.00    +0.139 A 
ATOM      3  N   UNL     1      -3.918  -0.412  24.044  0.00  0.00    -0.235 NA
ATOM      4  C   UNL     1      -3.234  -0.075  24.361  0.00  0.00    +0.063 A 
ATOM      5  C   UNL     1      -2.599  -0.555  24.575  0.00  0.00    +0.037 A 
ATOM      6  C   UNL     1      -2.647  -1.372  24.472  0.00  0.00    +0.118 A 
ATOM      7  N   UNL     1      -3.330  -1.709  24.155  0.00  0.00    -0.228 NA
BRANCH   6   8
ATOM      8  C   UNL     1      -2.011  -1.853  24.686  0.00  0.00    +0.163 A 
ATOM      9  C   UNL     1      -1.717  -2.489  24.251  0.00  0.00    +0.042 A 
ATOM     10  C   UNL     1      -1.083  -2.812  24.667  0.00  0.00    +0.044 A 
ATOM     11  C   UNL     1      -0.984  -2.375  25.360  0.00  0.00    +0.180 A 
ATOM     12  O   UNL     1      -1.558  -1.782  25.372  0.00  0.00    -0.449 OA
ENDBRANCH   6   8
ENDBRANCH  13   4
BRANCH  20  21
ATOM     21  C   UNL     1      -3.035   3.091  24.747  0.00  0.00    +0.104 C 
BRANCH  21  22
ATOM     22  N   UNL     1      -2.710   3.502  25.384  0.00  0.00    -0.218 NA
BRANCH  22  23
ATOM     23  C   UNL     1      -2.177   4.117  25.251  0.00  0.00    +0.073 C 
ATOM     24  C   UNL     1      -2.448   4.895  25.202  0.00  0.00    +0.017 C 
ATOM     25  C   UNL     1      -1.914   5.510  25.069  0.00  0.00    +0.001 C 
ATOM     26  C   UNL     1      -1.110   5.347  24.984  0.00  0.00    +0.000 C 
ATOM     27  C   UNL     1      -0.839   4.570  25.032  0.00  0.00    +0.001 C 
ATOM     28  C   UNL     1      -1.373   3.955  25.166  0.00  0.00    +0.017 C 
ENDBRANCH  22  23
ENDBRANCH  21  22
ENDBRANCH  20  21
TORSDOF 5
ENDMDL
MODEL 6
REMARK VINA RESULT:      -9.6      2.600      4.572
REMARK  Name = 
REMARK  5 active torsions:
REMARK  status: ('A' for Active; 'I' for Inactive)
REMARK    1  A    between atoms: C_4  and  C_13
REMARK    2  A    between atoms: C_6  and  C_8
REMARK    3  A    between atoms: C_20  and  C_21
REMARK    4  A    between atoms: C_21  and  N_22
REMARK    5  A    between atoms: N_22  and  C_23
REMARK                            x       y       z     vdW  Elec       q    Type
REMARK                         _______ _______ _______ _____ _____    ______ ____
ROOT
ATOM     13  C   UNL     1      -2.396  -0.094  24.925  0.00  0.00    +0.056 C 
ATOM     14  C   UNL     1      -2.431   0.533  25.385  0.00  0.00    +0.078 C 
ATOM     15  N   UNL     1      -3.061   0.196  24.971  0.00  0.00    -0.272 NA
ATOM     16  C   UNL     1      -2.683  -0.631  24.450  0.00  0.00    +0.072 C 
ATOM     17  C   UNL     1      -2.772  -1.139  24.048  0.00  0.00    +0.018 C 
ATOM     18  C   UNL     1      -3.019  -0.419  24.523  0.00  0.00    +0.010 C 
ATOM     19  C   UNL     1      -3.867  -0.196  24.471  0.00  0.00    +0.018 C 
ATOM     20  C   UNL     1      -3.943   0.422  24.913  0.00  0.00    +0.075 C 
ENDROOT
BRANCH  13   4
ATOM      1  C   UNL     1      -0.590  -2.205  25.599  0.00  0.00    +0.074 C 
ATOM      2  C   UNL     1      -0.758  -1.516  25.178  0.00  0.00    +0.139 A 
ATOM      3  N   UNL     1      -1.492  -1.150  25.262  0.00  0.00    -0.235 NA
ATOM      4  C   UNL     1      -1.661  -0.461  24.840  0.00  0.00    +0.063 A 
ATOM      5  C   UNL     1      -1.095  -0.138  24.335  0.00  0.00    +0.037 A 
ATOM      6  C   UNL     1      -0.361  -0.504  24.250  0.00  0.00    +0.118 A 
ATOM      7  N   UNL     1      -0.192  -1.193  24.671  0.00  0.00    -0.228 NA
BRANCH   6   8
ATOM      8  C   UNL     1       0.205  -0.182  23.744  0.00  0.00    +0.163 A 
ATOM      9  C   UNL     1       0.543   0.569  23.809  0.00  0.00    +0.042 A 
ATOM     10  C   UNL     1       1.080   0.662  23.191  0.00  0.00    +0.044 A 
ATOM     11  C   UNL     1       1.075  -0.031  22.742  0.00  0.00    +0.180 A 
ATOM     12  O   UNL     1       0.534  -0.552  23.085  0.00  0.00    -0.449 OA
ENDBRANCH   6   8
ENDBRANCH  13   4
BRANCH  20  21
ATOM     21  C   UNL     1      -4.497   0.971  25.181  0.00  0.00    +0.104 C 
BRANCH  21  22
ATOM     22  N   UNL     1      -4.766   1.565  24.675  0.00  0.00    -0.218 NA
BRANCH  22  23
ATOM     23  C   UNL     1      -5.059   2.270  24.986  0.00  0.00    +0.073 C 
ATOM     24  C   UNL     1      -4.676   2.983  24.828  0.00  0.00    +0.017 C 
ATOM     25  C   UNL     1      -4.970   3.688  25.140  0.00  0.00    +0.001 C 
ATOM     26  C   UNL     1      -5.649   3.680  25.609  0.00  0.00    +0.000 C 
ATOM     27  C   UNL     1      -6.033   2.967  25.767  0.00  0.00    +0.001 C 
ATOM     28  C   UNL     1      -5.738   2.262  25.456  0.00  0.00    +0.017 C 
ENDBRANCH  22  23
ENDBRANCH  21  22
ENDBRANCH  20  21
TORSDOF 5
ENDMDL
MODEL 7
REMARK VINA RESULT:      -9.2      3.131      4.448
REMARK  Name = 
REMARK  5 active torsions:
REMARK  status: ('A' for Active; 'I' for Inactive)
REMARK    1  A    between atoms: C_4  and  C_13
REMARK    2  A    between atoms: C_6  and  C_8
REMARK    3  A    between atoms: C_20  and  C_21
REMARK    4  A    between atoms: C_21  and  N_22
REMARK    5  A    between atoms: N_22  and  C_23
REMARK                            x       y       z     vdW  Elec       q    Type
REMARK                         _______ _______ _______ _____ _____    ______ ____
ROOT
ATOM     13  C   UNL     1      -1.952   0.834  24.095  0.00  0.00    +0.056 C 
ATOM     14  C   UNL     1      -1.745   1.075  23.385  0.00  0.00    +0.078 C 
ATOM     15  N   UNL     1      -1.241   0.766  23.961  0.00  0.00    -0.272 NA
ATOM     16  C   UNL     1      -1.829   0.541  24.799  0.00  0.00    +0.072 C 
ATOM     17  C   UNL     1      -1.885   0.314  25.409  0.00  0.00    +0.018 C 
ATOM     18  C   UNL     1      -1.451   0.533  24.655  0.00  0.00    +0.010 C 
ATOM     19  C   UNL     1      -0.585   0.387  24.653  0.00  0.00    +0.018 C 
ATOM     20  C   UNL     1      -0.341   0.612  23.965  0.00  0.00    +0.075 C 
ENDROOT
BRANCH  13   4
ATOM      1  C   UNL     1      -4.513  -0.390  24.436  0.00  0.00    +0.074 C 
ATOM      2  C   UNL     1      -4.031   0.280  24.467  0.00  0.00    +0.139 A 
ATOM      3  N   UNL     1      -3.233   0.223  24.266  0.00  0.00    -0.235 NA
ATOM      4  C   UNL     1      -2.751   0.892  24.296  0.00  0.00    +0.063 A 
ATOM      5  C   UNL     1      -3.067   1.617  24.527  0.00  0.00    +0.037 A 
ATOM      6  C   UNL     1      -3.865   1.674  24.728  0.00  0.00    +0.118 A 
ATOM      7  N   UNL     1      -4.347   1.006  24.698  0.00  0.00    -0.228 NA
BRANCH   6   8
ATOM      8  C   UNL     1      -4.181   2.400  24.959  0.00  0.00    +0.163 A 
ATOM      9  C   UNL     1      -4.438   3.001  24.454  0.00  0.00    +0.042 A 
ATOM     10  C   UNL     1      -4.712   3.624  24.917  0.00  0.00    +0.044 A 
ATOM     11  C   UNL     1      -4.626   3.411  25.710  0.00  0.00    +0.180 A 
ATOM     12  O   UNL     1      -4.298   2.654  25.736  0.00  0.00    -0.449 OA
ENDBRANCH   6   8
ENDBRANCH  13   4
BRANCH  20  21
ATOM     21  C   UNL     1       0.336   0.678  23.500  0.00  0.00    +0.104 C 
BRANCH  21  22
ATOM     22  N   UNL     1       0.891   0.067  23.493  0.00  0.00    -0.218 NA
BRANCH  22  23
ATOM     23  C   UNL     1       1.561   0.124  23.015  0.00  0.00    +0.073 C 
ATOM     24  C   UNL     1       2.231   0.520  23.287  0.00  0.00    +0.017 C 
ATOM     25  C   UNL     1       2.901   0.575  22.808  0.00  0.00    +0.001 C 
ATOM     26  C   UNL     1       2.900   0.235  22.056  0.00  0.00    +0.000 C 
ATOM     27  C   UNL     1       2.229  -0.161  21.784  0.00  0.00    +0.001 C 
ATOM     28  C   UNL     1       1.560  -0.217  22.263  0.00  0.00    +0.017 C 
ENDBRANCH  22  23
ENDBRANCH  21  22
ENDBRANCH  20  21
TORSDOF 5
ENDMDL
