MODEL 1
REMARK VINA RESULT:     -15.1      0.000      0.000
REMARK  Name = 
REMARK  4 active torsions:
REMARK  status: ('A' for Active; 'I' for Inactive)
REMARK    1  A    between atoms: C_2  and  C_25
REMARK    2  A    between atoms: C_9  and  N_10
REMARK    3  A    between atoms: C_11  and  C_13
REMARK    4  A    between atoms: C_25  and  C_27
REMARK                            x       y       z     vdW  Elec       q    Type
REMARK                         _______ _______ _______ _____ _____    ______ ____
ROOT
ATOM      1  C   UNL     1      -4.292   0.332  24.708  0.00  0.00    +0.052 C 
ATOM      2  C   UNL     1      -5.002   0.566  25.060  0.00  0.00    -0.001 C 
ATOM      3  C   UNL     1      -5.121   1.356  25.261  0.00  0.00    -0.000 C 
ATOM      4  C   UNL     1      -4.532   1.914  25.111  0.00  0.00    -0.001 C 
ATOM      5  C   UNL     1      -5.241   2.147  25.462  0.00  0.00    -0.000 C 
ATOM      6  C   UNL     1      -4.652   2.705  25.312  0.00  0.00    +0.002 C 
ATOM      7  C   UNL     1      -4.063   3.262  25.162  0.00  0.00    +0.022 C 
ATOM      8  C   UNL     1      -3.353   3.029  24.811  0.00  0.00    +0.095 C 
ATOM     18  C   UNL     1      -3.233   2.238  24.610  0.00  0.00    +0.019 C 
ATOM     19  C   UNL     1      -2.524   2.005  24.259  0.00  0.00    +0.002 C 
ATOM     20  C   UNL     1      -3.822   1.680  24.760  0.00  0.00    +0.045 C 
ATOM     21  C   UNL     1      -3.703   0.890  24.559  0.00  0.00    +0.145 C 
ATOM     22  O   UNL     1      -2.994   0.656  24.208  0.00  0.00    -0.224 OA
ENDROOT
BRANCH   8   9
ATOM      9  N   UNL     1      -2.764   3.587  24.661  0.00  0.00    -0.203 NA
ATOM     10  C   UNL     1      -2.441   4.023  25.282  0.00  0.00    +0.265 C 
ATOM     11  O   UNL     1      -2.706   3.900  26.054  0.00  0.00    -0.268 OA
BRANCH  10  12
ATOM     12  C   UNL     1      -1.852   4.581  25.132  0.00  0.00    +0.055 A 
ATOM     13  C   UNL     1      -2.042   5.382  25.094  0.00  0.00    +0.005 A 
ATOM     14  C   UNL     1      -1.453   5.940  24.944  0.00  0.00    +0.000 A 
ATOM     15  C   UNL     1      -0.673   5.696  24.833  0.00  0.00    +0.000 A 
ATOM     16  C   UNL     1      -0.482   4.894  24.871  0.00  0.00    +0.000 A 
ATOM     17  C   UNL     1      -1.072   4.337  25.021  0.00  0.00    +0.005 A 
ENDBRANCH  10  12
ENDBRANCH   8   9
BRANCH   1  23
ATOM     23  C   UNL     1      -4.172  -0.459  24.507  0.00  0.00    +0.075 C 
ATOM     24  C   UNL     1      -4.318  -0.717  23.737  0.00  0.00    +0.009 C 
BRANCH  23  25
ATOM     25  C   UNL     1      -3.907  -0.993  25.077  0.00  0.00    +0.225 C 
ATOM     26  O   UNL     1      -3.796  -0.745  25.857  0.00  0.00    -0.275 OA
ATOM     27  N   UNL     1      -3.751  -1.777  24.868  0.00  0.00    -0.280 N 
ATOM     28  C   UNL     1      -3.486  -2.310  25.437  0.00  0.00    +0.093 C 
ATOM     29  C   UNL     1      -3.330  -3.093  25.229  0.00  0.00    +0.022 C 
ATOM     30  C   UNL     1      -3.440  -3.341  24.450  0.00  0.00    +0.004 C 
ATOM     31  C   UNL     1      -3.706  -2.808  23.881  0.00  0.00    +0.022 C 
ATOM     32  C   UNL     1      -3.861  -2.025  24.089  0.00  0.00    +0.093 C 
ENDBRANCH  23  25
ENDBRANCH   1  23
TORSDOF 4
ENDMDL
MODEL 2
REMARK VINA RESULT:     -14.0      0.728      5.453
REMARK  Name = 
REMARK  4 active torsions:
REMARK  status: ('A' for Active; 'I' for Inactive)
REMARK    1  A    between atoms: C_2  and  C_25
REMARK    2  A    between atoms: C_9  and  N_10
REMARK    3  A    between atoms: C_11  and  C_13
REMARK    4  A    between atoms: C_25  and  C_27
REMARK                            x       y       z     vdW  Elec       q    Type
REMARK                         _______ _______ _______ _____ _____    ______ ____
ROOT
ATOM      1  C   UNL     1      -3.891   3.160  24.713  0.00  0.00    +0.052 C 
ATOM      2  C   UNL     1      -4.563   3.266  25.181  0.00  0.00    -0.001 C 
ATOM      3  C   UNL     1      -5.026   2.618  25.390  0.00  0.00    -0.000 C 
ATOM      4  C   UNL     1      -4.820   1.863  25.131  0.00  0.00    -0.001 C 
ATOM      5  C   UNL     1      -5.490   1.969  25.599  0.00  0.00    -0.000 C 
ATOM      6  C   UNL     1      -5.284   1.213  25.340  0.00  0.00    +0.002 C 
ATOM      7  C   UNL     1      -5.078   0.458  25.081  0.00  0.00    +0.022 C 
ATOM      8  C   UNL     1      -4.406   0.351  24.613  0.00  0.00    +0.095 C 
ATOM     18  C   UNL     1      -3.942   1.000  24.404  0.00  0.00    +0.019 C 
ATOM     19  C   UNL     1      -3.271   0.894  23.936  0.00  0.00    +0.002 C 
ATOM     20  C   UNL     1      -4.148   1.756  24.663  0.00  0.00    +0.045 C 
ATOM     21  C   UNL     1      -3.684   2.405  24.454  0.00  0.00    +0.145 C 
ATOM     22  O   UNL     1      -3.013   2.298  23.986  0.00  0.00    -0.224 OA
ENDROOT
BRANCH   8   9
ATOM      9  N   UNL     1      -4.200  -0.405  24.354  0.00  0.00    -0.203 NA
ATOM     10  C   UNL     1      -4.048  -1.001  24.902  0.00  0.00    +0.265 C 
ATOM     11  O   UNL     1      -4.102  -0.843  25.711  0.00  0.00    -0.268 OA
BRANCH  10  12
ATOM     12  C   UNL     1      -3.841  -1.757  24.643  0.00  0.00    +0.055 A 
ATOM     13  C   UNL     1      -4.249  -2.105  24.017  0.00  0.00    +0.005 A 
ATOM     14  C   UNL     1      -4.043  -2.861  23.758  0.00  0.00    +0.000 A 
ATOM     15  C   UNL     1      -3.428  -3.269  24.127  0.00  0.00    +0.000 A 
ATOM     16  C   UNL     1      -3.020  -2.921  24.755  0.00  0.00    +0.000 A 
ATOM     17  C   UNL     1      -3.227  -2.166  25.012  0.00  0.00    +0.005 A 
ENDBRANCH  10  12
ENDBRANCH   8   9
BRANCH   1  23
ATOM     23  C   UNL     1      -3.427   3.809  24.504  0.00  0.00    +0.075 C 
ATOM     24  C   UNL     1      -3.385   4.053  23.716  0.00  0.00    +0.009 C 
BRANCH  23  25
ATOM     25  C   UNL     1      -3.004   4.217  25.084  0.00  0.00    +0.225 C 
ATOM     26  O   UNL     1      -3.371   4.425  25.793  0.00  0.00    -0.275 OA
ATOM     27  N   UNL     1      -2.213   4.416  24.954  0.00  0.00    -0.280 N 
ATOM     28  C   UNL     1      -1.790   4.822  25.533  0.00  0.00    +0.093 C 
ATOM     29  C   UNL     1      -1.000   5.022  25.404  0.00  0.00    +0.022 C 
ATOM     30  C   UNL     1      -0.634   4.813  24.695  0.00  0.00    +0.004 C 
ATOM     31  C   UNL     1      -1.057   4.407  24.116  0.00  0.00    +0.022 C 
ATOM     32  C   UNL     1      -1.847   4.208  24.245  0.00  0.00    +0.093 C 
ENDBRANCH  23  25
ENDBRANCH   1  23
TORSDOF 4
ENDMDL
MODEL 3
REMARK VINA RESULT:     -13.2      1.613      2.496
REMARK  Name = 
REMARK  4 active torsions:
REMARK  status: ('A' for Active; 'I' for Inactive)
REMARK    1  A    between atoms: C_2  and  C_25
REMARK    2  A    between atoms: C_9  and  N_10
REMARK    3  A    between atoms: C_11  and  C_13
REMARK    4  A    between atoms: C_25  and  C_27
REMARK                            x       y       z     vdW  Elec       q    Type
REMARK                         _______ _______ _______ _____ _____    ______ ____
ROOT
ATOM      1  C   UNL     1      -2.009  -0.705  25.144  0.00  0.00    +0.052 C 
ATOM      2  C   UNL     1      -1.247  -0.972  24.971  0.00  0.00    -0.001 C 
ATOM      3  C   UNL     1      -0.658  -0.433  24.768  0.00  0.00    -0.000 C 
ATOM      4  C   UNL     1      -0.829   0.373  24.736  0.00  0.00    -0.001 C 
ATOM      5  C   UNL     1      -0.068   0.107  24.564  0.00  0.00    -0.000 C 
ATOM      6  C   UNL     1      -0.239   0.913  24.532  0.00  0.00    +0.002 C 
ATOM      7  C   UNL     1      -0.411   1.719  24.501  0.00  0.00    +0.022 C 
ATOM      8  C   UNL     1      -1.173   1.986  24.673  0.00  0.00    +0.095 C 
ATOM     18  C   UNL     1      -1.762   1.447  24.877  0.00  0.00    +0.019 C 
ATOM     19  C   UNL     1      -2.524   1.713  25.049  0.00  0.00    +0.002 C 
ATOM     20  C   UNL     1      -1.591   0.640  24.908  0.00  0.00    +0.045 C 
ATOM     21  C   UNL     1      -2.181   0.101  25.112  0.00  0.00    +0.145 C 
ATOM     22  O   UNL     1      -2.942   0.367  25.284  0.00  0.00    -0.224 OA
ENDROOT
BRANCH   8   9
ATOM      9  N   UNL     1      -1.344   2.793  24.641  0.00  0.00    -0.203 NA
ATOM     10  C   UNL     1      -0.899   3.327  25.084  0.00  0.00    +0.265 C 
ATOM     11  O   UNL     1      -0.281   3.055  25.560  0.00  0.00    -0.268 OA
BRANCH  10  12
ATOM     12  C   UNL     1      -1.070   4.134  25.052  0.00  0.00    +0.055 A 
ATOM     13  C   UNL     1      -1.753   4.425  25.409  0.00  0.00    +0.005 A 
ATOM     14  C   UNL     1      -1.924   5.232  25.377  0.00  0.00    +0.000 A 
ATOM     15  C   UNL     1      -1.411   5.747  24.988  0.00  0.00    +0.000 A 
ATOM     16  C   UNL     1      -0.726   5.455  24.630  0.00  0.00    +0.000 A 
ATOM     17  C   UNL     1      -0.556   4.649  24.662  0.00  0.00    +0.005 A 
ENDBRANCH  10  12
ENDBRANCH   8   9
BRANCH   1  23
ATOM     23  C   UNL     1      -2.599  -1.245  25.347  0.00  0.00    +0.075 C 
ATOM     24  C   UNL     1      -3.172  -1.041  25.904  0.00  0.00    +0.009 C 
BRANCH  23  25
ATOM     25  C   UNL     1      -2.615  -1.990  24.993  0.00  0.00    +0.225 C 
ATOM     26  O   UNL     1      -1.989  -2.516  25.109  0.00  0.00    -0.275 OA
ATOM     27  N   UNL     1      -3.257  -2.210  24.523  0.00  0.00    -0.280 N 
ATOM     28  C   UNL     1      -3.273  -2.954  24.169  0.00  0.00    +0.093 C 
ATOM     29  C   UNL     1      -3.914  -3.174  23.699  0.00  0.00    +0.022 C 
ATOM     30  C   UNL     1      -4.539  -2.649  23.584  0.00  0.00    +0.004 C 
ATOM     31  C   UNL     1      -4.523  -1.905  23.938  0.00  0.00    +0.022 C 
ATOM     32  C   UNL     1      -3.882  -1.684  24.407  0.00  0.00    +0.093 C 
ENDBRANCH  23  25
ENDBRANCH   1  23
TORSDOF 4
ENDMDL
MODEL 4
REMARK VINA RESULT:     -12.2      3.044      4.661
REMARK  Name = 
REMARK  4 active torsions:
REMARK  status: ('A' for Active; 'I' for Inactive)
REMARK    1  A    between atoms: C_2  and  C_25
REMARK    2  A    between atoms: C_9  and  N_10
REMARK    3  A    between atoms: C_11  and  C_13
REMARK    4  A    between atoms: C_25  and  C_27
REMARK                            x       y       z     vdW  Elec       q    Type
REMARK                         _______ _______ _______ _____ _____    ______ ____
ROOT
ATOM      1  C   UNL     1      -2.948   1.393  24.447  0.00  0.00    +0.052 C 
ATOM      2  C   UNL     1      -3.062   0.738  24.938  0.00  0.00    -0.001 C 
ATOM      3  C   UNL     1      -2.447   0.203  25.061  0.00  0.00    -0.000 C 
ATOM      4  C   UNL     1      -1.719   0.320  24.693  0.00  0.00    -0.001 C 
ATOM      5  C   UNL     1      -1.832  -0.332  25.183  0.00  0.00    -0.000 C 
ATOM      6  C   UNL     1      -1.103  -0.215  24.815  0.00  0.00    +0.002 C 
ATOM      7  C   UNL     1      -0.375  -0.098  24.447  0.00  0.00    +0.022 C 
ATOM      8  C   UNL     1      -0.261   0.556  23.956  0.00  0.00    +0.095 C 
ATOM     18  C   UNL     1      -0.876   1.092  23.834  0.00  0.00    +0.019 C 
ATOM     19  C   UNL     1      -0.762   1.745  23.343  0.00  0.00    +0.002 C 
ATOM     20  C   UNL     1      -1.605   0.975  24.202  0.00  0.00    +0.045 C 
ATOM     21  C   UNL     1      -2.220   1.510  24.079  0.00  0.00    +0.145 C 
ATOM     22  O   UNL     1      -2.106   2.163  23.588  0.00  0.00    -0.224 OA
ENDROOT
BRANCH   8   9
ATOM      9  N   UNL     1       0.468   0.673  23.588  0.00  0.00    -0.203 NA
ATOM     10  C   UNL     1       0.909   0.026  23.329  0.00  0.00    +0.265 C 
ATOM     11  O   UNL     1       0.620  -0.740  23.437  0.00  0.00    -0.268 OA
BRANCH  10  12
ATOM     12  C   UNL     1       1.638   0.143  22.961  0.00  0.00    +0.055 A 
ATOM     13  C   UNL     1       2.220   0.594  23.332  0.00  0.00    +0.005 A 
ATOM     14  C   UNL     1       2.949   0.711  22.964  0.00  0.00    +0.000 A 
ATOM     15  C   UNL     1       3.096   0.376  22.224  0.00  0.00    +0.000 A 
ATOM     16  C   UNL     1       2.513  -0.075  21.852  0.00  0.00    +0.000 A 
ATOM     17  C   UNL     1       1.784  -0.191  22.221  0.00  0.00    +0.005 A 
ENDBRANCH  10  12
ENDBRANCH   8   9
BRANCH   1  23
ATOM     23  C   UNL     1      -3.564   1.928  24.325  0.00  0.00    +0.075 C 
ATOM     24  C   UNL     1      -3.907   2.001  23.578  0.00  0.00    +0.009 C 
BRANCH  23  25
ATOM     25  C   UNL     1      -3.837   2.392  24.951  0.00  0.00    +0.225 C 
ATOM     26  O   UNL     1      -3.311   2.867  25.373  0.00  0.00    -0.275 OA
ATOM     27  N   UNL     1      -4.637   2.380  25.155  0.00  0.00    -0.280 N 
ATOM     28  C   UNL     1      -4.910   2.842  25.780  0.00  0.00    +0.093 C 
ATOM     29  C   UNL     1      -5.709   2.831  25.984  0.00  0.00    +0.022 C 
ATOM     30  C   UNL     1      -6.235   2.356  25.562  0.00  0.00    +0.004 C 
ATOM     31  C   UNL     1      -5.962   1.893  24.937  0.00  0.00    +0.022 C 
ATOM     32  C   UNL     1      -5.163   1.904  24.733  0.00  0.00    +0.093 C 
ENDBRANCH  23  25
ENDBRANCH   1  23
TORSDOF 4
ENDMDL
MODEL 5
REMARK VINA RESULT:     -11.9      1.865      6.172
REMARK  Name = 
REMARK  4 active torsions:
REMARK  status: ('A' for Active; 'I' for Inactive)
REMARK    1  A    between atoms: C_2  and  C_25
REMARK    2  A    between atoms: C_9  and  N_10
REMARK    3  A    between atoms: C_11  and  C_13
REMARK    4  A    between atoms: C_25  and  C_27
REMARK                            x       y       z     vdW  Elec       q    Type
REMARK                         _______ _______ _______ _____ _____    ______ ____
ROOT
ATOM      1  C   UNL     1      -0.575   2.226  25.149  0.00  0.00    +0.052 C 
ATOM      2  C   UNL     1       0.142   1.991  24.814  0.00  0.00    -0.001 C 
ATOM      3  C   UNL     1       0.203   1.255  24.446  0.00  0.00    -0.000 C 
ATOM      4  C   UNL     1      -0.451   0.755  24.414  0.00  0.00    -0.001 C 
ATOM      5  C   UNL     1       0.264   0.520  24.079  0.00  0.00    -0.000 C 
ATOM      6  C   UNL     1      -0.391   0.018  24.047  0.00  0.00    +0.002 C 
ATOM      7  C   UNL     1      -1.045  -0.482  24.014  0.00  0.00    +0.022 C 
ATOM      8  C   UNL     1      -1.762  -0.247  24.350  0.00  0.00    +0.095 C 
ATOM     18  C   UNL     1      -1.823   0.489  24.717  0.00  0.00    +0.019 C 
ATOM     19  C   UNL     1      -2.539   0.724  25.053  0.00  0.00    +0.002 C 
ATOM     20  C   UNL     1      -1.168   0.990  24.750  0.00  0.00    +0.045 C 
ATOM     21  C   UNL     1      -1.229   1.726  25.117  0.00  0.00    +0.145 C 
ATOM     22  O   UNL     1      -1.946   1.961  25.453  0.00  0.00    -0.224 OA
ENDROOT
BRANCH   8   9
ATOM      9  N   UNL     1      -2.417  -0.748  24.318  0.00  0.00    -0.203 NA
ATOM     10  C   UNL     1      -2.314  -1.565  24.364  0.00  0.00    +0.265 C 
ATOM     11  O   UNL     1      -1.555  -1.882  24.442  0.00  0.00    -0.268 OA
BRANCH  10  12
ATOM     12  C   UNL     1      -2.968  -2.066  24.331  0.00  0.00    +0.055 A 
ATOM     13  C   UNL     1      -3.614  -1.872  23.857  0.00  0.00    +0.005 A 
ATOM     14  C   UNL     1      -4.269  -2.373  23.824  0.00  0.00    +0.000 A 
ATOM     15  C   UNL     1      -4.277  -3.070  24.267  0.00  0.00    +0.000 A 
ATOM     16  C   UNL     1      -3.630  -3.264  24.742  0.00  0.00    +0.000 A 
ATOM     17  C   UNL     1      -2.976  -2.762  24.774  0.00  0.00    +0.005 A 
ENDBRANCH  10  12
ENDBRANCH   8   9
BRANCH   1  23
ATOM     23  C   UNL     1      -0.636   2.963  25.517  0.00  0.00    +0.075 C 
ATOM     24  C   UNL     1      -0.877   3.013  26.305  0.00  0.00    +0.009 C 
BRANCH  23  25
ATOM     25  C   UNL     1      -0.456   3.649  25.096  0.00  0.00    +0.225 C 
ATOM     26  O   UNL     1       0.233   3.686  24.642  0.00  0.00    -0.275 OA
ATOM     27  N   UNL     1      -0.963   4.299  25.130  0.00  0.00    -0.280 N 
ATOM     28  C   UNL     1      -0.783   4.985  24.710  0.00  0.00    +0.093 C 
ATOM     29  C   UNL     1      -1.290   5.635  24.743  0.00  0.00    +0.022 C 
ATOM     30  C   UNL     1      -1.978   5.597  25.197  0.00  0.00    +0.004 C 
ATOM     31  C   UNL     1      -2.158   4.912  25.617  0.00  0.00    +0.022 C 
ATOM     32  C   UNL     1      -1.651   4.262  25.584  0.00  0.00    +0.093 C 
ENDBRANCH  23  25
ENDBRANCH   1  23
TORSDOF 4
ENDMDL
MODEL 6
REMARK VINA RESULT:     -11.8      2.727      4.442
REMARK  Name = 
REMARK  4 active torsions:
REMARK  status: ('A' for Active; 'I' for Inactive)
REMARK    1  A    between atoms: C_2  and  C_25
REMARK    2  A    between atoms: C_9  and  N_10
REMARK    3  A    between atoms: C_11  and  C_13
REMARK    4  A    between atoms: C_25  and  C_27
REMARK                            x       y       z     vdW  Elec       q    Type
REMARK                         _______ _______ _______ _____ _____    ______ ____
ROOT
ATOM      1  C   UNL     1      -3.153   3.368  24.874  0.00  0.00    +0.052 C 
ATOM      2  C   UNL     1      -2.822   3.763  25.519  0.00  0.00    -0.001 C 
ATOM      3  C   UNL     1      -2.017   3.690  25.678  0.00  0.00    -0.000 C 
ATOM      4  C   UNL     1      -1.541   3.223  25.194  0.00  0.00    -0.001 C 
ATOM      5  C   UNL     1      -1.211   3.617  25.838  0.00  0.00    -0.000 C 
ATOM      6  C   UNL     1      -0.735   3.149  25.353  0.00  0.00    +0.002 C 
ATOM      7  C   UNL     1      -0.259   2.682  24.869  0.00  0.00    +0.022 C 
ATOM      8  C   UNL     1      -0.590   2.286  24.224  0.00  0.00    +0.095 C 
ATOM     18  C   UNL     1      -1.395   2.359  24.064  0.00  0.00    +0.019 C 
ATOM     19  C   UNL     1      -1.725   1.964  23.420  0.00  0.00    +0.002 C 
ATOM     20  C   UNL     1      -1.872   2.827  24.549  0.00  0.00    +0.045 C 
ATOM     21  C   UNL     1      -2.677   2.900  24.389  0.00  0.00    +0.145 C 
ATOM     22  O   UNL     1      -3.007   2.505  23.745  0.00  0.00    -0.224 OA
ENDROOT
BRANCH   8   9
ATOM      9  N   UNL     1      -0.113   1.818  23.739  0.00  0.00    -0.203 NA
ATOM     10  C   UNL     1       0.395   1.261  24.073  0.00  0.00    +0.265 C 
ATOM     11  O   UNL     1       0.427   1.172  24.894  0.00  0.00    -0.268 OA
BRANCH  10  12
ATOM     12  C   UNL     1       0.871   0.793  23.589  0.00  0.00    +0.055 A 
ATOM     13  C   UNL     1       0.575   0.092  23.271  0.00  0.00    +0.005 A 
ATOM     14  C   UNL     1       1.052  -0.376  22.787  0.00  0.00    +0.000 A 
ATOM     15  C   UNL     1       1.825  -0.142  22.620  0.00  0.00    +0.000 A 
ATOM     16  C   UNL     1       2.122   0.560  22.938  0.00  0.00    +0.000 A 
ATOM     17  C   UNL     1       1.645   1.027  23.422  0.00  0.00    +0.005 A 
ENDBRANCH  10  12
ENDBRANCH   8   9
BRANCH   1  23
ATOM     23  C   UNL     1      -3.959   3.441  24.714  0.00  0.00    +0.075 C 
ATOM     24  C   UNL     1      -4.221   3.530  23.937  0.00  0.00    +0.009 C 
BRANCH  23  25
ATOM     25  C   UNL     1      -4.505   3.425  25.333  0.00  0.00    +0.225 C 
ATOM     26  O   UNL     1      -4.464   3.991  25.933  0.00  0.00    -0.275 OA
ATOM     27  N   UNL     1      -5.090   2.844  25.353  0.00  0.00    -0.280 N 
ATOM     28  C   UNL     1      -5.635   2.828  25.971  0.00  0.00    +0.093 C 
ATOM     29  C   UNL     1      -6.220   2.247  25.991  0.00  0.00    +0.022 C 
ATOM     30  C   UNL     1      -6.260   1.682  25.392  0.00  0.00    +0.004 C 
ATOM     31  C   UNL     1      -5.715   1.698  24.774  0.00  0.00    +0.022 C 
ATOM     32  C   UNL     1      -5.130   2.279  24.753  0.00  0.00    +0.093 C 
ENDBRANCH  23  25
ENDBRANCH   1  23
TORSDOF 4
ENDMDL
MODEL 7
REMARK VINA RESULT:     -11.6      3.228      5.035
REMARK  Name = 
REMARK  4 active torsions:
REMARK  status: ('A' for Active; 'I' for Inactive)
REMARK    1  A    between atoms: C_2  and  C_25
REMARK    2  A    between atoms: C_9  and  N_10
REMARK    3  A    between atoms: C_11  and  C_13
REMARK    4  A    between atoms: C_25  and  C_27
REMARK                            x       y       z     vdW  Elec       q    Type
REMARK                         _______ _______ _______ _____ _____    ______ ____
ROOT
ATOM      1  C   UNL     1      -0.114   0.263  23.926  0.00  0.00    +0.052 C 
ATOM      2  C   UNL     1      -0.140  -0.505  24.229  0.00  0.00    -0.001 C 
ATOM      3  C   UNL     1      -0.836  -0.793  24.564  0.00  0.00    -0.000 C 
ATOM      4  C   UNL     1      -1.507  -0.314  24.596  0.00  0.00    -0.001 C 
ATOM      5  C   UNL     1      -1.533  -1.080  24.899  0.00  0.00    -0.000 C 
ATOM      6  C   UNL     1      -2.204  -0.602  24.931  0.00  0.00    +0.002 C 
ATOM      7  C   UNL     1      -2.875  -0.124  24.963  0.00  0.00    +0.022 C 
ATOM      8  C   UNL     1      -2.849   0.644  24.660  0.00  0.00    +0.095 C 
ATOM     18  C   UNL     1      -2.153   0.932  24.325  0.00  0.00    +0.019 C 
ATOM     19  C   UNL     1      -2.127   1.699  24.022  0.00  0.00    +0.002 C 
ATOM     20  C   UNL     1      -1.481   0.454  24.293  0.00  0.00    +0.045 C 
ATOM     21  C   UNL     1      -0.785   0.741  23.958  0.00  0.00    +0.145 C 
ATOM     22  O   UNL     1      -0.759   1.508  23.655  0.00  0.00    -0.224 OA
ENDROOT
BRANCH   8   9
ATOM      9  N   UNL     1      -3.521   1.123  24.692  0.00  0.00    -0.203 NA
ATOM     10  C   UNL     1      -4.175   0.887  25.135  0.00  0.00    +0.265 C 
ATOM     11  O   UNL     1      -4.158   0.171  25.547  0.00  0.00    -0.268 OA
BRANCH  10  12
ATOM     12  C   UNL     1      -4.846   1.365  25.167  0.00  0.00    +0.055 A 
ATOM     13  C   UNL     1      -4.827   2.077  25.583  0.00  0.00    +0.005 A 
ATOM     14  C   UNL     1      -5.498   2.555  25.616  0.00  0.00    +0.000 A 
ATOM     15  C   UNL     1      -6.190   2.321  25.231  0.00  0.00    +0.000 A 
ATOM     16  C   UNL     1      -6.210   1.609  24.815  0.00  0.00    +0.000 A 
ATOM     17  C   UNL     1      -5.538   1.131  24.783  0.00  0.00    +0.005 A 
ENDBRANCH  10  12
ENDBRANCH   8   9
BRANCH   1  23
ATOM     23  C   UNL     1       0.583   0.550  23.591  0.00  0.00    +0.075 C 
ATOM     24  C   UNL     1       0.938   1.230  23.895  0.00  0.00    +0.009 C 
BRANCH  23  25
ATOM     25  C   UNL     1       0.925   0.158  22.951  0.00  0.00    +0.225 C 
ATOM     26  O   UNL     1       0.464  -0.332  22.473  0.00  0.00    -0.275 OA
ATOM     27  N   UNL     1       1.729   0.254  22.789  0.00  0.00    -0.280 N 
ATOM     28  C   UNL     1       2.071  -0.138  22.150  0.00  0.00    +0.093 C 
ATOM     29  C   UNL     1       2.874  -0.042  21.988  0.00  0.00    +0.022 C 
ATOM     30  C   UNL     1       3.334   0.447  22.467  0.00  0.00    +0.004 C 
ATOM     31  C   UNL     1       2.992   0.840  23.106  0.00  0.00    +0.022 C 
ATOM     32  C   UNL     1       2.189   0.743  23.268  0.00  0.00    +0.093 C 
ENDBRANCH  23  25
ENDBRANCH   1  23
TORSDOF 4
ENDMDL
