MODEL 1
REMARK VINA RESULT:     -10.1      0.000      0.000
REMARK  Name = 
REMARK  3 active torsions:
REMARK  status: ('A' for Active; 'I' for Inactive)
REMARK    1  A    between atoms: N_3  and  C_4
REMARK    2  A    between atoms: N_17  and  C_18
REMARK    3  A    between atoms: C_18  and  C_19
REMARK                            x       y       z     vdW  Elec       q    Type
REMARK                         _______ _______ _______ _____ _____    ______ ____
ROOT
ATOM      1  O   UNL     1      -2.994  -0.833  24.151  0.00  0.00    -0.251 OA
ATOM      2  C   UNL     1      -3.744  -0.700  24.466  0.00  0.00    +0.323 C 
ATOM      3  N   UNL     1      -4.244  -1.336  24.624  0.00  0.00    -0.190 NA
ATOM     10  N   UNL     1      -3.994   0.071  24.622  0.00  0.00    -0.263 N 
ATOM     11  C   UNL     1      -4.745   0.205  24.937  0.00  0.00    +0.095 C 
ATOM     12  C   UNL     1      -4.996   0.975  25.094  0.00  0.00    +0.022 C 
ATOM     13  C   UNL     1      -4.495   1.612  24.935  0.00  0.00    +0.012 C 
ATOM     14  C   UNL     1      -4.851   2.331  25.131  0.00  0.00    +0.085 C 
ATOM     15  C   UNL     1      -4.542   3.092  25.060  0.00  0.00    +0.226 C 
ATOM     16  O   UNL     1      -5.039   3.703  25.305  0.00  0.00    -0.275 OA
ATOM     17  N   UNL     1      -3.804   3.324  24.776  0.00  0.00    -0.275 N 
ATOM     28  C   UNL     1      -3.190   2.851  24.493  0.00  0.00    +0.094 C 
ATOM     29  C   UNL     1      -3.163   2.030  24.424  0.00  0.00    +0.023 C 
ATOM     30  C   UNL     1      -3.744   1.478  24.620  0.00  0.00    +0.022 C 
ATOM     31  C   UNL     1      -3.494   0.707  24.464  0.00  0.00    +0.095 C 
ENDROOT
BRANCH   3   4
ATOM      4  C   UNL     1      -3.995  -2.107  24.468  0.00  0.00    +0.097 C 
ATOM      5  C   UNL     1      -4.241  -2.488  23.779  0.00  0.00    +0.022 C 
ATOM      6  C   UNL     1      -3.992  -3.258  23.621  0.00  0.00    +0.002 C 
ATOM      7  C   UNL     1      -3.496  -3.648  24.154  0.00  0.00    +0.000 C 
ATOM      8  C   UNL     1      -3.249  -3.267  24.843  0.00  0.00    +0.002 C 
ATOM      9  C   UNL     1      -3.499  -2.496  24.999  0.00  0.00    +0.022 C 
ENDBRANCH   3   4
BRANCH  17  18
ATOM     18  C   UNL     1      -3.659   4.137  24.775  0.00  0.00    +0.120 C 
BRANCH  18  19
ATOM     19  C   UNL     1      -2.905   4.421  24.950  0.00  0.00    +0.001 A 
ATOM     20  C   UNL     1      -2.685   4.550  25.734  0.00  0.00    +0.001 A 
ATOM     21  C   UNL     1      -1.931   4.834  25.911  0.00  0.00    +0.040 A 
ATOM     22  C   UNL     1      -1.396   4.990  25.301  0.00  0.00    +0.176 A 
ATOM     23  O   UNL     1      -0.621   5.271  25.305  0.00  0.00    -0.435 OA
ATOM     24  C   UNL     1      -0.362   5.316  24.524  0.00  0.00    +0.429 C 
ATOM     25  O   UNL     1      -0.977   5.063  24.036  0.00  0.00    -0.435 OA
ATOM     26  C   UNL     1      -1.616   4.861  24.516  0.00  0.00    +0.176 A 
ATOM     27  C   UNL     1      -2.371   4.577  24.341  0.00  0.00    +0.038 A 
ENDBRANCH  18  19
ENDBRANCH  17  18
TORSDOF 3
ENDMDL
MODEL 2
REMARK VINA RESULT:      -9.6      3.146      4.705
REMARK  Name = 
REMARK  3 active torsions:
REMARK  status: ('A' for Active; 'I' for Inactive)
REMARK    1  A    between atoms: N_3  and  C_4
REMARK    2  A    between atoms: N_17  and  C_18
REMARK    3  A    between atoms: C_18  and  C_19
REMARK                            x       y       z     vdW  Elec       q    Type
REMARK                         _______ _______ _______ _____ _____    ______ ____
ROOT
ATOM      1  O   UNL     1       0.104   0.888  23.000  0.00  0.00    -0.251 OA
ATOM      2  C   UNL     1       0.122   0.234  23.502  0.00  0.00    +0.323 C 
ATOM      3  N   UNL     1       0.813  -0.209  23.577  0.00  0.00    -0.190 NA
ATOM     10  N   UNL     1      -0.553   0.024  23.929  0.00  0.00    -0.263 N 
ATOM     11  C   UNL     1      -0.535  -0.631  24.431  0.00  0.00    +0.095 C 
ATOM     12  C   UNL     1      -1.208  -0.842  24.858  0.00  0.00    +0.022 C 
ATOM     13  C   UNL     1      -1.900  -0.398  24.782  0.00  0.00    +0.012 C 
ATOM     14  C   UNL     1      -2.506  -0.701  25.254  0.00  0.00    +0.085 C 
ATOM     15  C   UNL     1      -3.278  -0.424  25.340  0.00  0.00    +0.226 C 
ATOM     16  O   UNL     1      -3.755  -0.852  25.859  0.00  0.00    -0.275 OA
ATOM     17  N   UNL     1      -3.636   0.223  24.976  0.00  0.00    -0.275 N 
ATOM     28  C   UNL     1      -3.310   0.754  24.436  0.00  0.00    +0.094 C 
ATOM     29  C   UNL     1      -2.545   0.769  24.126  0.00  0.00    +0.023 C 
ATOM     30  C   UNL     1      -1.918   0.256  24.280  0.00  0.00    +0.022 C 
ATOM     31  C   UNL     1      -1.244   0.467  23.854  0.00  0.00    +0.095 C 
ENDROOT
BRANCH   3   4
ATOM      4  C   UNL     1       1.487   0.001  23.151  0.00  0.00    +0.097 C 
ATOM      5  C   UNL     1       2.005   0.569  23.452  0.00  0.00    +0.022 C 
ATOM      6  C   UNL     1       2.679   0.780  23.027  0.00  0.00    +0.002 C 
ATOM      7  C   UNL     1       2.836   0.423  22.299  0.00  0.00    +0.000 C 
ATOM      8  C   UNL     1       2.319  -0.145  21.998  0.00  0.00    +0.002 C 
ATOM      9  C   UNL     1       1.644  -0.355  22.425  0.00  0.00    +0.022 C 
ENDBRANCH   3   4
BRANCH  17  18
ATOM     18  C   UNL     1      -4.424   0.358  25.179  0.00  0.00    +0.120 C 
BRANCH  18  19
ATOM     19  C   UNL     1      -4.732   1.123  25.152  0.00  0.00    +0.001 A 
ATOM     20  C   UNL     1      -5.335   1.306  24.620  0.00  0.00    +0.001 A 
ATOM     21  C   UNL     1      -5.643   2.071  24.593  0.00  0.00    +0.040 A 
ATOM     22  C   UNL     1      -5.347   2.653  25.098  0.00  0.00    +0.176 A 
ATOM     23  O   UNL     1      -5.541   3.448  25.196  0.00  0.00    -0.435 OA
ATOM     24  C   UNL     1      -5.057   3.757  25.788  0.00  0.00    +0.429 C 
ATOM     25  O   UNL     1      -4.564   3.152  26.057  0.00  0.00    -0.435 OA
ATOM     26  C   UNL     1      -4.744   2.470  25.630  0.00  0.00    +0.176 A 
ATOM     27  C   UNL     1      -4.437   1.704  25.657  0.00  0.00    +0.038 A 
ENDBRANCH  18  19
ENDBRANCH  17  18
TORSDOF 3
ENDMDL
MODEL 3
REMARK VINA RESULT:      -9.5      2.019      6.551
REMARK  Name = 
REMARK  3 active torsions:
REMARK  status: ('A' for Active; 'I' for Inactive)
REMARK    1  A    between atoms: N_3  and  C_4
REMARK    2  A    between atoms: N_17  and  C_18
REMARK    3  A    between atoms: C_18  and  C_19
REMARK                            x       y       z     vdW  Elec       q    Type
REMARK                         _______ _______ _______ _____ _____    ______ ____
ROOT
ATOM      1  O   UNL     1      -2.007   3.179  24.414  0.00  0.00    -0.251 OA
ATOM      2  C   UNL     1      -1.427   2.987  24.969  0.00  0.00    +0.323 C 
ATOM      3  N   UNL     1      -1.026   3.586  25.369  0.00  0.00    -0.190 NA
ATOM     10  N   UNL     1      -1.249   2.196  25.122  0.00  0.00    -0.263 N 
ATOM     11  C   UNL     1      -0.670   2.004  25.677  0.00  0.00    +0.095 C 
ATOM     12  C   UNL     1      -0.491   1.214  25.832  0.00  0.00    +0.022 C 
ATOM     13  C   UNL     1      -0.892   0.615  25.430  0.00  0.00    +0.012 C 
ATOM     14  C   UNL     1      -0.631  -0.132  25.665  0.00  0.00    +0.085 C 
ATOM     15  C   UNL     1      -0.886  -0.871  25.403  0.00  0.00    +0.226 C 
ATOM     16  O   UNL     1      -0.512  -1.521  25.748  0.00  0.00    -0.275 OA
ATOM     17  N   UNL     1      -1.463  -1.047  24.841  0.00  0.00    -0.275 N 
ATOM     28  C   UNL     1      -1.929  -0.526  24.403  0.00  0.00    +0.094 C 
ATOM     29  C   UNL     1      -1.933   0.298  24.418  0.00  0.00    +0.023 C 
ATOM     30  C   UNL     1      -1.472   0.806  24.875  0.00  0.00    +0.022 C 
ATOM     31  C   UNL     1      -1.650   1.597  24.722  0.00  0.00    +0.095 C 
ENDROOT
BRANCH   3   4
ATOM      4  C   UNL     1      -1.204   4.377  25.216  0.00  0.00    +0.097 C 
ATOM      5  C   UNL     1      -0.668   4.847  24.802  0.00  0.00    +0.022 C 
ATOM      6  C   UNL     1      -0.844   5.638  24.648  0.00  0.00    +0.002 C 
ATOM      7  C   UNL     1      -1.559   5.959  24.908  0.00  0.00    +0.000 C 
ATOM      8  C   UNL     1      -2.096   5.488  25.323  0.00  0.00    +0.002 C 
ATOM      9  C   UNL     1      -1.918   4.697  25.476  0.00  0.00    +0.022 C 
ENDBRANCH   3   4
BRANCH  17  18
ATOM     18  C   UNL     1      -1.592  -1.849  24.698  0.00  0.00    +0.120 C 
BRANCH  18  19
ATOM     19  C   UNL     1      -2.362  -2.140  24.642  0.00  0.00    +0.001 A 
ATOM     20  C   UNL     1      -2.743  -2.430  25.314  0.00  0.00    +0.001 A 
ATOM     21  C   UNL     1      -3.513  -2.721  25.260  0.00  0.00    +0.040 A 
ATOM     22  C   UNL     1      -3.903  -2.720  24.532  0.00  0.00    +0.176 A 
ATOM     23  O   UNL     1      -4.657  -2.969  24.311  0.00  0.00    -0.435 OA
ATOM     24  C   UNL     1      -4.743  -2.833  23.502  0.00  0.00    +0.429 C 
ATOM     25  O   UNL     1      -4.042  -2.499  23.223  0.00  0.00    -0.435 OA
ATOM     26  C   UNL     1      -3.523  -2.430  23.860  0.00  0.00    +0.176 A 
ATOM     27  C   UNL     1      -2.752  -2.139  23.916  0.00  0.00    +0.038 A 
ENDBRANCH  18  19
ENDBRANCH  17  18
TORSDOF 3
ENDMDL
MODEL 4
REMARK VINA RESULT:      -9.0      3.969      6.287
REMARK  Name = 
REMARK  3 active torsions:
REMARK  status: ('A' for Active; 'I' for Inactive)
REMARK    1  A    between atoms: N_3  and  C_4
REMARK    2  A    between atoms: N_17  and  C_18
REMARK    3  A    between atoms: C_18  and  C_19
REMARK                            x       y       z     vdW  Elec       q    Type
REMARK                         _______ _______ _______ _____ _____    ______ ____
ROOT
ATOM      1  O   UNL     1       1.874  -0.321  23.263  0.00  0.00    -0.251 OA
ATOM      2  C   UNL     1       1.722   0.475  23.415  0.00  0.00    +0.323 C 
ATOM      3  N   UNL     1       2.300   1.042  23.261  0.00  0.00    -0.190 NA
ATOM     10  N   UNL     1       0.990   0.703  23.721  0.00  0.00    -0.263 N 
ATOM     11  C   UNL     1       0.837   1.499  23.873  0.00  0.00    +0.095 C 
ATOM     12  C   UNL     1       0.106   1.729  24.179  0.00  0.00    +0.022 C 
ATOM     13  C   UNL     1      -0.472   1.160  24.333  0.00  0.00    +0.012 C 
ATOM     14  C   UNL     1      -1.159   1.505  24.636  0.00  0.00    +0.085 C 
ATOM     15  C   UNL     1      -1.862   1.136  24.861  0.00  0.00    +0.226 C 
ATOM     16  O   UNL     1      -2.452   1.637  25.145  0.00  0.00    -0.275 OA
ATOM     17  N   UNL     1      -2.052   0.334  24.839  0.00  0.00    -0.275 N 
ATOM     28  C   UNL     1      -1.587  -0.298  24.587  0.00  0.00    +0.094 C 
ATOM     29  C   UNL     1      -0.816  -0.285  24.294  0.00  0.00    +0.023 C 
ATOM     30  C   UNL     1      -0.320   0.364  24.181  0.00  0.00    +0.022 C 
ATOM     31  C   UNL     1       0.412   0.136  23.875  0.00  0.00    +0.095 C 
ENDROOT
BRANCH   3   4
ATOM      4  C   UNL     1       3.031   0.814  22.955  0.00  0.00    +0.097 C 
ATOM      5  C   UNL     1       3.691   0.774  23.450  0.00  0.00    +0.022 C 
ATOM      6  C   UNL     1       4.422   0.547  23.145  0.00  0.00    +0.002 C 
ATOM      7  C   UNL     1       4.495   0.358  22.344  0.00  0.00    +0.000 C 
ATOM      8  C   UNL     1       3.836   0.397  21.850  0.00  0.00    +0.002 C 
ATOM      9  C   UNL     1       3.104   0.625  22.156  0.00  0.00    +0.022 C 
ENDBRANCH   3   4
BRANCH  17  18
ATOM     18  C   UNL     1      -2.809   0.138  25.104  0.00  0.00    +0.120 C 
BRANCH  18  19
ATOM     19  C   UNL     1      -3.223  -0.481  24.749  0.00  0.00    +0.001 A 
ATOM     20  C   UNL     1      -3.716  -0.331  24.105  0.00  0.00    +0.001 A 
ATOM     21  C   UNL     1      -4.130  -0.949  23.749  0.00  0.00    +0.040 A 
ATOM     22  C   UNL     1      -4.051  -1.718  24.038  0.00  0.00    +0.176 A 
ATOM     23  O   UNL     1      -4.387  -2.433  23.802  0.00  0.00    -0.435 OA
ATOM     24  C   UNL     1      -4.103  -3.025  24.301  0.00  0.00    +0.429 C 
ATOM     25  O   UNL     1      -3.590  -2.676  24.845  0.00  0.00    -0.435 OA
ATOM     26  C   UNL     1      -3.558  -1.868  24.682  0.00  0.00    +0.176 A 
ATOM     27  C   UNL     1      -3.144  -1.249  25.038  0.00  0.00    +0.038 A 
ENDBRANCH  18  19
ENDBRANCH  17  18
TORSDOF 3
ENDMDL
MODEL 5
REMARK VINA RESULT:      -8.9      1.193      6.059
REMARK  Name = 
REMARK  3 active torsions:
REMARK  status: ('A' for Active; 'I' for Inactive)
REMARK    1  A    between atoms: N_3  and  C_4
REMARK    2  A    between atoms: N_17  and  C_18
REMARK    3  A    between atoms: C_18  and  C_19
REMARK                            x       y       z     vdW  Elec       q    Type
REMARK                         _______ _______ _______ _____ _____    ______ ____
ROOT
ATOM      1  O   UNL     1      -1.610   3.251  24.253  0.00  0.00    -0.251 OA
ATOM      2  C   UNL     1      -2.271   3.446  24.705  0.00  0.00    +0.323 C 
ATOM      3  N   UNL     1      -2.315   4.182  25.075  0.00  0.00    -0.190 NA
ATOM     10  N   UNL     1      -2.889   2.905  24.787  0.00  0.00    -0.263 N 
ATOM     11  C   UNL     1      -3.550   3.100  25.240  0.00  0.00    +0.095 C 
ATOM     12  C   UNL     1      -4.168   2.560  25.323  0.00  0.00    +0.022 C 
ATOM     13  C   UNL     1      -4.124   1.824  24.952  0.00  0.00    +0.012 C 
ATOM     14  C   UNL     1      -4.796   1.370  25.105  0.00  0.00    +0.085 C 
ATOM     15  C   UNL     1      -4.972   0.608  24.842  0.00  0.00    +0.226 C 
ATOM     16  O   UNL     1      -5.695   0.301  25.092  0.00  0.00    -0.275 OA
ATOM     17  N   UNL     1      -4.520   0.112  24.362  0.00  0.00    -0.275 N 
ATOM     28  C   UNL     1      -3.780   0.256  24.026  0.00  0.00    +0.094 C 
ATOM     29  C   UNL     1      -3.310   0.931  24.087  0.00  0.00    +0.023 C 
ATOM     30  C   UNL     1      -3.463   1.629  24.499  0.00  0.00    +0.022 C 
ATOM     31  C   UNL     1      -2.845   2.170  24.417  0.00  0.00    +0.095 C 
ENDROOT
BRANCH   3   4
ATOM      4  C   UNL     1      -1.697   4.723  24.993  0.00  0.00    +0.097 C 
ATOM      5  C   UNL     1      -1.863   5.518  24.846  0.00  0.00    +0.022 C 
ATOM      6  C   UNL     1      -1.246   6.060  24.764  0.00  0.00    +0.002 C 
ATOM      7  C   UNL     1      -0.463   5.806  24.829  0.00  0.00    +0.000 C 
ATOM      8  C   UNL     1      -0.298   5.011  24.976  0.00  0.00    +0.002 C 
ATOM      9  C   UNL     1      -0.915   4.470  25.058  0.00  0.00    +0.022 C 
ENDBRANCH   3   4
BRANCH  17  18
ATOM     18  C   UNL     1      -4.851  -0.625  24.196  0.00  0.00    +0.120 C 
BRANCH  18  19
ATOM     19  C   UNL     1      -4.391  -1.307  24.258  0.00  0.00    +0.001 A 
ATOM     20  C   UNL     1      -4.285  -1.794  23.601  0.00  0.00    +0.001 A 
ATOM     21  C   UNL     1      -3.825  -2.476  23.662  0.00  0.00    +0.040 A 
ATOM     22  C   UNL     1      -3.471  -2.671  24.382  0.00  0.00    +0.176 A 
ATOM     23  O   UNL     1      -2.992  -3.303  24.607  0.00  0.00    -0.435 OA
ATOM     24  C   UNL     1      -2.802  -3.208  25.404  0.00  0.00    +0.429 C 
ATOM     25  O   UNL     1      -3.164  -2.516  25.671  0.00  0.00    -0.435 OA
ATOM     26  C   UNL     1      -3.578  -2.185  25.040  0.00  0.00    +0.176 A 
ATOM     27  C   UNL     1      -4.038  -1.502  24.977  0.00  0.00    +0.038 A 
ENDBRANCH  18  19
ENDBRANCH  17  18
TORSDOF 3
ENDMDL
MODEL 6
REMARK VINA RESULT:      -8.8      1.926      2.747
REMARK  Name = 
REMARK  3 active torsions:
REMARK  status: ('A' for Active; 'I' for Inactive)
REMARK    1  A    between atoms: N_3  and  C_4
REMARK    2  A    between atoms: N_17  and  C_18
REMARK    3  A    between atoms: C_18  and  C_19
REMARK                            x       y       z     vdW  Elec       q    Type
REMARK                         _______ _______ _______ _____ _____    ______ ____
ROOT
ATOM      1  O   UNL     1      -3.304  -0.808  24.978  0.00  0.00    -0.251 OA
ATOM      2  C   UNL     1      -2.579  -1.000  24.636  0.00  0.00    +0.323 C 
ATOM      3  N   UNL     1      -2.475  -1.733  24.274  0.00  0.00    -0.190 NA
ATOM     10  N   UNL     1      -1.957  -0.457  24.656  0.00  0.00    -0.263 N 
ATOM     11  C   UNL     1      -1.232  -0.649  24.314  0.00  0.00    +0.095 C 
ATOM     12  C   UNL     1      -0.610  -0.107  24.333  0.00  0.00    +0.022 C 
ATOM     13  C   UNL     1      -0.714   0.627  24.696  0.00  0.00    +0.012 C 
ATOM     14  C   UNL     1      -0.028   1.083  24.655  0.00  0.00    +0.085 C 
ATOM     15  C   UNL     1       0.102   1.844  24.947  0.00  0.00    +0.226 C 
ATOM     16  O   UNL     1       0.855   2.153  24.816  0.00  0.00    -0.275 OA
ATOM     17  N   UNL     1      -0.422   2.336  25.351  0.00  0.00    -0.275 N 
ATOM     28  C   UNL     1      -1.205   2.189  25.564  0.00  0.00    +0.094 C 
ATOM     29  C   UNL     1      -1.658   1.514  25.425  0.00  0.00    +0.023 C 
ATOM     30  C   UNL     1      -1.440   0.819  25.039  0.00  0.00    +0.022 C 
ATOM     31  C   UNL     1      -2.061   0.276  25.018  0.00  0.00    +0.095 C 
ENDROOT
BRANCH   3   4
ATOM      4  C   UNL     1      -3.096  -2.276  24.253  0.00  0.00    +0.097 C 
ATOM      5  C   UNL     1      -3.067  -2.953  24.724  0.00  0.00    +0.022 C 
ATOM      6  C   UNL     1      -3.687  -3.496  24.704  0.00  0.00    +0.002 C 
ATOM      7  C   UNL     1      -4.338  -3.362  24.214  0.00  0.00    +0.000 C 
ATOM      8  C   UNL     1      -4.367  -2.685  23.743  0.00  0.00    +0.002 C 
ATOM      9  C   UNL     1      -3.746  -2.142  23.764  0.00  0.00    +0.022 C 
ENDBRANCH   3   4
BRANCH  17  18
ATOM     18  C   UNL     1      -0.123   3.073  25.572  0.00  0.00    +0.120 C 
BRANCH  18  19
ATOM     19  C   UNL     1      -0.526   3.761  25.360  0.00  0.00    +0.001 A 
ATOM     20  C   UNL     1      -0.219   4.255  24.775  0.00  0.00    +0.001 A 
ATOM     21  C   UNL     1      -0.621   4.944  24.563  0.00  0.00    +0.040 A 
ATOM     22  C   UNL     1      -1.331   5.138  24.936  0.00  0.00    +0.176 A 
ATOM     23  O   UNL     1      -1.847   5.775  24.844  0.00  0.00    -0.435 OA
ATOM     24  C   UNL     1      -2.473   5.675  25.371  0.00  0.00    +0.429 C 
ATOM     25  O   UNL     1      -2.344   4.975  25.790  0.00  0.00    -0.435 OA
ATOM     26  C   UNL     1      -1.639   4.644  25.521  0.00  0.00    +0.176 A 
ATOM     27  C   UNL     1      -1.236   3.955  25.733  0.00  0.00    +0.038 A 
ENDBRANCH  18  19
ENDBRANCH  17  18
TORSDOF 3
ENDMDL
MODEL 7
REMARK VINA RESULT:      -8.8     14.557     17.109
REMARK  Name = 
REMARK  3 active torsions:
REMARK  status: ('A' for Active; 'I' for Inactive)
REMARK    1  A    between atoms: N_3  and  C_4
REMARK    2  A    between atoms: N_17  and  C_18
REMARK    3  A    between atoms: C_18  and  C_19
REMARK                            x       y       z     vdW  Elec       q    Type
REMARK                         _______ _______ _______ _____ _____    ______ ____
ROOT
ATOM      1  O   UNL     1      -5.590 -10.467  15.424  0.00  0.00    -0.251 OA
ATOM      2  C   UNL     1      -4.792 -10.479  15.632  0.00  0.00    +0.323 C 
ATOM      3  N   UNL     1      -4.573 -10.442  16.426  0.00  0.00    -0.190 NA
ATOM     10  N   UNL     1      -4.214 -10.529  15.046  0.00  0.00    -0.263 N 
ATOM     11  C   UNL     1      -3.416 -10.541  15.254  0.00  0.00    +0.095 C 
ATOM     12  C   UNL     1      -2.837 -10.590  14.669  0.00  0.00    +0.022 C 
ATOM     13  C   UNL     1      -3.057 -10.628  13.874  0.00  0.00    +0.012 C 
ATOM     14  C   UNL     1      -2.396 -10.674  13.381  0.00  0.00    +0.085 C 
ATOM     15  C   UNL     1      -2.372 -10.720  12.558  0.00  0.00    +0.226 C 
ATOM     16  O   UNL     1      -1.619 -10.761  12.224  0.00  0.00    -0.275 OA
ATOM     17  N   UNL     1      -3.001 -10.731  12.024  0.00  0.00    -0.275 N 
ATOM     28  C   UNL     1      -3.810 -10.699  12.182  0.00  0.00    +0.094 C 
ATOM     29  C   UNL     1      -4.190 -10.647  12.912  0.00  0.00    +0.023 C 
ATOM     30  C   UNL     1      -3.855 -10.615  13.665  0.00  0.00    +0.022 C 
ATOM     31  C   UNL     1      -4.433 -10.566  14.252  0.00  0.00    +0.095 C 
ENDROOT
BRANCH   3   4
ATOM      4  C   UNL     1      -5.152 -10.393  17.013  0.00  0.00    +0.097 C 
ATOM      5  C   UNL     1      -5.043 -10.781  17.732  0.00  0.00    +0.022 C 
ATOM      6  C   UNL     1      -5.620 -10.732  18.319  0.00  0.00    +0.002 C 
ATOM      7  C   UNL     1      -6.307 -10.295  18.186  0.00  0.00    +0.000 C 
ATOM      8  C   UNL     1      -6.416  -9.906  17.467  0.00  0.00    +0.002 C 
ATOM      9  C   UNL     1      -5.838  -9.956  16.880  0.00  0.00    +0.022 C 
ENDBRANCH   3   4
BRANCH  17  18
ATOM     18  C   UNL     1      -2.793 -10.781  11.227  0.00  0.00    +0.120 C 
BRANCH  18  19
ATOM     19  C   UNL     1      -3.118 -10.252  10.683  0.00  0.00    +0.001 A 
ATOM     20  C   UNL     1      -2.846  -9.474  10.653  0.00  0.00    +0.001 A 
ATOM     21  C   UNL     1      -3.169  -8.944  10.110  0.00  0.00    +0.040 A 
ATOM     22  C   UNL     1      -3.765  -9.194   9.596  0.00  0.00    +0.176 A 
ATOM     23  O   UNL     1      -4.186  -8.799   9.006  0.00  0.00    -0.435 OA
ATOM     24  C   UNL     1      -4.717  -9.334   8.671  0.00  0.00    +0.429 C 
ATOM     25  O   UNL     1      -4.625 -10.059   9.055  0.00  0.00    -0.435 OA
ATOM     26  C   UNL     1      -4.037  -9.972   9.626  0.00  0.00    +0.176 A 
ATOM     27  C   UNL     1      -3.713 -10.501  10.170  0.00  0.00    +0.038 A 
ENDBRANCH  18  19
ENDBRANCH  17  18
TORSDOF 3
ENDMDL
MODEL 8
REMARK VINA RESULT:      -8.8      3.178      4.748
REMARK  Name = 
REMARK  3 active torsions:
REMARK  status: ('A' for Active; 'I' for Inactive)
REMARK    1  A    between atoms: N_3  and  C_4
REMARK    2  A    between atoms: N_17  and  C_18
REMARK    3  A    between atoms: C_18  and  C_19
REMARK                            x       y       z     vdW  Elec       q    Type
REMARK                         _______ _______ _______ _____ _____    ______ ____
ROOT
ATOM      1  O   UNL     1       0.014   1.037  23.051  0.00  0.00    -0.251 OA
ATOM      2  C   UNL     1       0.325   1.417  23.714  0.00  0.00    +0.323 C 
ATOM      3  N   UNL     1       1.117   1.309  23.917  0.00  0.00    -0.190 NA
ATOM     10  N   UNL     1      -0.157   1.904  24.174  0.00  0.00    -0.263 N 
ATOM     11  C   UNL     1       0.155   2.284  24.836  0.00  0.00    +0.095 C 
ATOM     12  C   UNL     1      -0.326   2.772  25.297  0.00  0.00    +0.022 C 
ATOM     13  C   UNL     1      -1.119   2.880  25.093  0.00  0.00    +0.012 C 
ATOM     14  C   UNL     1      -1.499   3.386  25.623  0.00  0.00    +0.085 C 
ATOM     15  C   UNL     1      -2.285   3.636  25.620  0.00  0.00    +0.226 C 
ATOM     16  O   UNL     1      -2.500   4.147  26.230  0.00  0.00    -0.275 OA
ATOM     17  N   UNL     1      -2.884   3.443  25.087  0.00  0.00    -0.275 N 
ATOM     28  C   UNL     1      -2.846   2.951  24.426  0.00  0.00    +0.094 C 
ATOM     29  C   UNL     1      -2.199   2.532  24.133  0.00  0.00    +0.023 C 
ATOM     30  C   UNL     1      -1.430   2.500  24.430  0.00  0.00    +0.022 C 
ATOM     31  C   UNL     1      -0.948   2.012  23.971  0.00  0.00    +0.095 C 
ENDROOT
BRANCH   3   4
ATOM      4  C   UNL     1       1.599   0.821  23.457  0.00  0.00    +0.097 C 
ATOM      5  C   UNL     1       2.355   1.073  23.243  0.00  0.00    +0.022 C 
ATOM      6  C   UNL     1       2.837   0.586  22.784  0.00  0.00    +0.002 C 
ATOM      7  C   UNL     1       2.563  -0.153  22.538  0.00  0.00    +0.000 C 
ATOM      8  C   UNL     1       1.807  -0.404  22.752  0.00  0.00    +0.002 C 
ATOM      9  C   UNL     1       1.325   0.084  23.211  0.00  0.00    +0.022 C 
ENDBRANCH   3   4
BRANCH  17  18
ATOM     18  C   UNL     1      -3.620   3.786  25.235  0.00  0.00    +0.120 C 
BRANCH  18  19
ATOM     19  C   UNL     1      -4.301   3.322  25.224  0.00  0.00    +0.001 A 
ATOM     20  C   UNL     1      -4.602   3.048  24.507  0.00  0.00    +0.001 A 
ATOM     21  C   UNL     1      -5.283   2.583  24.494  0.00  0.00    +0.040 A 
ATOM     22  C   UNL     1      -5.665   2.392  25.201  0.00  0.00    +0.176 A 
ATOM     23  O   UNL     1      -6.341   1.948  25.361  0.00  0.00    -0.435 OA
ATOM     24  C   UNL     1      -6.459   1.947  26.177  0.00  0.00    +0.429 C 
ATOM     25  O   UNL     1      -5.855   2.392  26.522  0.00  0.00    -0.435 OA
ATOM     26  C   UNL     1      -5.364   2.666  25.919  0.00  0.00    +0.176 A 
ATOM     27  C   UNL     1      -4.683   3.131  25.930  0.00  0.00    +0.038 A 
ENDBRANCH  18  19
ENDBRANCH  17  18
TORSDOF 3
ENDMDL
MODEL 9
REMARK VINA RESULT:      -8.2      4.972      6.642
REMARK  Name = 
REMARK  3 active torsions:
REMARK  status: ('A' for Active; 'I' for Inactive)
REMARK    1  A    between atoms: N_3  and  C_4
REMARK    2  A    between atoms: N_17  and  C_18
REMARK    3  A    between atoms: C_18  and  C_19
REMARK                            x       y       z     vdW  Elec       q    Type
REMARK                         _______ _______ _______ _____ _____    ______ ____
ROOT
ATOM      1  O   UNL     1      -0.517   3.152  24.832  0.00  0.00    -0.251 OA
ATOM      2  C   UNL     1      -0.912   2.440  24.703  0.00  0.00    +0.323 C 
ATOM      3  N   UNL     1      -1.690   2.347  24.960  0.00  0.00    -0.190 NA
ATOM     10  N   UNL     1      -0.529   1.820  24.316  0.00  0.00    -0.263 N 
ATOM     11  C   UNL     1      -0.924   1.107  24.187  0.00  0.00    +0.095 C 
ATOM     12  C   UNL     1      -0.542   0.487  23.800  0.00  0.00    +0.022 C 
ATOM     13  C   UNL     1       0.237   0.580  23.542  0.00  0.00    +0.012 C 
ATOM     14  C   UNL     1       0.514  -0.103  23.170  0.00  0.00    +0.085 C 
ATOM     15  C   UNL     1       1.255  -0.241  22.836  0.00  0.00    +0.226 C 
ATOM     16  O   UNL     1       1.364  -0.988  22.504  0.00  0.00    -0.275 OA
ATOM     17  N   UNL     1       1.902   0.269  22.791  0.00  0.00    -0.275 N 
ATOM     28  C   UNL     1       1.968   1.042  23.069  0.00  0.00    +0.094 C 
ATOM     29  C   UNL     1       1.402   1.498  23.460  0.00  0.00    +0.023 C 
ATOM     30  C   UNL     1       0.632   1.292  23.671  0.00  0.00    +0.022 C 
ATOM     31  C   UNL     1       0.249   1.912  24.058  0.00  0.00    +0.095 C 
ENDROOT
BRANCH   3   4
ATOM      4  C   UNL     1      -2.074   2.967  25.347  0.00  0.00    +0.097 C 
ATOM      5  C   UNL     1      -1.833   3.192  26.104  0.00  0.00    +0.022 C 
ATOM      6  C   UNL     1      -2.216   3.811  26.492  0.00  0.00    +0.002 C 
ATOM      7  C   UNL     1      -2.840   4.206  26.122  0.00  0.00    +0.000 C 
ATOM      8  C   UNL     1      -3.080   3.981  25.366  0.00  0.00    +0.002 C 
ATOM      9  C   UNL     1      -2.696   3.362  24.979  0.00  0.00    +0.022 C 
ENDBRANCH   3   4
BRANCH  17  18
ATOM     18  C   UNL     1       2.573  -0.036  22.419  0.00  0.00    +0.120 C 
BRANCH  18  19
ATOM     19  C   UNL     1       3.321   0.109  22.735  0.00  0.00    +0.001 A 
ATOM     20  C   UNL     1       3.705   0.822  22.574  0.00  0.00    +0.001 A 
ATOM     21  C   UNL     1       4.453   0.968  22.890  0.00  0.00    +0.040 A 
ATOM     22  C   UNL     1       4.818   0.401  23.366  0.00  0.00    +0.176 A 
ATOM     23  O   UNL     1       5.547   0.390  23.750  0.00  0.00    -0.435 OA
ATOM     24  C   UNL     1       5.614  -0.329  24.148  0.00  0.00    +0.429 C 
ATOM     25  O   UNL     1       4.926  -0.763  24.010  0.00  0.00    -0.435 OA
ATOM     26  C   UNL     1       4.434  -0.312  23.526  0.00  0.00    +0.176 A 
ATOM     27  C   UNL     1       3.686  -0.457  23.210  0.00  0.00    +0.038 A 
ENDBRANCH  18  19
ENDBRANCH  17  18
TORSDOF 3
ENDMDL
MODEL 10
REMARK VINA RESULT:      -8.0     14.143     15.055
REMARK  Name = 
REMARK  3 active torsions:
REMARK  status: ('A' for Active; 'I' for Inactive)
REMARK    1  A    between atoms: N_3  and  C_4
REMARK    2  A    between atoms: N_17  and  C_18
REMARK    3  A    between atoms: C_18  and  C_19
REMARK                            x       y       z     vdW  Elec       q    Type
REMARK                         _______ _______ _______ _____ _____    ______ ____
ROOT
ATOM      1  O   UNL     1      -4.092 -10.108  15.389  0.00  0.00    -0.251 OA
ATOM      2  C   UNL     1      -4.048 -10.386  16.165  0.00  0.00    +0.323 C 
ATOM      3  N   UNL     1      -3.325 -10.633  16.474  0.00  0.00    -0.190 NA
ATOM     10  N   UNL     1      -4.729 -10.416  16.630  0.00  0.00    -0.263 N 
ATOM     11  C   UNL     1      -4.685 -10.694  17.406  0.00  0.00    +0.095 C 
ATOM     12  C   UNL     1      -5.364 -10.725  17.873  0.00  0.00    +0.022 C 
ATOM     13  C   UNL     1      -6.089 -10.478  17.563  0.00  0.00    +0.012 C 
ATOM     14  C   UNL     1      -6.695 -10.554  18.118  0.00  0.00    +0.085 C 
ATOM     15  C   UNL     1      -7.494 -10.370  18.033  0.00  0.00    +0.226 C 
ATOM     16  O   UNL     1      -7.965 -10.509  18.696  0.00  0.00    -0.275 OA
ATOM     17  N   UNL     1      -7.886 -10.066  17.374  0.00  0.00    -0.275 N 
ATOM     28  C   UNL     1      -7.573  -9.870  16.636  0.00  0.00    +0.094 C 
ATOM     29  C   UNL     1      -6.793  -9.929  16.375  0.00  0.00    +0.023 C 
ATOM     30  C   UNL     1      -6.132 -10.200  16.787  0.00  0.00    +0.022 C 
ATOM     31  C   UNL     1      -5.452 -10.170  16.321  0.00  0.00    +0.095 C 
ENDROOT
BRANCH   3   4
ATOM      4  C   UNL     1      -2.644 -10.602  16.008  0.00  0.00    +0.097 C 
ATOM      5  C   UNL     1      -2.687 -10.781  15.203  0.00  0.00    +0.022 C 
ATOM      6  C   UNL     1      -2.008 -10.751  14.737  0.00  0.00    +0.002 C 
ATOM      7  C   UNL     1      -1.284 -10.542  15.075  0.00  0.00    +0.000 C 
ATOM      8  C   UNL     1      -1.241 -10.362  15.879  0.00  0.00    +0.002 C 
ATOM      9  C   UNL     1      -1.922 -10.393  16.345  0.00  0.00    +0.022 C 
ENDBRANCH   3   4
BRANCH  17  18
ATOM     18  C   UNL     1      -8.696  -9.941  17.465  0.00  0.00    +0.120 C 
BRANCH  18  19
ATOM     19  C   UNL     1      -9.056  -9.294  17.101  0.00  0.00    +0.001 A 
ATOM     20  C   UNL     1      -9.028  -8.551  17.459  0.00  0.00    +0.001 A 
ATOM     21  C   UNL     1      -9.388  -7.904  17.097  0.00  0.00    +0.040 A 
ATOM     22  C   UNL     1      -9.777  -7.999  16.374  0.00  0.00    +0.176 A 
ATOM     23  O   UNL     1     -10.179  -7.467  15.890  0.00  0.00    -0.435 OA
ATOM     24  C   UNL     1     -10.455  -7.880  15.232  0.00  0.00    +0.429 C 
ATOM     25  O   UNL     1     -10.224  -8.668  15.310  0.00  0.00    -0.435 OA
ATOM     26  C   UNL     1      -9.805  -8.742  16.016  0.00  0.00    +0.176 A 
ATOM     27  C   UNL     1      -9.444  -9.389  16.380  0.00  0.00    +0.038 A 
ENDBRANCH  18  19
ENDBRANCH  17  18
TORSDOF 3
ENDMDL
