MODEL 1
REMARK VINA RESULT:     -12.8      0.000      0.000
REMARK  Name = 
REMARK  3 active torsions:
REMARK  status: ('A' for Active; 'I' for Inactive)
REMARK    1  A    between atoms: C_5  and  C_6
REMARK    2  A    between atoms: C_6  and  N_7
REMARK    3  A    between atoms: C_10  and  C_12
REMARK                            x       y       z     vdW  Elec       q    Type
REMARK                         _______ _______ _______ _____ _____    ______ ____
ROOT
ATOM      7  N   UNL     1      -4.516   2.343  24.805  0.00  0.00    -0.268 NA
ATOM      8  C   UNL     1      -5.146   2.127  25.292  0.00  0.00    +0.073 C 
ATOM      9  C   UNL     1      -5.153   1.303  25.350  0.00  0.00    +0.028 C 
ATOM     10  C   UNL     1      -4.527   1.011  24.898  0.00  0.00    +0.094 C 
ATOM     11  C   UNL     1      -4.134   1.653  24.561  0.00  0.00    +0.082 C 
ENDROOT
BRANCH  10  12
ATOM     12  C   UNL     1      -4.329   0.216  24.800  0.00  0.00    +0.207 A 
ATOM     13  N   UNL     1      -3.904  -0.247  25.334  0.00  0.00    -0.212 NA
ATOM     14  C   UNL     1      -3.835  -1.005  25.015  0.00  0.00    +0.119 A 
ATOM     15  C   UNL     1      -4.218  -1.010  24.285  0.00  0.00    +0.164 A 
ATOM     16  O   UNL     1      -4.523  -0.256  24.151  0.00  0.00    -0.438 OA
ATOM     17  C   UNL     1      -4.238  -1.702  23.835  0.00  0.00    +0.040 A 
ATOM     18  C   UNL     1      -3.876  -2.387  24.116  0.00  0.00    +0.015 A 
ATOM     19  C   UNL     1      -3.493  -2.382  24.847  0.00  0.00    +0.059 A 
ATOM     20 CL   UNL     1      -3.131  -3.067  25.128  0.00  0.00    -0.082 Cl
ATOM     21  C   UNL     1      -3.472  -1.691  25.297  0.00  0.00    +0.034 A 
ENDBRANCH  10  12
BRANCH   7   6
ATOM      6  C   UNL     1      -4.305   3.113  24.597  0.00  0.00    +0.099 C 
BRANCH   6   5
ATOM      1  F   UNL     1      -1.681   4.541  25.998  0.00  0.00    -0.204 F 
ATOM      2  C   UNL     1      -2.338   4.184  25.648  0.00  0.00    +0.140 A 
ATOM      3  C   UNL     1      -2.271   3.843  24.900  0.00  0.00    +0.029 A 
ATOM      4  C   UNL     1      -2.927   3.485  24.550  0.00  0.00    -0.001 A 
ATOM      5  C   UNL     1      -3.650   3.470  24.948  0.00  0.00    -0.006 A 
ATOM     22  C   UNL     1      -3.716   3.811  25.696  0.00  0.00    -0.001 A 
ATOM     23  C   UNL     1      -3.060   4.169  26.046  0.00  0.00    +0.029 A 
ENDBRANCH   6   5
ENDBRANCH   7   6
TORSDOF 3
ENDMDL
MODEL 2
REMARK VINA RESULT:     -12.5      2.699      5.190
REMARK  Name = 
REMARK  3 active torsions:
REMARK  status: ('A' for Active; 'I' for Inactive)
REMARK    1  A    between atoms: C_5  and  C_6
REMARK    2  A    between atoms: C_6  and  N_7
REMARK    3  A    between atoms: C_10  and  C_12
REMARK                            x       y       z     vdW  Elec       q    Type
REMARK                         _______ _______ _______ _____ _____    ______ ____
ROOT
ATOM      7  N   UNL     1      -3.893   0.540  24.390  0.00  0.00    -0.268 NA
ATOM      8  C   UNL     1      -3.598   0.617  23.623  0.00  0.00    +0.073 C 
ATOM      9  C   UNL     1      -3.148   1.308  23.591  0.00  0.00    +0.028 C 
ATOM     10  C   UNL     1      -3.164   1.658  24.339  0.00  0.00    +0.094 C 
ATOM     11  C   UNL     1      -3.625   1.184  24.832  0.00  0.00    +0.082 C 
ENDROOT
BRANCH  10  12
ATOM     12  C   UNL     1      -2.787   2.359  24.554  0.00  0.00    +0.207 A 
ATOM     13  N   UNL     1      -2.027   2.590  24.330  0.00  0.00    -0.212 NA
ATOM     14  C   UNL     1      -1.874   3.326  24.669  0.00  0.00    +0.119 A 
ATOM     15  C   UNL     1      -2.539   3.550  25.103  0.00  0.00    +0.164 A 
ATOM     16  O   UNL     1      -3.104   2.953  25.032  0.00  0.00    -0.438 OA
ATOM     17  C   UNL     1      -2.544   4.270  25.506  0.00  0.00    +0.040 A 
ATOM     18  C   UNL     1      -1.885   4.765  25.476  0.00  0.00    +0.015 A 
ATOM     19  C   UNL     1      -1.220   4.540  25.043  0.00  0.00    +0.059 A 
ATOM     20 CL   UNL     1      -0.561   5.035  25.012  0.00  0.00    -0.082 Cl
ATOM     21  C   UNL     1      -1.214   3.821  24.639  0.00  0.00    +0.034 A 
ENDBRANCH  10  12
BRANCH   7   6
ATOM      6  C   UNL     1      -4.371  -0.072  24.666  0.00  0.00    +0.099 C 
BRANCH   6   5
ATOM      1  F   UNL     1      -3.132  -3.111  25.010  0.00  0.00    -0.204 F 
ATOM      2  C   UNL     1      -3.442  -2.351  24.924  0.00  0.00    +0.140 A 
ATOM      3  C   UNL     1      -3.847  -2.146  24.235  0.00  0.00    +0.029 A 
ATOM      4  C   UNL     1      -4.157  -1.387  24.149  0.00  0.00    -0.001 A 
ATOM      5  C   UNL     1      -4.061  -0.832  24.752  0.00  0.00    -0.006 A 
ATOM     22  C   UNL     1      -3.656  -1.036  25.441  0.00  0.00    -0.001 A 
ATOM     23  C   UNL     1      -3.346  -1.796  25.527  0.00  0.00    +0.029 A 
ENDBRANCH   6   5
ENDBRANCH   7   6
TORSDOF 3
ENDMDL
MODEL 3
REMARK VINA RESULT:     -12.2      1.831      2.326
REMARK  Name = 
REMARK  3 active torsions:
REMARK  status: ('A' for Active; 'I' for Inactive)
REMARK    1  A    between atoms: C_5  and  C_6
REMARK    2  A    between atoms: C_6  and  N_7
REMARK    3  A    between atoms: C_10  and  C_12
REMARK                            x       y       z     vdW  Elec       q    Type
REMARK                         _______ _______ _______ _____ _____    ______ ____
ROOT
ATOM      7  N   UNL     1      -1.009   1.869  25.271  0.00  0.00    -0.268 NA
ATOM      8  C   UNL     1      -0.588   1.637  24.600  0.00  0.00    +0.073 C 
ATOM      9  C   UNL     1      -0.970   0.982  24.273  0.00  0.00    +0.028 C 
ATOM     10  C   UNL     1      -1.627   0.810  24.742  0.00  0.00    +0.094 C 
ATOM     11  C   UNL     1      -1.651   1.358  25.358  0.00  0.00    +0.082 C 
ENDROOT
BRANCH  10  12
ATOM     12  C   UNL     1      -2.165   0.197  24.616  0.00  0.00    +0.207 A 
ATOM     13  N   UNL     1      -2.030  -0.604  24.761  0.00  0.00    -0.212 NA
ATOM     14  C   UNL     1      -2.714  -1.018  24.558  0.00  0.00    +0.119 A 
ATOM     15  C   UNL     1      -3.271  -0.473  24.287  0.00  0.00    +0.164 A 
ATOM     16  O   UNL     1      -2.932   0.278  24.323  0.00  0.00    -0.438 OA
ATOM     17  C   UNL     1      -4.016  -0.732  24.043  0.00  0.00    +0.040 A 
ATOM     18  C   UNL     1      -4.203  -1.534  24.070  0.00  0.00    +0.015 A 
ATOM     19  C   UNL     1      -3.645  -2.079  24.340  0.00  0.00    +0.059 A 
ATOM     20 CL   UNL     1      -3.832  -2.882  24.367  0.00  0.00    -0.082 Cl
ATOM     21  C   UNL     1      -2.901  -1.821  24.584  0.00  0.00    +0.034 A 
ENDBRANCH  10  12
BRANCH   7   6
ATOM      6  C   UNL     1      -0.822   2.501  25.767  0.00  0.00    +0.099 C 
BRANCH   6   5
ATOM      1  F   UNL     1      -1.793   5.557  24.986  0.00  0.00    -0.204 F 
ATOM      2  C   UNL     1      -1.550   4.792  25.182  0.00  0.00    +0.140 A 
ATOM      3  C   UNL     1      -0.820   4.512  24.920  0.00  0.00    +0.029 A 
ATOM      4  C   UNL     1      -0.577   3.748  25.115  0.00  0.00    -0.001 A 
ATOM      5  C   UNL     1      -1.065   3.265  25.572  0.00  0.00    -0.006 A 
ATOM     22  C   UNL     1      -1.795   3.544  25.833  0.00  0.00    -0.001 A 
ATOM     23  C   UNL     1      -2.038   4.309  25.638  0.00  0.00    +0.029 A 
ENDBRANCH   6   5
ENDBRANCH   7   6
TORSDOF 3
ENDMDL
