MODEL 1
REMARK VINA RESULT:      -8.1      0.000      0.000
REMARK  Name = 
REMARK  4 active torsions:
REMARK  status: ('A' for Active; 'I' for Inactive)
REMARK    1  A    between atoms: O_2  and  C_3
REMARK    2  A    between atoms: C_3  and  C_4
REMARK    3  A    between atoms: C_4  and  N_5
REMARK    4  A    between atoms: N_9  and  C_15
REMARK                            x       y       z     vdW  Elec       q    Type
REMARK                         _______ _______ _______ _____ _____    ______ ____
ROOT
ATOM      5  N   UNL     1      -3.378   3.142  25.043  0.00  0.00    -0.260 N 
ATOM      6  C   UNL     1      -2.970   2.441  24.887  0.00  0.00    +0.116 C 
ATOM      7  C   UNL     1      -3.518   1.826  24.875  0.00  0.00    +0.113 C 
ATOM      8  C   UNL     1      -3.436   1.014  24.748  0.00  0.00    +0.094 C 
ATOM      9  N   UNL     1      -4.097   0.523  24.771  0.00  0.00    -0.271 NA
ATOM     10  C   UNL     1      -4.843   0.843  24.920  0.00  0.00    +0.094 C 
ATOM     11  C   UNL     1      -4.927   1.653  25.047  0.00  0.00    +0.112 C 
ATOM     12  N   UNL     1      -4.264   2.145  25.025  0.00  0.00    -0.261 N 
ATOM     13  C   UNL     1      -4.177   2.958  25.128  0.00  0.00    +0.307 C 
ATOM     14  O   UNL     1      -4.783   3.495  25.289  0.00  0.00    -0.252 OA
ENDROOT
BRANCH   9  15
ATOM     15  C   UNL     1      -4.015  -0.288  24.644  0.00  0.00    +0.058 C 
ATOM     16  C   UNL     1      -4.150  -0.795  24.007  0.00  0.00    +0.016 C 
ATOM     17  C   UNL     1      -3.898  -1.434  24.464  0.00  0.00    +0.003 C 
ATOM     18  C   UNL     1      -3.763  -0.928  25.099  0.00  0.00    +0.016 C 
ENDBRANCH   9  15
BRANCH   5   4
ATOM      4  C   UNL     1      -3.043   3.894  25.104  0.00  0.00    +0.127 C 
BRANCH   4   3
ATOM      3  C   UNL     1      -2.224   3.979  25.148  0.00  0.00    +0.164 C 
BRANCH   3   2
ATOM      1  C   UNL     1      -1.175   4.945  25.054  0.00  0.00    +0.174 C 
ATOM      2  O   UNL     1      -1.896   4.702  25.374  0.00  0.00    -0.349 OA
ENDBRANCH   3   2
ENDBRANCH   4   3
ENDBRANCH   5   4
TORSDOF 4
ENDMDL
MODEL 2
REMARK VINA RESULT:      -7.9      1.234      4.072
REMARK  Name = 
REMARK  4 active torsions:
REMARK  status: ('A' for Active; 'I' for Inactive)
REMARK    1  A    between atoms: O_2  and  C_3
REMARK    2  A    between atoms: C_3  and  C_4
REMARK    3  A    between atoms: C_4  and  N_5
REMARK    4  A    between atoms: N_9  and  C_15
REMARK                            x       y       z     vdW  Elec       q    Type
REMARK                         _______ _______ _______ _____ _____    ______ ____
ROOT
ATOM      5  N   UNL     1      -4.146   1.258  24.814  0.00  0.00    -0.260 N 
ATOM      6  C   UNL     1      -3.348   1.438  24.702  0.00  0.00    +0.116 C 
ATOM      7  C   UNL     1      -3.236   2.230  24.901  0.00  0.00    +0.113 C 
ATOM      8  C   UNL     1      -2.566   2.711  24.899  0.00  0.00    +0.094 C 
ATOM      9  N   UNL     1      -2.623   3.500  25.131  0.00  0.00    -0.271 NA
ATOM     10  C   UNL     1      -3.351   3.809  25.366  0.00  0.00    +0.094 C 
ATOM     11  C   UNL     1      -4.022   3.330  25.368  0.00  0.00    +0.112 C 
ATOM     12  N   UNL     1      -3.964   2.540  25.136  0.00  0.00    -0.261 N 
ATOM     13  C   UNL     1      -4.526   1.938  25.082  0.00  0.00    +0.307 C 
ATOM     14  O   UNL     1      -5.328   2.006  25.264  0.00  0.00    -0.252 OA
ENDROOT
BRANCH   9  15
ATOM     15  C   UNL     1      -1.952   3.981  25.129  0.00  0.00    +0.058 C 
ATOM     16  C   UNL     1      -1.818   4.794  25.175  0.00  0.00    +0.016 C 
ATOM     17  C   UNL     1      -1.005   4.662  25.127  0.00  0.00    +0.003 C 
ATOM     18  C   UNL     1      -1.139   3.850  25.081  0.00  0.00    +0.016 C 
ENDBRANCH   9  15
BRANCH   5   4
ATOM      4  C   UNL     1      -4.500   0.524  24.681  0.00  0.00    +0.127 C 
BRANCH   4   3
ATOM      3  C   UNL     1      -4.042  -0.117  24.436  0.00  0.00    +0.164 C 
BRANCH   3   2
ATOM      1  C   UNL     1      -3.961  -1.517  24.165  0.00  0.00    +0.174 C 
ATOM      2  O   UNL     1      -4.406  -0.824  24.218  0.00  0.00    -0.349 OA
ENDBRANCH   3   2
ENDBRANCH   4   3
ENDBRANCH   5   4
TORSDOF 4
ENDMDL
MODEL 3
REMARK VINA RESULT:      -7.8      1.446      2.298
REMARK  Name = 
REMARK  4 active torsions:
REMARK  status: ('A' for Active; 'I' for Inactive)
REMARK    1  A    between atoms: O_2  and  C_3
REMARK    2  A    between atoms: C_3  and  C_4
REMARK    3  A    between atoms: C_4  and  N_5
REMARK    4  A    between atoms: N_9  and  C_15
REMARK                            x       y       z     vdW  Elec       q    Type
REMARK                         _______ _______ _______ _____ _____    ______ ____
ROOT
ATOM      5  N   UNL     1      -3.657   1.778  24.723  0.00  0.00    -0.260 N 
ATOM      6  C   UNL     1      -4.168   1.135  24.643  0.00  0.00    +0.116 C 
ATOM      7  C   UNL     1      -3.713   0.448  24.623  0.00  0.00    +0.113 C 
ATOM      8  C   UNL     1      -3.917  -0.348  24.552  0.00  0.00    +0.094 C 
ATOM      9  N   UNL     1      -3.329  -0.926  24.549  0.00  0.00    -0.271 NA
ATOM     10  C   UNL     1      -2.536  -0.709  24.617  0.00  0.00    +0.094 C 
ATOM     11  C   UNL     1      -2.331   0.087  24.688  0.00  0.00    +0.112 C 
ATOM     12  N   UNL     1      -2.920   0.666  24.691  0.00  0.00    -0.261 N 
ATOM     13  C   UNL     1      -2.885   1.487  24.753  0.00  0.00    +0.307 C 
ATOM     14  O   UNL     1      -2.199   1.940  24.832  0.00  0.00    -0.252 OA
ENDROOT
BRANCH   9  15
ATOM     15  C   UNL     1      -3.533  -1.723  24.477  0.00  0.00    +0.058 C 
ATOM     16  C   UNL     1      -3.991  -2.162  23.950  0.00  0.00    +0.016 C 
ATOM     17  C   UNL     1      -3.822  -2.848  24.376  0.00  0.00    +0.003 C 
ATOM     18  C   UNL     1      -3.365  -2.409  24.902  0.00  0.00    +0.016 C 
ENDBRANCH   9  15
BRANCH   5   4
ATOM      4  C   UNL     1      -3.878   2.571  24.766  0.00  0.00    +0.127 C 
BRANCH   4   3
ATOM      3  C   UNL     1      -4.619   2.778  25.065  0.00  0.00    +0.164 C 
BRANCH   3   2
ATOM      1  C   UNL     1      -5.466   3.800  25.593  0.00  0.00    +0.174 C 
ATOM      2  O   UNL     1      -4.842   3.571  25.103  0.00  0.00    -0.349 OA
ENDBRANCH   3   2
ENDBRANCH   4   3
ENDBRANCH   5   4
TORSDOF 4
ENDMDL
MODEL 4
REMARK VINA RESULT:      -6.6     16.571     19.050
REMARK  Name = 
REMARK  4 active torsions:
REMARK  status: ('A' for Active; 'I' for Inactive)
REMARK    1  A    between atoms: O_2  and  C_3
REMARK    2  A    between atoms: C_3  and  C_4
REMARK    3  A    between atoms: C_4  and  N_5
REMARK    4  A    between atoms: N_9  and  C_15
REMARK                            x       y       z     vdW  Elec       q    Type
REMARK                         _______ _______ _______ _____ _____    ______ ____
ROOT
ATOM      5  N   UNL     1      12.538   6.938  20.142  0.00  0.00    -0.260 N 
ATOM      6  C   UNL     1      13.230   6.756  20.554  0.00  0.00    +0.116 C 
ATOM      7  C   UNL     1      13.864   6.832  20.032  0.00  0.00    +0.113 C 
ATOM      8  C   UNL     1      14.676   6.723  20.130  0.00  0.00    +0.094 C 
ATOM      9  N   UNL     1      15.189   6.843  19.495  0.00  0.00    -0.271 NA
ATOM     10  C   UNL     1      14.889   7.073  18.762  0.00  0.00    +0.094 C 
ATOM     11  C   UNL     1      14.078   7.183  18.663  0.00  0.00    +0.112 C 
ATOM     12  N   UNL     1      13.565   7.062  19.299  0.00  0.00    -0.261 N 
ATOM     13  C   UNL     1      12.746   7.128  19.366  0.00  0.00    +0.307 C 
ATOM     14  O   UNL     1      12.225   7.345  18.764  0.00  0.00    -0.252 OA
ENDROOT
BRANCH   9  15
ATOM     15  C   UNL     1      16.001   6.733  19.593  0.00  0.00    +0.058 C 
ATOM     16  C   UNL     1      16.554   6.194  19.305  0.00  0.00    +0.016 C 
ATOM     17  C   UNL     1      17.148   6.577  19.731  0.00  0.00    +0.003 C 
ATOM     18  C   UNL     1      16.595   7.116  20.019  0.00  0.00    +0.016 C 
ENDBRANCH   9  15
BRANCH   5   4
ATOM      4  C   UNL     1      11.774   6.933  20.452  0.00  0.00    +0.127 C 
BRANCH   4   3
ATOM      3  C   UNL     1      11.659   6.924  21.268  0.00  0.00    +0.164 C 
BRANCH   3   2
ATOM      1  C   UNL     1      10.549   7.323  22.075  0.00  0.00    +0.174 C 
ATOM      2  O   UNL     1      10.911   6.771  21.579  0.00  0.00    -0.349 OA
ENDBRANCH   3   2
ENDBRANCH   4   3
ENDBRANCH   5   4
TORSDOF 4
ENDMDL
MODEL 5
REMARK VINA RESULT:      -6.5     18.153     19.607
REMARK  Name = 
REMARK  4 active torsions:
REMARK  status: ('A' for Active; 'I' for Inactive)
REMARK    1  A    between atoms: O_2  and  C_3
REMARK    2  A    between atoms: C_3  and  C_4
REMARK    3  A    between atoms: C_4  and  N_5
REMARK    4  A    between atoms: N_9  and  C_15
REMARK                            x       y       z     vdW  Elec       q    Type
REMARK                         _______ _______ _______ _____ _____    ______ ____
ROOT
ATOM      5  N   UNL     1      12.931   7.378  18.850  0.00  0.00    -0.260 N 
ATOM      6  C   UNL     1      13.674   7.359  18.492  0.00  0.00    +0.116 C 
ATOM      7  C   UNL     1      14.219   7.091  19.050  0.00  0.00    +0.113 C 
ATOM      8  C   UNL     1      15.033   6.961  19.009  0.00  0.00    +0.094 C 
ATOM      9  N   UNL     1      15.441   6.686  19.671  0.00  0.00    -0.271 NA
ATOM     10  C   UNL     1      15.035   6.540  20.374  0.00  0.00    +0.094 C 
ATOM     11  C   UNL     1      14.221   6.670  20.416  0.00  0.00    +0.112 C 
ATOM     12  N   UNL     1      13.813   6.945  19.753  0.00  0.00    -0.261 N 
ATOM     13  C   UNL     1      13.017   7.123  19.630  0.00  0.00    +0.307 C 
ATOM     14  O   UNL     1      12.413   7.056  20.188  0.00  0.00    -0.252 OA
ENDROOT
BRANCH   9  15
ATOM     15  C   UNL     1      16.254   6.556  19.630  0.00  0.00    +0.058 C 
ATOM     16  C   UNL     1      16.919   6.916  19.962  0.00  0.00    +0.016 C 
ATOM     17  C   UNL     1      17.405   6.374  19.574  0.00  0.00    +0.003 C 
ATOM     18  C   UNL     1      16.741   6.015  19.242  0.00  0.00    +0.016 C 
ENDBRANCH   9  15
BRANCH   5   4
ATOM      4  C   UNL     1      12.226   7.612  18.492  0.00  0.00    +0.127 C 
BRANCH   4   3
ATOM      3  C   UNL     1      12.231   7.902  17.720  0.00  0.00    +0.164 C 
BRANCH   3   2
ATOM      1  C   UNL     1      11.320   8.609  16.876  0.00  0.00    +0.174 C 
ATOM      2  O   UNL     1      11.533   7.922  17.281  0.00  0.00    -0.349 OA
ENDBRANCH   3   2
ENDBRANCH   4   3
ENDBRANCH   5   4
TORSDOF 4
ENDMDL
MODEL 6
REMARK VINA RESULT:      -6.4     16.509     18.567
REMARK  Name = 
REMARK  4 active torsions:
REMARK  status: ('A' for Active; 'I' for Inactive)
REMARK    1  A    between atoms: O_2  and  C_3
REMARK    2  A    between atoms: C_3  and  C_4
REMARK    3  A    between atoms: C_4  and  N_5
REMARK    4  A    between atoms: N_9  and  C_15
REMARK                            x       y       z     vdW  Elec       q    Type
REMARK                         _______ _______ _______ _____ _____    ______ ____
ROOT
ATOM      5  N   UNL     1      13.790   7.477  18.326  0.00  0.00    -0.260 N 
ATOM      6  C   UNL     1      12.986   7.460  18.512  0.00  0.00    +0.116 C 
ATOM      7  C   UNL     1      12.914   7.253  19.307  0.00  0.00    +0.113 C 
ATOM      8  C   UNL     1      12.255   7.152  19.794  0.00  0.00    +0.094 C 
ATOM      9  N   UNL     1      12.355   6.939  20.584  0.00  0.00    -0.271 NA
ATOM     10  C   UNL     1      13.113   6.827  20.889  0.00  0.00    +0.094 C 
ATOM     11  C   UNL     1      13.772   6.928  20.403  0.00  0.00    +0.112 C 
ATOM     12  N   UNL     1      13.672   7.142  19.612  0.00  0.00    -0.261 N 
ATOM     13  C   UNL     1      14.214   7.280  19.005  0.00  0.00    +0.307 C 
ATOM     14  O   UNL     1      15.035   7.230  19.067  0.00  0.00    -0.252 OA
ENDROOT
BRANCH   9  15
ATOM     15  C   UNL     1      11.696   6.837  21.071  0.00  0.00    +0.058 C 
ATOM     16  C   UNL     1      11.354   6.196  21.462  0.00  0.00    +0.016 C 
ATOM     17  C   UNL     1      10.766   6.693  21.759  0.00  0.00    +0.003 C 
ATOM     18  C   UNL     1      11.107   7.333  21.368  0.00  0.00    +0.016 C 
ENDBRANCH   9  15
BRANCH   5   4
ATOM      4  C   UNL     1      14.113   7.658  17.588  0.00  0.00    +0.127 C 
BRANCH   4   3
ATOM      3  C   UNL     1      13.663   8.065  17.029  0.00  0.00    +0.164 C 
BRANCH   3   2
ATOM      1  C   UNL     1      13.859   8.788  15.813  0.00  0.00    +0.174 C 
ATOM      2  O   UNL     1      13.903   8.083  16.240  0.00  0.00    -0.349 OA
ENDBRANCH   3   2
ENDBRANCH   4   3
ENDBRANCH   5   4
TORSDOF 4
ENDMDL
MODEL 7
REMARK VINA RESULT:      -6.4     16.625     18.966
REMARK  Name = 
REMARK  4 active torsions:
REMARK  status: ('A' for Active; 'I' for Inactive)
REMARK    1  A    between atoms: O_2  and  C_3
REMARK    2  A    between atoms: C_3  and  C_4
REMARK    3  A    between atoms: C_4  and  N_5
REMARK    4  A    between atoms: N_9  and  C_15
REMARK                            x       y       z     vdW  Elec       q    Type
REMARK                         _______ _______ _______ _____ _____    ______ ____
ROOT
ATOM      5  N   UNL     1      14.925   7.023  19.349  0.00  0.00    -0.260 N 
ATOM      6  C   UNL     1      14.595   6.825  20.079  0.00  0.00    +0.116 C 
ATOM      7  C   UNL     1      13.780   6.941  20.029  0.00  0.00    +0.113 C 
ATOM      8  C   UNL     1      13.173   6.836  20.577  0.00  0.00    +0.094 C 
ATOM      9  N   UNL     1      12.393   7.000  20.366  0.00  0.00    -0.271 NA
ATOM     10  C   UNL     1      12.219   7.270  19.606  0.00  0.00    +0.094 C 
ATOM     11  C   UNL     1      12.826   7.375  19.057  0.00  0.00    +0.112 C 
ATOM     12  N   UNL     1      13.607   7.210  19.269  0.00  0.00    -0.261 N 
ATOM     13  C   UNL     1      14.314   7.261  18.849  0.00  0.00    +0.307 C 
ATOM     14  O   UNL     1      14.397   7.507  18.065  0.00  0.00    -0.252 OA
ENDROOT
BRANCH   9  15
ATOM     15  C   UNL     1      11.785   6.895  20.915  0.00  0.00    +0.058 C 
ATOM     16  C   UNL     1      11.457   6.245  21.303  0.00  0.00    +0.016 C 
ATOM     17  C   UNL     1      10.927   6.746  21.690  0.00  0.00    +0.003 C 
ATOM     18  C   UNL     1      11.255   7.394  21.302  0.00  0.00    +0.016 C 
ENDBRANCH   9  15
BRANCH   5   4
ATOM      4  C   UNL     1      15.726   6.989  19.154  0.00  0.00    +0.127 C 
BRANCH   4   3
ATOM      3  C   UNL     1      16.186   6.352  19.406  0.00  0.00    +0.164 C 
BRANCH   3   2
ATOM      1  C   UNL     1      17.405   5.727  19.001  0.00  0.00    +0.174 C 
ATOM      2  O   UNL     1      17.006   6.375  19.320  0.00  0.00    -0.349 OA
ENDBRANCH   3   2
ENDBRANCH   4   3
ENDBRANCH   5   4
TORSDOF 4
ENDMDL
MODEL 8
REMARK VINA RESULT:      -6.1     17.660     18.604
REMARK  Name = 
REMARK  4 active torsions:
REMARK  status: ('A' for Active; 'I' for Inactive)
REMARK    1  A    between atoms: O_2  and  C_3
REMARK    2  A    between atoms: C_3  and  C_4
REMARK    3  A    between atoms: C_4  and  N_5
REMARK    4  A    between atoms: N_9  and  C_15
REMARK                            x       y       z     vdW  Elec       q    Type
REMARK                         _______ _______ _______ _____ _____    ______ ____
ROOT
ATOM      5  N   UNL     1      13.314   7.240  19.505  0.00  0.00    -0.260 N 
ATOM      6  C   UNL     1      13.264   7.291  18.683  0.00  0.00    +0.116 C 
ATOM      7  C   UNL     1      12.588   7.724  18.496  0.00  0.00    +0.113 C 
ATOM      8  C   UNL     1      12.258   7.949  17.773  0.00  0.00    +0.094 C 
ATOM      9  N   UNL     1      11.563   8.392  17.757  0.00  0.00    -0.271 NA
ATOM     10  C   UNL     1      11.196   8.609  18.463  0.00  0.00    +0.094 C 
ATOM     11  C   UNL     1      11.524   8.385  19.186  0.00  0.00    +0.112 C 
ATOM     12  N   UNL     1      12.221   7.942  19.202  0.00  0.00    -0.261 N 
ATOM     13  C   UNL     1      12.670   7.643  19.825  0.00  0.00    +0.307 C 
ATOM     14  O   UNL     1      12.503   7.731  20.629  0.00  0.00    -0.252 OA
ENDROOT
BRANCH   9  15
ATOM     15  C   UNL     1      11.233   8.617  17.035  0.00  0.00    +0.058 C 
ATOM     16  C   UNL     1      10.517   8.474  16.652  0.00  0.00    +0.016 C 
ATOM     17  C   UNL     1      10.767   8.935  16.014  0.00  0.00    +0.003 C 
ATOM     18  C   UNL     1      11.483   9.077  16.397  0.00  0.00    +0.016 C 
ENDBRANCH   9  15
BRANCH   5   4
ATOM      4  C   UNL     1      13.906   6.855  19.932  0.00  0.00    +0.127 C 
BRANCH   4   3
ATOM      3  C   UNL     1      14.666   6.790  19.618  0.00  0.00    +0.164 C 
BRANCH   3   2
ATOM      1  C   UNL     1      16.024   6.496  19.948  0.00  0.00    +0.174 C 
ATOM      2  O   UNL     1      15.223   6.302  19.981  0.00  0.00    -0.349 OA
ENDBRANCH   3   2
ENDBRANCH   4   3
ENDBRANCH   5   4
TORSDOF 4
ENDMDL
MODEL 9
REMARK VINA RESULT:      -5.9     16.461     19.030
REMARK  Name = 
REMARK  4 active torsions:
REMARK  status: ('A' for Active; 'I' for Inactive)
REMARK    1  A    between atoms: O_2  and  C_3
REMARK    2  A    between atoms: C_3  and  C_4
REMARK    3  A    between atoms: C_4  and  N_5
REMARK    4  A    between atoms: N_9  and  C_15
REMARK                            x       y       z     vdW  Elec       q    Type
REMARK                         _______ _______ _______ _____ _____    ______ ____
ROOT
ATOM      5  N   UNL     1      12.869   6.891  20.211  0.00  0.00    -0.260 N 
ATOM      6  C   UNL     1      12.566   7.249  19.530  0.00  0.00    +0.116 C 
ATOM      7  C   UNL     1      13.202   7.449  19.045  0.00  0.00    +0.113 C 
ATOM      8  C   UNL     1      13.238   7.814  18.306  0.00  0.00    +0.094 C 
ATOM      9  N   UNL     1      13.968   7.947  17.946  0.00  0.00    -0.271 NA
ATOM     10  C   UNL     1      14.663   7.714  18.326  0.00  0.00    +0.094 C 
ATOM     11  C   UNL     1      14.628   7.349  19.064  0.00  0.00    +0.112 C 
ATOM     12  N   UNL     1      13.896   7.217  19.424  0.00  0.00    -0.261 N 
ATOM     13  C   UNL     1      13.690   6.872  20.144  0.00  0.00    +0.307 C 
ATOM     14  O   UNL     1      14.215   6.562  20.701  0.00  0.00    -0.252 OA
ENDROOT
BRANCH   9  15
ATOM     15  C   UNL     1      14.005   8.312  17.207  0.00  0.00    +0.058 C 
ATOM     16  C   UNL     1      14.065   8.046  16.428  0.00  0.00    +0.016 C 
ATOM     17  C   UNL     1      14.056   8.827  16.162  0.00  0.00    +0.003 C 
ATOM     18  C   UNL     1      13.996   9.092  16.940  0.00  0.00    +0.016 C 
ENDBRANCH   9  15
BRANCH   5   4
ATOM      4  C   UNL     1      12.426   6.604  20.845  0.00  0.00    +0.127 C 
BRANCH   4   3
ATOM      3  C   UNL     1      11.652   6.866  20.960  0.00  0.00    +0.164 C 
BRANCH   3   2
ATOM      1  C   UNL     1      10.605   6.971  21.927  0.00  0.00    +0.174 C 
ATOM      2  O   UNL     1      11.183   6.522  21.546  0.00  0.00    -0.349 OA
ENDBRANCH   3   2
ENDBRANCH   4   3
ENDBRANCH   5   4
TORSDOF 4
ENDMDL
