MODEL 1
REMARK VINA RESULT:     -10.8      0.000      0.000
REMARK  Name = 
REMARK  8 active torsions:
REMARK  status: ('A' for Active; 'I' for Inactive)
REMARK    1  A    between atoms: N_2  and  C_4
REMARK    2  A    between atoms: C_7  and  C_8
REMARK    3  A    between atoms: C_8  and  N_9
REMARK    4  A    between atoms: N_9  and  C_10
REMARK    5  A    between atoms: C_15  and  C_16
REMARK    6  A    between atoms: C_16  and  C_17
REMARK    7  A    between atoms: C_17  and  C_18
REMARK    8  A    between atoms: N_20  and  C_21
REMARK                            x       y       z     vdW  Elec       q    Type
REMARK                         _______ _______ _______ _____ _____    ______ ____
ROOT
ATOM     10  C   UNL     1      -4.258   1.610  24.767  0.00  0.00    +0.091 C 
ATOM     11  C   UNL     1      -4.847   2.020  25.173  0.00  0.00    +0.044 C 
ATOM     12  C   UNL     1      -4.562   2.775  25.342  0.00  0.00    +0.138 C 
ATOM     13  N   UNL     1      -3.796   2.831  25.041  0.00  0.00    -0.265 NA
ATOM     14  C   UNL     1      -3.607   2.112  24.685  0.00  0.00    +0.090 C 
ATOM     15  C   UNL     1      -3.369   3.532  25.130  0.00  0.00    +0.080 C 
ATOM     24  C   UNL     1      -3.707   4.175  25.519  0.00  0.00    +0.131 C 
ATOM     25  N   UNL     1      -4.473   4.118  25.820  0.00  0.00    -0.203 NA
ATOM     26  C   UNL     1      -4.901   3.418  25.732  0.00  0.00    +0.256 C 
ATOM     27  O   UNL     1      -5.667   3.362  26.033  0.00  0.00    -0.272 OA
ENDROOT
BRANCH  10   9
ATOM      9  N   UNL     1      -4.309   0.834  24.491  0.00  0.00    -0.213 NA
BRANCH   9   8
ATOM      8  C   UNL     1      -4.421   0.213  25.022  0.00  0.00    +0.115 C 
BRANCH   8   7
ATOM      4  C   UNL     1      -3.399  -1.997  24.580  0.00  0.00    +0.048 A 
ATOM      5  C   UNL     1      -3.236  -1.600  25.284  0.00  0.00    +0.014 A 
ATOM      6  C   UNL     1      -3.577  -0.864  25.432  0.00  0.00    -0.002 A 
ATOM      7  C   UNL     1      -4.080  -0.524  24.875  0.00  0.00    -0.005 A 
ATOM     28  C   UNL     1      -4.244  -0.920  24.169  0.00  0.00    -0.002 A 
ATOM     29  C   UNL     1      -3.903  -1.656  24.022  0.00  0.00    +0.014 A 
BRANCH   4   2
ATOM      1  C   UNL     1      -2.237  -2.807  24.388  0.00  0.00    +0.112 C 
ATOM      2  N   UNL     1      -3.058  -2.734  24.432  0.00  0.00    -0.304 N 
ATOM      3  C   UNL     1      -3.538  -3.397  24.330  0.00  0.00    +0.112 C 
ENDBRANCH   4   2
ENDBRANCH   8   7
ENDBRANCH   9   8
ENDBRANCH  10   9
BRANCH  15  16
ATOM     16  C   UNL     1      -2.603   3.589  24.829  0.00  0.00    +0.027 C 
BRANCH  16  17
ATOM     17  C   UNL     1      -1.958   3.614  25.343  0.00  0.00    +0.088 C 
BRANCH  17  18
ATOM     18  C   UNL     1      -1.278   4.032  25.133  0.00  0.00    +0.241 C 
ATOM     19  O   UNL     1      -1.343   4.743  24.722  0.00  0.00    -0.273 OA
ATOM     20  N   UNL     1      -0.534   3.737  25.335  0.00  0.00    -0.207 NA
BRANCH  20  21
ATOM     21  C   UNL     1      -0.470   3.025  25.746  0.00  0.00    +0.095 C 
ATOM     22  C   UNL     1      -0.548   2.594  26.445  0.00  0.00    +0.023 C 
ATOM     23  C   UNL     1      -0.280   2.222  25.759  0.00  0.00    +0.023 C 
ENDBRANCH  20  21
ENDBRANCH  17  18
ENDBRANCH  16  17
ENDBRANCH  15  16
TORSDOF 8
ENDMDL
MODEL 2
REMARK VINA RESULT:      -9.7      2.461      5.062
REMARK  Name = 
REMARK  8 active torsions:
REMARK  status: ('A' for Active; 'I' for Inactive)
REMARK    1  A    between atoms: N_2  and  C_4
REMARK    2  A    between atoms: C_7  and  C_8
REMARK    3  A    between atoms: C_8  and  N_9
REMARK    4  A    between atoms: N_9  and  C_10
REMARK    5  A    between atoms: C_15  and  C_16
REMARK    6  A    between atoms: C_16  and  C_17
REMARK    7  A    between atoms: C_17  and  C_18
REMARK    8  A    between atoms: N_20  and  C_21
REMARK                            x       y       z     vdW  Elec       q    Type
REMARK                         _______ _______ _______ _____ _____    ______ ____
ROOT
ATOM     10  C   UNL     1      -4.077  -0.494  24.914  0.00  0.00    +0.091 C 
ATOM     11  C   UNL     1      -4.397  -1.128  24.496  0.00  0.00    +0.044 C 
ATOM     12  C   UNL     1      -3.805  -1.693  24.396  0.00  0.00    +0.138 C 
ATOM     13  N   UNL     1      -3.118  -1.408  24.752  0.00  0.00    -0.265 NA
ATOM     14  C   UNL     1      -3.285  -0.667  25.072  0.00  0.00    +0.090 C 
ATOM     15  C   UNL     1      -2.428  -1.861  24.738  0.00  0.00    +0.080 C 
ATOM     24  C   UNL     1      -2.426  -2.598  24.369  0.00  0.00    +0.131 C 
ATOM     25  N   UNL     1      -3.113  -2.883  24.013  0.00  0.00    -0.203 NA
ATOM     26  C   UNL     1      -3.803  -2.431  24.026  0.00  0.00    +0.256 C 
ATOM     27  O   UNL     1      -4.490  -2.716  23.670  0.00  0.00    -0.272 OA
ENDROOT
BRANCH  10   9
ATOM      9  N   UNL     1      -4.476   0.193  25.136  0.00  0.00    -0.213 NA
BRANCH   9   8
ATOM      8  C   UNL     1      -4.640   0.775  24.574  0.00  0.00    +0.115 C 
BRANCH   8   7
ATOM      4  C   UNL     1      -4.959   3.125  25.281  0.00  0.00    +0.048 A 
ATOM      5  C   UNL     1      -4.387   2.937  24.717  0.00  0.00    +0.014 A 
ATOM      6  C   UNL     1      -4.280   2.154  24.482  0.00  0.00    -0.002 A 
ATOM      7  C   UNL     1      -4.747   1.558  24.810  0.00  0.00    -0.005 A 
ATOM     28  C   UNL     1      -5.320   1.745  25.373  0.00  0.00    -0.002 A 
ATOM     29  C   UNL     1      -5.426   2.528  25.609  0.00  0.00    +0.014 A 
BRANCH   4   2
ATOM      1  C   UNL     1      -4.413   4.366  25.732  0.00  0.00    +0.112 C 
ATOM      2  N   UNL     1      -5.065   3.909  25.516  0.00  0.00    -0.304 N 
ATOM      3  C   UNL     1      -5.822   4.234  25.536  0.00  0.00    +0.112 C 
ENDBRANCH   4   2
ENDBRANCH   8   7
ENDBRANCH   9   8
ENDBRANCH  10   9
BRANCH  15  16
ATOM     16  C   UNL     1      -1.741  -1.576  25.094  0.00  0.00    +0.027 C 
BRANCH  16  17
ATOM     17  C   UNL     1      -1.095  -1.355  24.628  0.00  0.00    +0.088 C 
BRANCH  17  18
ATOM     18  C   UNL     1      -0.337  -1.347  24.952  0.00  0.00    +0.241 C 
ATOM     19  O   UNL     1      -0.163  -1.817  25.607  0.00  0.00    -0.273 OA
ATOM     20  N   UNL     1       0.248  -0.868  24.620  0.00  0.00    -0.207 NA
BRANCH  20  21
ATOM     21  C   UNL     1       0.074  -0.398  23.966  0.00  0.00    +0.095 C 
ATOM     22  C   UNL     1      -0.243   0.293  23.647  0.00  0.00    +0.023 C 
ATOM     23  C   UNL     1       0.091  -0.275  23.150  0.00  0.00    +0.023 C 
ENDBRANCH  20  21
ENDBRANCH  17  18
ENDBRANCH  16  17
ENDBRANCH  15  16
TORSDOF 8
ENDMDL
MODEL 3
REMARK VINA RESULT:      -9.7      1.314      2.957
REMARK  Name = 
REMARK  8 active torsions:
REMARK  status: ('A' for Active; 'I' for Inactive)
REMARK    1  A    between atoms: N_2  and  C_4
REMARK    2  A    between atoms: C_7  and  C_8
REMARK    3  A    between atoms: C_8  and  N_9
REMARK    4  A    between atoms: N_9  and  C_10
REMARK    5  A    between atoms: C_15  and  C_16
REMARK    6  A    between atoms: C_16  and  C_17
REMARK    7  A    between atoms: C_17  and  C_18
REMARK    8  A    between atoms: N_20  and  C_21
REMARK                            x       y       z     vdW  Elec       q    Type
REMARK                         _______ _______ _______ _____ _____    ______ ____
ROOT
ATOM     10  C   UNL     1      -1.320   0.982  25.151  0.00  0.00    +0.091 C 
ATOM     11  C   UNL     1      -0.752   1.352  25.620  0.00  0.00    +0.044 C 
ATOM     12  C   UNL     1      -0.898   2.163  25.606  0.00  0.00    +0.138 C 
ATOM     13  N   UNL     1      -1.557   2.295  25.128  0.00  0.00    -0.265 NA
ATOM     14  C   UNL     1      -1.818   1.566  24.846  0.00  0.00    +0.090 C 
ATOM     15  C   UNL     1      -1.834   3.064  25.011  0.00  0.00    +0.080 C 
ATOM     24  C   UNL     1      -1.453   3.699  25.371  0.00  0.00    +0.131 C 
ATOM     25  N   UNL     1      -0.794   3.568  25.849  0.00  0.00    -0.203 NA
ATOM     26  C   UNL     1      -0.516   2.800  25.967  0.00  0.00    +0.256 C 
ATOM     27  O   UNL     1       0.144   2.668  26.445  0.00  0.00    -0.272 OA
ENDROOT
BRANCH  10   9
ATOM      9  N   UNL     1      -1.380   0.171  25.010  0.00  0.00    -0.213 NA
BRANCH   9   8
ATOM      8  C   UNL     1      -1.806  -0.307  25.530  0.00  0.00    +0.115 C 
BRANCH   8   7
ATOM      4  C   UNL     1      -3.188  -2.164  24.653  0.00  0.00    +0.048 A 
ATOM      5  C   UNL     1      -2.380  -2.137  24.488  0.00  0.00    +0.014 A 
ATOM      6  C   UNL     1      -1.919  -1.518  24.781  0.00  0.00    -0.002 A 
ATOM      7  C   UNL     1      -2.267  -0.926  25.237  0.00  0.00    -0.005 A 
ATOM     28  C   UNL     1      -3.075  -0.952  25.403  0.00  0.00    -0.002 A 
ATOM     29  C   UNL     1      -3.535  -1.571  25.110  0.00  0.00    +0.014 A 
BRANCH   4   2
ATOM      1  C   UNL     1      -4.266  -2.626  23.837  0.00  0.00    +0.112 C 
ATOM      2  N   UNL     1      -3.648  -2.783  24.360  0.00  0.00    -0.304 N 
ATOM      3  C   UNL     1      -3.490  -3.559  24.591  0.00  0.00    +0.112 C 
ENDBRANCH   4   2
ENDBRANCH   8   7
ENDBRANCH   9   8
ENDBRANCH  10   9
BRANCH  15  16
ATOM     16  C   UNL     1      -2.494   3.196  24.533  0.00  0.00    +0.027 C 
BRANCH  16  17
ATOM     17  C   UNL     1      -3.205   3.444  24.870  0.00  0.00    +0.088 C 
BRANCH  17  18
ATOM     18  C   UNL     1      -3.786   3.792  24.399  0.00  0.00    +0.241 C 
ATOM     19  O   UNL     1      -3.574   4.177  23.701  0.00  0.00    -0.273 OA
ATOM     20  N   UNL     1      -4.578   3.755  24.626  0.00  0.00    -0.207 NA
BRANCH  20  21
ATOM     21  C   UNL     1      -4.790   3.370  25.323  0.00  0.00    +0.095 C 
ATOM     22  C   UNL     1      -4.813   3.346  26.148  0.00  0.00    +0.023 C 
ATOM     23  C   UNL     1      -5.134   2.725  25.708  0.00  0.00    +0.023 C 
ENDBRANCH  20  21
ENDBRANCH  17  18
ENDBRANCH  16  17
ENDBRANCH  15  16
TORSDOF 8
ENDMDL
MODEL 4
REMARK VINA RESULT:      -9.4      2.326      5.455
REMARK  Name = 
REMARK  8 active torsions:
REMARK  status: ('A' for Active; 'I' for Inactive)
REMARK    1  A    between atoms: N_2  and  C_4
REMARK    2  A    between atoms: C_7  and  C_8
REMARK    3  A    between atoms: C_8  and  N_9
REMARK    4  A    between atoms: N_9  and  C_10
REMARK    5  A    between atoms: C_15  and  C_16
REMARK    6  A    between atoms: C_16  and  C_17
REMARK    7  A    between atoms: C_17  and  C_18
REMARK    8  A    between atoms: N_20  and  C_21
REMARK                            x       y       z     vdW  Elec       q    Type
REMARK                         _______ _______ _______ _____ _____    ______ ____
ROOT
ATOM     10  C   UNL     1      -1.512   1.371  24.744  0.00  0.00    +0.091 C 
ATOM     11  C   UNL     1      -0.831   1.394  24.278  0.00  0.00    +0.044 C 
ATOM     12  C   UNL     1      -0.572   0.619  24.169  0.00  0.00    +0.138 C 
ATOM     13  N   UNL     1      -1.091   0.117  24.567  0.00  0.00    -0.265 NA
ATOM     14  C   UNL     1      -1.672   0.581  24.922  0.00  0.00    +0.090 C 
ATOM     15  C   UNL     1      -0.967  -0.699  24.553  0.00  0.00    +0.080 C 
ATOM     24  C   UNL     1      -0.324  -1.012  24.143  0.00  0.00    +0.131 C 
ATOM     25  N   UNL     1       0.195  -0.510  23.745  0.00  0.00    -0.203 NA
ATOM     26  C   UNL     1       0.072   0.305  23.757  0.00  0.00    +0.256 C 
ATOM     27  O   UNL     1       0.592   0.808  23.359  0.00  0.00    -0.272 OA
ENDROOT
BRANCH  10   9
ATOM      9  N   UNL     1      -1.954   2.023  24.988  0.00  0.00    -0.213 NA
BRANCH   9   8
ATOM      8  C   UNL     1      -2.479   2.386  24.465  0.00  0.00    +0.115 C 
BRANCH   8   7
ATOM      4  C   UNL     1      -4.669   3.204  25.275  0.00  0.00    +0.048 A 
ATOM      5  C   UNL     1      -3.972   3.504  25.597  0.00  0.00    +0.014 A 
ATOM      6  C   UNL     1      -3.242   3.231  25.327  0.00  0.00    -0.002 A 
ATOM      7  C   UNL     1      -3.209   2.659  24.735  0.00  0.00    -0.005 A 
ATOM     28  C   UNL     1      -3.906   2.358  24.412  0.00  0.00    -0.002 A 
ATOM     29  C   UNL     1      -4.636   2.631  24.681  0.00  0.00    +0.014 A 
BRANCH   4   2
ATOM      1  C   UNL     1      -5.584   4.280  25.494  0.00  0.00    +0.112 C 
ATOM      2  N   UNL     1      -5.400   3.477  25.545  0.00  0.00    -0.304 N 
ATOM      3  C   UNL     1      -5.945   2.948  25.864  0.00  0.00    +0.112 C 
ENDBRANCH   4   2
ENDBRANCH   8   7
ENDBRANCH   9   8
ENDBRANCH  10   9
BRANCH  15  16
ATOM     16  C   UNL     1      -1.487  -1.201  24.951  0.00  0.00    +0.027 C 
BRANCH  16  17
ATOM     17  C   UNL     1      -2.074  -1.603  24.533  0.00  0.00    +0.088 C 
BRANCH  17  18
ATOM     18  C   UNL     1      -2.352  -2.330  24.807  0.00  0.00    +0.241 C 
ATOM     19  O   UNL     1      -1.843  -2.842  25.204  0.00  0.00    -0.273 OA
ATOM     20  N   UNL     1      -3.139  -2.544  24.683  0.00  0.00    -0.207 NA
BRANCH  20  21
ATOM     21  C   UNL     1      -3.649  -2.031  24.286  0.00  0.00    +0.095 C 
ATOM     22  C   UNL     1      -3.945  -1.723  23.580  0.00  0.00    +0.023 C 
ATOM     23  C   UNL     1      -4.235  -1.451  24.303  0.00  0.00    +0.023 C 
ENDBRANCH  20  21
ENDBRANCH  17  18
ENDBRANCH  16  17
ENDBRANCH  15  16
TORSDOF 8
ENDMDL
MODEL 5
REMARK VINA RESULT:      -9.0      2.386      6.125
REMARK  Name = 
REMARK  8 active torsions:
REMARK  status: ('A' for Active; 'I' for Inactive)
REMARK    1  A    between atoms: N_2  and  C_4
REMARK    2  A    between atoms: C_7  and  C_8
REMARK    3  A    between atoms: C_8  and  N_9
REMARK    4  A    between atoms: N_9  and  C_10
REMARK    5  A    between atoms: C_15  and  C_16
REMARK    6  A    between atoms: C_16  and  C_17
REMARK    7  A    between atoms: C_17  and  C_18
REMARK    8  A    between atoms: N_20  and  C_21
REMARK                            x       y       z     vdW  Elec       q    Type
REMARK                         _______ _______ _______ _____ _____    ______ ____
ROOT
ATOM     10  C   UNL     1      -0.802   1.065  24.464  0.00  0.00    +0.091 C 
ATOM     11  C   UNL     1      -0.208   0.622  24.103  0.00  0.00    +0.044 C 
ATOM     12  C   UNL     1      -0.353  -0.175  24.260  0.00  0.00    +0.138 C 
ATOM     13  N   UNL     1      -1.037  -0.224  24.717  0.00  0.00    -0.265 NA
ATOM     14  C   UNL     1      -1.315   0.542  24.844  0.00  0.00    +0.090 C 
ATOM     15  C   UNL     1      -1.318  -0.961  24.960  0.00  0.00    +0.080 C 
ATOM     24  C   UNL     1      -0.916  -1.648  24.745  0.00  0.00    +0.131 C 
ATOM     25  N   UNL     1      -0.231  -1.598  24.288  0.00  0.00    -0.203 NA
ATOM     26  C   UNL     1       0.051  -0.862  24.044  0.00  0.00    +0.256 C 
ATOM     27  O   UNL     1       0.735  -0.813  23.587  0.00  0.00    -0.272 OA
ENDROOT
BRANCH  10   9
ATOM      9  N   UNL     1      -0.872   1.887  24.447  0.00  0.00    -0.213 NA
BRANCH   9   8
ATOM      8  C   UNL     1      -0.847   2.317  25.151  0.00  0.00    +0.115 C 
BRANCH   8   7
ATOM      4  C   UNL     1      -1.473   4.712  25.161  0.00  0.00    +0.048 A 
ATOM      5  C   UNL     1      -2.008   4.144  25.429  0.00  0.00    +0.014 A 
ATOM      6  C   UNL     1      -1.799   3.346  25.425  0.00  0.00    -0.002 A 
ATOM      7  C   UNL     1      -1.056   3.115  25.154  0.00  0.00    -0.005 A 
ATOM     28  C   UNL     1      -0.520   3.682  24.886  0.00  0.00    -0.002 A 
ATOM     29  C   UNL     1      -0.728   4.481  24.889  0.00  0.00    +0.014 A 
BRANCH   4   2
ATOM      1  C   UNL     1      -2.401   5.746  25.491  0.00  0.00    +0.112 C 
ATOM      2  N   UNL     1      -1.681   5.510  25.164  0.00  0.00    -0.304 N 
ATOM      3  C   UNL     1      -1.171   6.070  24.840  0.00  0.00    +0.112 C 
ENDBRANCH   4   2
ENDBRANCH   8   7
ENDBRANCH   9   8
ENDBRANCH  10   9
BRANCH  15  16
ATOM     16  C   UNL     1      -2.003  -1.010  25.418  0.00  0.00    +0.027 C 
BRANCH  16  17
ATOM     17  C   UNL     1      -2.663  -1.414  25.131  0.00  0.00    +0.088 C 
BRANCH  17  18
ATOM     18  C   UNL     1      -3.324  -1.522  25.614  0.00  0.00    +0.241 C 
ATOM     19  O   UNL     1      -3.268  -1.383  26.425  0.00  0.00    -0.273 OA
ATOM     20  N   UNL     1      -4.039  -1.768  25.285  0.00  0.00    -0.207 NA
BRANCH  20  21
ATOM     21  C   UNL     1      -4.095  -1.907  24.474  0.00  0.00    +0.095 C 
ATOM     22  C   UNL     1      -4.188  -1.622  23.705  0.00  0.00    +0.023 C 
ATOM     23  C   UNL     1      -4.099  -2.432  23.837  0.00  0.00    +0.023 C 
ENDBRANCH  20  21
ENDBRANCH  17  18
ENDBRANCH  16  17
ENDBRANCH  15  16
TORSDOF 8
ENDMDL
MODEL 6
REMARK VINA RESULT:      -8.9      2.701      4.087
REMARK  Name = 
REMARK  8 active torsions:
REMARK  status: ('A' for Active; 'I' for Inactive)
REMARK    1  A    between atoms: N_2  and  C_4
REMARK    2  A    between atoms: C_7  and  C_8
REMARK    3  A    between atoms: C_8  and  N_9
REMARK    4  A    between atoms: N_9  and  C_10
REMARK    5  A    between atoms: C_15  and  C_16
REMARK    6  A    between atoms: C_16  and  C_17
REMARK    7  A    between atoms: C_17  and  C_18
REMARK    8  A    between atoms: N_20  and  C_21
REMARK                            x       y       z     vdW  Elec       q    Type
REMARK                         _______ _______ _______ _____ _____    ______ ____
ROOT
ATOM     10  C   UNL     1      -1.988   0.047  24.295  0.00  0.00    +0.091 C 
ATOM     11  C   UNL     1      -2.460  -0.439  24.766  0.00  0.00    +0.044 C 
ATOM     12  C   UNL     1      -3.174  -0.050  24.899  0.00  0.00    +0.138 C 
ATOM     13  N   UNL     1      -3.145   0.677  24.509  0.00  0.00    -0.265 NA
ATOM     14  C   UNL     1      -2.413   0.737  24.136  0.00  0.00    +0.090 C 
ATOM     15  C   UNL     1      -3.790   1.190  24.545  0.00  0.00    +0.080 C 
ATOM     24  C   UNL     1      -4.464   0.977  24.970  0.00  0.00    +0.131 C 
ATOM     25  N   UNL     1      -4.493   0.250  25.360  0.00  0.00    -0.203 NA
ATOM     26  C   UNL     1      -3.849  -0.263  25.324  0.00  0.00    +0.256 C 
ATOM     27  O   UNL     1      -3.878  -0.990  25.714  0.00  0.00    -0.272 OA
ENDROOT
BRANCH  10   9
ATOM      9  N   UNL     1      -1.227  -0.126  24.028  0.00  0.00    -0.213 NA
BRANCH   9   8
ATOM      8  C   UNL     1      -0.595   0.360  24.239  0.00  0.00    +0.115 C 
BRANCH   8   7
ATOM      4  C   UNL     1       1.533   0.241  22.982  0.00  0.00    +0.048 A 
ATOM      5  C   UNL     1       1.331   0.930  23.388  0.00  0.00    +0.014 A 
ATOM      6  C   UNL     1       0.622   0.970  23.807  0.00  0.00    -0.002 A 
ATOM      7  C   UNL     1       0.114   0.321  23.820  0.00  0.00    -0.005 A 
ATOM     28  C   UNL     1       0.315  -0.370  23.415  0.00  0.00    -0.002 A 
ATOM     29  C   UNL     1       1.025  -0.409  22.996  0.00  0.00    +0.014 A 
BRANCH   4   2
ATOM      1  C   UNL     1       2.923   0.554  22.870  0.00  0.00    +0.112 C 
ATOM      2  N   UNL     1       2.243   0.201  22.563  0.00  0.00    -0.304 N 
ATOM      3  C   UNL     1       2.272  -0.191  21.839  0.00  0.00    +0.112 C 
ENDBRANCH   4   2
ENDBRANCH   8   7
ENDBRANCH   9   8
ENDBRANCH  10   9
BRANCH  15  16
ATOM     16  C   UNL     1      -3.761   1.917  24.156  0.00  0.00    +0.027 C 
BRANCH  16  17
ATOM     17  C   UNL     1      -3.745   2.618  24.591  0.00  0.00    +0.088 C 
BRANCH  17  18
ATOM     18  C   UNL     1      -3.837   3.343  24.208  0.00  0.00    +0.241 C 
ATOM     19  O   UNL     1      -4.185   3.374  23.462  0.00  0.00    -0.273 OA
ATOM     20  N   UNL     1      -3.581   4.037  24.574  0.00  0.00    -0.207 NA
BRANCH  20  21
ATOM     21  C   UNL     1      -3.233   4.007  25.320  0.00  0.00    +0.095 C 
ATOM     22  C   UNL     1      -3.302   3.925  26.138  0.00  0.00    +0.023 C 
ATOM     23  C   UNL     1      -2.559   4.036  25.797  0.00  0.00    +0.023 C 
ENDBRANCH  20  21
ENDBRANCH  17  18
ENDBRANCH  16  17
ENDBRANCH  15  16
TORSDOF 8
ENDMDL
