MODEL 1
REMARK VINA RESULT:      -8.0      0.000      0.000
REMARK  Name = 
REMARK  3 active torsions:
REMARK  status: ('A' for Active; 'I' for Inactive)
REMARK    1  A    between atoms: O_2  and  C_3
REMARK    2  A    between atoms: C_6  and  C_7
REMARK    3  A    between atoms: C_7  and  N_8
REMARK                            x       y       z     vdW  Elec       q    Type
REMARK                         _______ _______ _______ _____ _____    ______ ____
ROOT
ATOM      7  C   UNL     1      -3.923   1.170  24.207  0.00  0.00    +0.101 C 
ENDROOT
BRANCH   7   8
ATOM      8  N   UNL     1      -4.325   1.740  24.645  0.00  0.00    -0.265 NA
ATOM      9  C   UNL     1      -5.136   1.616  24.736  0.00  0.00    +0.105 C 
ATOM     10  C   UNL     1      -5.686   2.081  25.139  0.00  0.00    +0.160 C 
ATOM     11  O   UNL     1      -5.562   2.784  25.551  0.00  0.00    -0.350 OA
ATOM     12  C   UNL     1      -4.856   3.197  25.662  0.00  0.00    +0.176 C 
ATOM     13  C   UNL     1      -4.101   3.008  25.389  0.00  0.00    +0.197 C 
ATOM     14  O   UNL     1      -3.503   3.538  25.595  0.00  0.00    -0.219 OA
ATOM     15  C   UNL     1      -3.865   2.360  24.936  0.00  0.00    +0.108 C 
ENDBRANCH   7   8
BRANCH   7   6
ATOM      3  C   UNL     1      -3.582  -1.096  25.142  0.00  0.00    +0.225 A 
ATOM      4  C   UNL     1      -4.191  -0.959  24.603  0.00  0.00    +0.057 A 
ATOM      5  C   UNL     1      -4.304  -0.205  24.292  0.00  0.00    +0.003 A 
ATOM      6  C   UNL     1      -3.809   0.414  24.519  0.00  0.00    +0.013 A 
ATOM     16  C   UNL     1      -3.200   0.277  25.058  0.00  0.00    +0.099 A 
ATOM     17  N   UNL     1      -3.086  -0.477  25.369  0.00  0.00    -0.210 NA
BRANCH   3   2
ATOM      1  C   UNL     1      -3.331  -2.489  24.949  0.00  0.00    +0.254 C 
ATOM      2  O   UNL     1      -3.468  -1.852  25.454  0.00  0.00    -0.456 OA
ENDBRANCH   3   2
ENDBRANCH   7   6
TORSDOF 3
ENDMDL
MODEL 2
REMARK VINA RESULT:      -7.9      0.423      1.172
REMARK  Name = 
REMARK  3 active torsions:
REMARK  status: ('A' for Active; 'I' for Inactive)
REMARK    1  A    between atoms: O_2  and  C_3
REMARK    2  A    between atoms: C_6  and  C_7
REMARK    3  A    between atoms: C_7  and  N_8
REMARK                            x       y       z     vdW  Elec       q    Type
REMARK                         _______ _______ _______ _____ _____    ______ ____
ROOT
ATOM      7  C   UNL     1      -3.827   1.078  24.128  0.00  0.00    +0.101 C 
ENDROOT
BRANCH   7   8
ATOM      8  N   UNL     1      -4.143   1.688  24.584  0.00  0.00    -0.265 NA
ATOM      9  C   UNL     1      -3.598   2.229  24.885  0.00  0.00    +0.105 C 
ATOM     10  C   UNL     1      -3.738   2.893  25.356  0.00  0.00    +0.160 C 
ATOM     11  O   UNL     1      -4.456   3.179  25.641  0.00  0.00    -0.350 OA
ATOM     12  C   UNL     1      -5.214   2.873  25.526  0.00  0.00    +0.176 C 
ATOM     13  C   UNL     1      -5.439   2.205  25.098  0.00  0.00    +0.197 C 
ATOM     14  O   UNL     1      -6.248   2.043  25.088  0.00  0.00    -0.219 OA
ATOM     15  C   UNL     1      -4.962   1.678  24.679  0.00  0.00    +0.108 C 
ENDBRANCH   7   8
BRANCH   7   6
ATOM      3  C   UNL     1      -3.523  -1.172  25.113  0.00  0.00    +0.225 A 
ATOM      4  C   UNL     1      -4.121  -1.041  24.560  0.00  0.00    +0.057 A 
ATOM      5  C   UNL     1      -4.222  -0.291  24.232  0.00  0.00    +0.003 A 
ATOM      6  C   UNL     1      -3.726   0.328  24.456  0.00  0.00    +0.013 A 
ATOM     16  C   UNL     1      -3.128   0.197  25.009  0.00  0.00    +0.099 A 
ATOM     17  N   UNL     1      -3.026  -0.552  25.337  0.00  0.00    -0.210 NA
BRANCH   3   2
ATOM      1  C   UNL     1      -3.387  -2.585  24.952  0.00  0.00    +0.254 C 
ATOM      2  O   UNL     1      -3.421  -1.922  25.441  0.00  0.00    -0.456 OA
ENDBRANCH   3   2
ENDBRANCH   7   6
TORSDOF 3
ENDMDL
MODEL 3
REMARK VINA RESULT:      -7.8      1.678      2.159
REMARK  Name = 
REMARK  3 active torsions:
REMARK  status: ('A' for Active; 'I' for Inactive)
REMARK    1  A    between atoms: O_2  and  C_3
REMARK    2  A    between atoms: C_6  and  C_7
REMARK    3  A    between atoms: C_7  and  N_8
REMARK                            x       y       z     vdW  Elec       q    Type
REMARK                         _______ _______ _______ _____ _____    ______ ____
ROOT
ATOM      7  C   UNL     1      -4.007   0.805  24.461  0.00  0.00    +0.101 C 
ENDROOT
BRANCH   7   8
ATOM      8  N   UNL     1      -3.341   1.255  24.277  0.00  0.00    -0.265 NA
ATOM      9  C   UNL     1      -2.875   1.484  24.919  0.00  0.00    +0.105 C 
ATOM     10  C   UNL     1      -2.182   1.931  24.918  0.00  0.00    +0.160 C 
ATOM     11  O   UNL     1      -1.783   2.260  24.276  0.00  0.00    -0.350 OA
ATOM     12  C   UNL     1      -1.978   2.224  23.475  0.00  0.00    +0.176 C 
ATOM     13  C   UNL     1      -2.622   1.849  23.120  0.00  0.00    +0.197 C 
ATOM     14  O   UNL     1      -2.663   1.914  22.298  0.00  0.00    -0.219 OA
ATOM     15  C   UNL     1      -3.227   1.418  23.477  0.00  0.00    +0.108 C 
ENDBRANCH   7   8
BRANCH   7   6
ATOM      3  C   UNL     1      -3.786  -1.630  24.847  0.00  0.00    +0.225 A 
ATOM      4  C   UNL     1      -3.992  -1.347  24.100  0.00  0.00    +0.057 A 
ATOM      5  C   UNL     1      -4.066  -0.537  23.971  0.00  0.00    +0.003 A 
ATOM      6  C   UNL     1      -3.934  -0.007  24.589  0.00  0.00    +0.013 A 
ATOM     16  C   UNL     1      -3.728  -0.289  25.337  0.00  0.00    +0.099 A 
ATOM     17  N   UNL     1      -3.654  -1.100  25.465  0.00  0.00    -0.210 NA
BRANCH   3   2
ATOM      1  C   UNL     1      -3.145  -2.874  24.564  0.00  0.00    +0.254 C 
ATOM      2  O   UNL     1      -3.713  -2.441  24.976  0.00  0.00    -0.456 OA
ENDBRANCH   3   2
ENDBRANCH   7   6
TORSDOF 3
ENDMDL
MODEL 4
REMARK VINA RESULT:      -7.8      2.144      3.435
REMARK  Name = 
REMARK  3 active torsions:
REMARK  status: ('A' for Active; 'I' for Inactive)
REMARK    1  A    between atoms: O_2  and  C_3
REMARK    2  A    between atoms: C_6  and  C_7
REMARK    3  A    between atoms: C_7  and  N_8
REMARK                            x       y       z     vdW  Elec       q    Type
REMARK                         _______ _______ _______ _____ _____    ______ ____
ROOT
ATOM      7  C   UNL     1      -3.545   3.429  24.453  0.00  0.00    +0.101 C 
ENDROOT
BRANCH   7   8
ATOM      8  N   UNL     1      -4.133   2.918  24.721  0.00  0.00    -0.265 NA
ATOM      9  C   UNL     1      -4.098   2.146  24.431  0.00  0.00    +0.105 C 
ATOM     10  C   UNL     1      -4.600   1.512  24.593  0.00  0.00    +0.160 C 
ATOM     11  O   UNL     1      -5.262   1.493  25.084  0.00  0.00    -0.350 OA
ATOM     12  C   UNL     1      -5.586   2.102  25.535  0.00  0.00    +0.176 C 
ATOM     13  C   UNL     1      -5.327   2.883  25.606  0.00  0.00    +0.197 C 
ATOM     14  O   UNL     1      -5.774   3.364  26.107  0.00  0.00    -0.219 OA
ATOM     15  C   UNL     1      -4.681   3.245  25.244  0.00  0.00    +0.108 C 
ENDBRANCH   7   8
BRANCH   7   6
ATOM      3  C   UNL     1      -1.265   3.300  25.408  0.00  0.00    +0.225 A 
ATOM      4  C   UNL     1      -1.828   3.799  25.748  0.00  0.00    +0.057 A 
ATOM      5  C   UNL     1      -2.587   3.841  25.430  0.00  0.00    +0.003 A 
ATOM      6  C   UNL     1      -2.785   3.386  24.771  0.00  0.00    +0.013 A 
ATOM     16  C   UNL     1      -2.222   2.888  24.431  0.00  0.00    +0.099 A 
ATOM     17  N   UNL     1      -1.463   2.845  24.750  0.00  0.00    -0.210 NA
BRANCH   3   2
ATOM      1  C   UNL     1      -0.246   2.560  26.081  0.00  0.00    +0.254 C 
ATOM      2  O   UNL     1      -0.505   3.258  25.727  0.00  0.00    -0.456 OA
ENDBRANCH   3   2
ENDBRANCH   7   6
TORSDOF 3
ENDMDL
MODEL 5
REMARK VINA RESULT:      -7.5      1.253      3.613
REMARK  Name = 
REMARK  3 active torsions:
REMARK  status: ('A' for Active; 'I' for Inactive)
REMARK    1  A    between atoms: O_2  and  C_3
REMARK    2  A    between atoms: C_6  and  C_7
REMARK    3  A    between atoms: C_7  and  N_8
REMARK                            x       y       z     vdW  Elec       q    Type
REMARK                         _______ _______ _______ _____ _____    ______ ____
ROOT
ATOM      7  C   UNL     1      -3.573   0.348  24.127  0.00  0.00    +0.101 C 
ENDROOT
BRANCH   7   8
ATOM      8  N   UNL     1      -3.042   0.003  24.655  0.00  0.00    -0.265 NA
ATOM      9  C   UNL     1      -3.359  -0.570  25.158  0.00  0.00    +0.105 C 
ATOM     10  C   UNL     1      -2.977  -1.011  25.741  0.00  0.00    +0.160 C 
ATOM     11  O   UNL     1      -2.184  -0.988  25.966  0.00  0.00    -0.350 OA
ATOM     12  C   UNL     1      -1.577  -0.519  25.664  0.00  0.00    +0.176 C 
ATOM     13  C   UNL     1      -1.613   0.043  25.061  0.00  0.00    +0.197 C 
ATOM     14  O   UNL     1      -0.902   0.424  24.884  0.00  0.00    -0.219 OA
ATOM     15  C   UNL     1      -2.265   0.275  24.613  0.00  0.00    +0.108 C 
ENDBRANCH   7   8
BRANCH   7   6
ATOM      3  C   UNL     1      -4.937   2.289  24.831  0.00  0.00    +0.225 A 
ATOM      4  C   UNL     1      -5.199   1.522  24.985  0.00  0.00    +0.057 A 
ATOM      5  C   UNL     1      -4.745   0.876  24.751  0.00  0.00    +0.003 A 
ATOM      6  C   UNL     1      -4.027   0.995  24.361  0.00  0.00    +0.013 A 
ATOM     16  C   UNL     1      -3.765   1.761  24.208  0.00  0.00    +0.099 A 
ATOM     17  N   UNL     1      -4.219   2.408  24.442  0.00  0.00    -0.210 NA
BRANCH   3   2
ATOM      1  C   UNL     1      -5.159   3.389  25.714  0.00  0.00    +0.254 C 
ATOM      2  O   UNL     1      -5.391   2.936  25.066  0.00  0.00    -0.456 OA
ENDBRANCH   3   2
ENDBRANCH   7   6
TORSDOF 3
ENDMDL
