REMARK  Name = 
REMARK  4 active torsions:
REMARK  status: ('A' for Active; 'I' for Inactive)
REMARK    1  A    between atoms: C_1  and  N_2
REMARK    2  A    between atoms: C_1  and  C_26
REMARK    3  A    between atoms: C_7  and  C_8
REMARK    4  A    between atoms: C_10  and  C_13
REMARK                            x       y       z     vdW  Elec       q    Type
REMARK                         _______ _______ _______ _____ _____    ______ ____
ROOT
ATOM      2  N   UNL     1      -2.611  -2.509   0.000  0.00  0.00    -0.257 NA
ATOM      3  C   UNL     1      -3.432  -2.422   0.000  0.00  0.00    +0.121 C 
ATOM      4  C   UNL     1      -3.767  -1.669   0.000  0.00  0.00    +0.090 A 
ATOM      5  C   UNL     1      -3.282  -1.001   0.000  0.00  0.00    +0.077 A 
ATOM      6  C   UNL     1      -2.462  -1.088   0.000  0.00  0.00    +0.073 C 
ATOM      7  C   UNL     1      -2.126  -1.841   0.000  0.00  0.00    +0.144 C 
ATOM     23  N   UNL     1      -3.767  -0.334   0.000  0.00  0.00    -0.227 NA
ATOM     24  C   UNL     1      -4.552  -0.589   0.000  0.00  0.00    +0.198 A 
ATOM     25  N   UNL     1      -4.552  -1.414   0.000  0.00  0.00    -0.226 NA
ENDROOT
BRANCH   7   8
ATOM      8  C   UNL     1      -1.306  -1.927   0.000  0.00  0.00    +0.251 A 
ATOM      9  N   UNL     1      -0.754  -1.314   0.000  0.00  0.00    -0.190 NA
ATOM     10  C   UNL     1       0.000  -1.650   0.000  0.00  0.00    +0.203 A 
ATOM     11  N   UNL     1      -0.086  -2.470   0.000  0.00  0.00    -0.056 NA
ATOM     12  O   UNL     1      -0.893  -2.642   0.000  0.00  0.00    -0.336 OA
BRANCH  10  13
ATOM     13  C   UNL     1       0.715  -1.238   0.000  0.00  0.00    +0.039 A 
ATOM     14  C   UNL     1       0.715  -0.412   0.000  0.00  0.00    +0.003 A 
ATOM     15  C   UNL     1       1.429   0.000   0.000  0.00  0.00    +0.000 A 
ATOM     16  C   UNL     1       2.143  -0.412   0.000  0.00  0.00    +0.000 A 
ATOM     17  C   UNL     1       2.858   0.000   0.000  0.00  0.00    +0.000 A 
ATOM     18  C   UNL     1       3.572  -0.412   0.000  0.00  0.00    +0.000 A 
ATOM     19  C   UNL     1       3.572  -1.238   0.000  0.00  0.00    +0.000 A 
ATOM     20  C   UNL     1       2.858  -1.650   0.000  0.00  0.00    +0.000 A 
ATOM     21  C   UNL     1       2.143  -1.238   0.000  0.00  0.00    +0.000 A 
ATOM     22  C   UNL     1       1.429  -1.650   0.000  0.00  0.00    +0.003 A 
ENDBRANCH  10  13
ENDBRANCH   7   8
BRANCH   2   1
ATOM      1  C   UNL     1      -2.276  -3.262   0.000  0.00  0.00    +0.106 C 
BRANCH   1  26
ATOM     26  C   UNL     1      -2.760  -3.930   0.000  0.00  0.00    +0.023 A 
ATOM     27  C   UNL     1      -2.506  -4.715   0.000  0.00  0.00    +0.004 A 
ATOM     28  C   UNL     1      -3.173  -5.199   0.000  0.00  0.00    +0.007 A 
ATOM     29  C   UNL     1      -3.840  -4.715   0.000  0.00  0.00    +0.035 A 
ATOM     30  S   UNL     1      -3.586  -3.930   0.000  0.00  0.00    -0.089 S 
ENDBRANCH   1  26
ENDBRANCH   2   1
TORSDOF 4
