REMARK  Name = 
REMARK  6 active torsions:
REMARK  status: ('A' for Active; 'I' for Inactive)
REMARK    1  A    between atoms: N_2  and  C_4
REMARK    2  A    between atoms: C_7  and  C_10
REMARK    3  A    between atoms: N_12  and  C_13
REMARK    4  A    between atoms: C_13  and  C_14
REMARK    5  A    between atoms: C_16  and  C_17
REMARK    6  A    between atoms: C_21  and  N_22
REMARK                            x       y       z     vdW  Elec       q    Type
REMARK                         _______ _______ _______ _____ _____    ______ ____
ROOT
ATOM     14  C   UNL     1      -2.183  -0.336   0.000  0.00  0.00    +0.154 C 
ATOM     15  O   UNL     1      -2.735   0.278   0.000  0.00  0.00    -0.350 OA
ATOM     16  C   UNL     1      -2.322   0.992   0.000  0.00  0.00    +0.180 C 
ATOM     19  C   UNL     1      -1.515   0.821   0.000  0.00  0.00    +0.198 C 
ATOM     20  O   UNL     1      -0.902   1.373   0.000  0.00  0.00    -0.219 OA
ATOM     21  C   UNL     1      -1.429   0.000   0.000  0.00  0.00    +0.120 C 
ENDROOT
BRANCH  21  22
ATOM     22  N   UNL     1      -0.715  -0.412   0.000  0.00  0.00    -0.266 NA
ATOM     23  C   UNL     1      -0.715  -1.238   0.000  0.00  0.00    +0.077 C 
ATOM     24  C   UNL     1       0.000  -1.650   0.000  0.00  0.00    +0.043 C 
ATOM     25  C   UNL     1       0.715  -1.238   0.000  0.00  0.00    -0.023 A 
ATOM     26  C   UNL     1       0.715  -0.412   0.000  0.00  0.00    -0.010 A 
ATOM     27  C   UNL     1       0.000   0.000   0.000  0.00  0.00    +0.099 C 
ATOM     28  C   UNL     1       1.429   0.000   0.000  0.00  0.00    -0.003 A 
ATOM     29  C   UNL     1       2.143  -0.412   0.000  0.00  0.00    -0.000 A 
ATOM     30  C   UNL     1       2.143  -1.238   0.000  0.00  0.00    -0.000 A 
ATOM     31  C   UNL     1       1.429  -1.650   0.000  0.00  0.00    -0.004 A 
ENDBRANCH  21  22
BRANCH  16  17
ATOM     17  C   UNL     1      -2.658   1.746   0.000  0.00  0.00    +0.214 C 
ATOM     18  O   UNL     1      -2.173   2.413   0.000  0.00  0.00    -0.218 OA
ENDBRANCH  16  17
BRANCH  14  13
ATOM     13  C   UNL     1      -2.354  -1.143   0.000  0.00  0.00    +0.146 C 
BRANCH  13  12
ATOM     10  C   UNL     1      -3.310  -2.204   0.000  0.00  0.00    +0.265 C 
ATOM     11  O   UNL     1      -2.697  -2.756   0.000  0.00  0.00    -0.268 OA
ATOM     12  N   UNL     1      -3.139  -1.397   0.000  0.00  0.00    -0.199 NA
BRANCH  10   7
ATOM      4  C   UNL     1      -5.664  -2.969   0.000  0.00  0.00    +0.048 A 
ATOM      5  C   UNL     1      -5.493  -2.162   0.000  0.00  0.00    +0.015 A 
ATOM      6  C   UNL     1      -4.708  -1.907   0.000  0.00  0.00    +0.006 A 
ATOM      7  C   UNL     1      -4.095  -2.459   0.000  0.00  0.00    +0.055 A 
ATOM      8  C   UNL     1      -4.266  -3.266   0.000  0.00  0.00    +0.006 A 
ATOM      9  C   UNL     1      -5.051  -3.521   0.000  0.00  0.00    +0.015 A 
BRANCH   4   2
ATOM      1  C   UNL     1      -6.620  -4.031   0.000  0.00  0.00    +0.112 C 
ATOM      2  N   UNL     1      -6.449  -3.224   0.000  0.00  0.00    -0.304 N 
ATOM      3  C   UNL     1      -7.062  -2.672   0.000  0.00  0.00    +0.112 C 
ENDBRANCH   4   2
ENDBRANCH  10   7
ENDBRANCH  13  12
ENDBRANCH  14  13
TORSDOF 6
