MODEL 1
REMARK VINA RESULT:      -9.2      0.000      0.000
REMARK  Name = 
REMARK  7 active torsions:
REMARK  status: ('A' for Active; 'I' for Inactive)
REMARK    1  A    between atoms: O_2  and  C_3
REMARK    2  A    between atoms: C_3  and  C_4
REMARK    3  A    between atoms: C_10  and  C_13
REMARK    4  A    between atoms: C_16  and  C_18
REMARK    5  A    between atoms: N_22  and  C_23
REMARK    6  A    between atoms: C_23  and  C_24
REMARK    7  A    between atoms: C_27  and  O_28
REMARK                            x       y       z     vdW  Elec       q    Type
REMARK                         _______ _______ _______ _____ _____    ______ ____
ROOT
ATOM     13  C   UNL     1      -1.060  -0.387  24.436  0.00  0.00    +0.205 A 
ATOM     14  N   UNL     1      -1.149  -0.780  25.156  0.00  0.00    -0.056 NA
ATOM     15  O   UNL     1      -1.947  -0.970  25.245  0.00  0.00    -0.336 OA
ATOM     16  C   UNL     1      -2.351  -0.694  24.580  0.00  0.00    +0.251 A 
ATOM     17  N   UNL     1      -1.802  -0.334  24.080  0.00  0.00    -0.190 NA
ENDROOT
BRANCH  13  10
ATOM      4  C   UNL     1       2.289   0.261  22.806  0.00  0.00    +0.277 C 
ATOM      5  O   UNL     1       2.099  -0.536  22.723  0.00  0.00    -0.270 OA
ATOM      6  N   UNL     1       1.772   0.771  23.198  0.00  0.00    -0.158 NA
ATOM      7  C   UNL     1       1.064   0.482  23.507  0.00  0.00    +0.155 A 
ATOM      8  N   UNL     1       0.547   0.990  23.900  0.00  0.00    -0.227 NA
ATOM      9  C   UNL     1      -0.161   0.701  24.209  0.00  0.00    +0.103 A 
ATOM     10  C   UNL     1      -0.352  -0.097  24.126  0.00  0.00    +0.058 A 
ATOM     11  C   UNL     1       0.165  -0.607  23.734  0.00  0.00    +0.008 A 
ATOM     12  C   UNL     1       0.873  -0.317  23.425  0.00  0.00    +0.036 A 
BRANCH   4   3
ATOM      3  C   UNL     1       2.997   0.551  22.496  0.00  0.00    +0.229 C 
BRANCH   3   2
ATOM      1  C   UNL     1       4.389   0.764  22.737  0.00  0.00    +0.175 C 
ATOM      2  O   UNL     1       3.718   0.289  22.799  0.00  0.00    -0.342 OA
ENDBRANCH   3   2
ENDBRANCH   4   3
ENDBRANCH  13  10
BRANCH  16  18
ATOM     18  C   UNL     1      -3.160  -0.766  24.440  0.00  0.00    +0.138 C 
ATOM     19  C   UNL     1      -3.533  -1.400  24.065  0.00  0.00    +0.027 C 
ATOM     20  C   UNL     1      -4.342  -1.243  24.042  0.00  0.00    +0.019 C 
ATOM     21  C   UNL     1      -4.470  -0.512  24.403  0.00  0.00    +0.073 C 
ATOM     22  N   UNL     1      -3.740  -0.217  24.649  0.00  0.00    -0.263 NA
BRANCH  22  23
ATOM     23  C   UNL     1      -3.611   0.500  25.035  0.00  0.00    +0.099 C 
BRANCH  23  24
ATOM     24  C   UNL     1      -4.201   1.077  25.041  0.00  0.00    -0.006 A 
ATOM     25  C   UNL     1      -4.849   0.999  25.545  0.00  0.00    +0.000 A 
ATOM     26  C   UNL     1      -5.439   1.577  25.551  0.00  0.00    +0.037 A 
ATOM     27  C   UNL     1      -5.379   2.231  25.052  0.00  0.00    +0.139 A 
ATOM     30  C   UNL     1      -4.731   2.308  24.548  0.00  0.00    +0.037 A 
ATOM     31  C   UNL     1      -4.142   1.732  24.542  0.00  0.00    +0.000 A 
BRANCH  27  28
ATOM     28  O   UNL     1      -5.969   2.809  25.058  0.00  0.00    -0.471 OA
ATOM     29  C   UNL     1      -5.856   3.509  25.479  0.00  0.00    +0.252 C 
ENDBRANCH  27  28
ENDBRANCH  23  24
ENDBRANCH  22  23
ENDBRANCH  16  18
TORSDOF 7
ENDMDL
MODEL 2
REMARK VINA RESULT:      -8.2      2.404      4.177
REMARK  Name = 
REMARK  7 active torsions:
REMARK  status: ('A' for Active; 'I' for Inactive)
REMARK    1  A    between atoms: O_2  and  C_3
REMARK    2  A    between atoms: C_3  and  C_4
REMARK    3  A    between atoms: C_10  and  C_13
REMARK    4  A    between atoms: C_16  and  C_18
REMARK    5  A    between atoms: N_22  and  C_23
REMARK    6  A    between atoms: C_23  and  C_24
REMARK    7  A    between atoms: C_27  and  O_28
REMARK                            x       y       z     vdW  Elec       q    Type
REMARK                         _______ _______ _______ _____ _____    ______ ____
ROOT
ATOM     13  C   UNL     1      -0.373   1.823  25.039  0.00  0.00    +0.205 A 
ATOM     14  N   UNL     1       0.286   2.126  25.434  0.00  0.00    -0.056 NA
ATOM     15  O   UNL     1       0.184   2.941  25.512  0.00  0.00    -0.336 OA
ATOM     16  C   UNL     1      -0.538   3.142  25.165  0.00  0.00    +0.251 A 
ATOM     17  N   UNL     1      -0.881   2.451  24.873  0.00  0.00    -0.190 NA
ENDROOT
BRANCH  13  10
ATOM      4  C   UNL     1      -1.457  -1.778  24.658  0.00  0.00    +0.277 C 
ATOM      5  O   UNL     1      -1.907  -1.422  25.249  0.00  0.00    -0.270 OA
ATOM      6  N   UNL     1      -0.880  -1.343  24.260  0.00  0.00    -0.158 NA
ATOM      7  C   UNL     1      -0.753  -0.552  24.454  0.00  0.00    +0.155 A 
ATOM      8  N   UNL     1      -0.176  -0.116  24.057  0.00  0.00    -0.227 NA
ATOM      9  C   UNL     1      -0.049   0.676  24.252  0.00  0.00    +0.103 A 
ATOM     10  C   UNL     1      -0.499   1.031  24.844  0.00  0.00    +0.058 A 
ATOM     11  C   UNL     1      -1.077   0.597  25.242  0.00  0.00    +0.008 A 
ATOM     12  C   UNL     1      -1.204  -0.195  25.047  0.00  0.00    +0.036 A 
BRANCH   4   3
ATOM      3  C   UNL     1      -1.584  -2.570  24.463  0.00  0.00    +0.229 C 
BRANCH   3   2
ATOM      1  C   UNL     1      -2.751  -3.317  24.114  0.00  0.00    +0.175 C 
ATOM      2  O   UNL     1      -2.287  -2.942  24.683  0.00  0.00    -0.342 OA
ENDBRANCH   3   2
ENDBRANCH   4   3
ENDBRANCH  13  10
BRANCH  16  18
ATOM     18  C   UNL     1      -0.859   3.900  25.119  0.00  0.00    +0.138 C 
ATOM     19  C   UNL     1      -0.516   4.550  24.745  0.00  0.00    +0.027 C 
ATOM     20  C   UNL     1      -1.024   5.193  24.833  0.00  0.00    +0.019 C 
ATOM     21  C   UNL     1      -1.683   4.941  25.262  0.00  0.00    +0.073 C 
ATOM     22  N   UNL     1      -1.580   4.141  25.439  0.00  0.00    -0.263 NA
BRANCH  22  23
ATOM     23  C   UNL     1      -2.107   3.667  25.861  0.00  0.00    +0.099 C 
BRANCH  23  24
ATOM     24  C   UNL     1      -2.920   3.764  25.762  0.00  0.00    -0.006 A 
ATOM     25  C   UNL     1      -3.369   4.114  26.357  0.00  0.00    +0.000 A 
ATOM     26  C   UNL     1      -4.183   4.211  26.258  0.00  0.00    +0.037 A 
ATOM     27  C   UNL     1      -4.546   3.956  25.562  0.00  0.00    +0.139 A 
ATOM     30  C   UNL     1      -4.097   3.605  24.967  0.00  0.00    +0.037 A 
ATOM     31  C   UNL     1      -3.284   3.509  25.066  0.00  0.00    +0.000 A 
BRANCH  27  28
ATOM     28  O   UNL     1      -5.360   4.052  25.463  0.00  0.00    -0.471 OA
ATOM     29  C   UNL     1      -5.866   3.408  25.563  0.00  0.00    +0.252 C 
ENDBRANCH  27  28
ENDBRANCH  23  24
ENDBRANCH  22  23
ENDBRANCH  16  18
TORSDOF 7
ENDMDL
MODEL 3
REMARK VINA RESULT:      -8.2      2.179      2.569
REMARK  Name = 
REMARK  7 active torsions:
REMARK  status: ('A' for Active; 'I' for Inactive)
REMARK    1  A    between atoms: O_2  and  C_3
REMARK    2  A    between atoms: C_3  and  C_4
REMARK    3  A    between atoms: C_10  and  C_13
REMARK    4  A    between atoms: C_16  and  C_18
REMARK    5  A    between atoms: N_22  and  C_23
REMARK    6  A    between atoms: C_23  and  C_24
REMARK    7  A    between atoms: C_27  and  O_28
REMARK                            x       y       z     vdW  Elec       q    Type
REMARK                         _______ _______ _______ _____ _____    ______ ____
ROOT
ATOM     13  C   UNL     1      -0.506   0.354  23.855  0.00  0.00    +0.205 A 
ATOM     14  N   UNL     1      -0.864  -0.151  24.401  0.00  0.00    -0.056 NA
ATOM     15  O   UNL     1      -1.625   0.132  24.548  0.00  0.00    -0.336 OA
ATOM     16  C   UNL     1      -1.738   0.810  24.092  0.00  0.00    +0.251 A 
ATOM     17  N   UNL     1      -1.046   0.948  23.664  0.00  0.00    -0.190 NA
ENDROOT
BRANCH  13  10
ATOM      4  C   UNL     1       3.124   0.614  22.830  0.00  0.00    +0.277 C 
ATOM      5  O   UNL     1       2.934   1.254  23.314  0.00  0.00    -0.270 OA
ATOM      6  N   UNL     1       2.550   0.050  22.647  0.00  0.00    -0.158 NA
ATOM      7  C   UNL     1       1.786   0.126  22.949  0.00  0.00    +0.155 A 
ATOM      8  N   UNL     1       1.212  -0.437  22.766  0.00  0.00    -0.227 NA
ATOM      9  C   UNL     1       0.448  -0.361  23.068  0.00  0.00    +0.103 A 
ATOM     10  C   UNL     1       0.258   0.278  23.553  0.00  0.00    +0.058 A 
ATOM     11  C   UNL     1       0.832   0.843  23.736  0.00  0.00    +0.008 A 
ATOM     12  C   UNL     1       1.596   0.767  23.434  0.00  0.00    +0.036 A 
BRANCH   4   3
ATOM      3  C   UNL     1       3.888   0.538  22.528  0.00  0.00    +0.229 C 
BRANCH   3   2
ATOM      1  C   UNL     1       5.206   0.219  22.978  0.00  0.00    +0.175 C 
ATOM      2  O   UNL     1       4.539   0.704  23.006  0.00  0.00    -0.342 OA
ENDBRANCH   3   2
ENDBRANCH   4   3
ENDBRANCH  13  10
BRANCH  16  18
ATOM     18  C   UNL     1      -2.422   1.271  24.069  0.00  0.00    +0.138 C 
ATOM     19  C   UNL     1      -3.068   1.154  23.569  0.00  0.00    +0.027 C 
ATOM     20  C   UNL     1      -3.625   1.740  23.732  0.00  0.00    +0.019 C 
ATOM     21  C   UNL     1      -3.324   2.219  24.333  0.00  0.00    +0.073 C 
ATOM     22  N   UNL     1      -2.579   1.929  24.541  0.00  0.00    -0.263 NA
BRANCH  22  23
ATOM     23  C   UNL     1      -2.082   2.243  25.119  0.00  0.00    +0.099 C 
BRANCH  23  24
ATOM     24  C   UNL     1      -2.015   3.060  25.207  0.00  0.00    -0.006 A 
ATOM     25  C   UNL     1      -2.550   3.468  25.684  0.00  0.00    +0.000 A 
ATOM     26  C   UNL     1      -2.483   4.286  25.772  0.00  0.00    +0.037 A 
ATOM     27  C   UNL     1      -1.881   4.695  25.384  0.00  0.00    +0.139 A 
ATOM     30  C   UNL     1      -1.346   4.286  24.907  0.00  0.00    +0.037 A 
ATOM     31  C   UNL     1      -1.413   3.469  24.819  0.00  0.00    +0.000 A 
BRANCH  27  28
ATOM     28  O   UNL     1      -1.814   5.513  25.472  0.00  0.00    -0.471 OA
ATOM     29  C   UNL     1      -1.360   5.949  24.939  0.00  0.00    +0.252 C 
ENDBRANCH  27  28
ENDBRANCH  23  24
ENDBRANCH  22  23
ENDBRANCH  16  18
TORSDOF 7
ENDMDL
MODEL 4
REMARK VINA RESULT:      -7.9      1.540      2.194
REMARK  Name = 
REMARK  7 active torsions:
REMARK  status: ('A' for Active; 'I' for Inactive)
REMARK    1  A    between atoms: O_2  and  C_3
REMARK    2  A    between atoms: C_3  and  C_4
REMARK    3  A    between atoms: C_10  and  C_13
REMARK    4  A    between atoms: C_16  and  C_18
REMARK    5  A    between atoms: N_22  and  C_23
REMARK    6  A    between atoms: C_23  and  C_24
REMARK    7  A    between atoms: C_27  and  O_28
REMARK                            x       y       z     vdW  Elec       q    Type
REMARK                         _______ _______ _______ _____ _____    ______ ____
ROOT
ATOM     13  C   UNL     1      -0.361   1.061  24.390  0.00  0.00    +0.205 A 
ATOM     14  N   UNL     1      -0.860   0.553  24.808  0.00  0.00    -0.056 NA
ATOM     15  O   UNL     1      -1.461   1.007  25.146  0.00  0.00    -0.336 OA
ATOM     16  C   UNL     1      -1.333   1.795  24.938  0.00  0.00    +0.251 A 
ATOM     17  N   UNL     1      -0.653   1.828  24.470  0.00  0.00    -0.190 NA
ENDROOT
BRANCH  13  10
ATOM      4  C   UNL     1       3.019   0.625  22.754  0.00  0.00    +0.277 C 
ATOM      5  O   UNL     1       3.036   1.296  23.233  0.00  0.00    -0.270 OA
ATOM      6  N   UNL     1       2.329   0.175  22.697  0.00  0.00    -0.158 NA
ATOM      7  C   UNL     1       1.657   0.396  23.120  0.00  0.00    +0.155 A 
ATOM      8  N   UNL     1       0.967  -0.053  23.064  0.00  0.00    -0.227 NA
ATOM      9  C   UNL     1       0.294   0.169  23.488  0.00  0.00    +0.103 A 
ATOM     10  C   UNL     1       0.311   0.839  23.967  0.00  0.00    +0.058 A 
ATOM     11  C   UNL     1       1.001   1.289  24.024  0.00  0.00    +0.008 A 
ATOM     12  C   UNL     1       1.673   1.068  23.601  0.00  0.00    +0.036 A 
BRANCH   4   3
ATOM      3  C   UNL     1       3.691   0.404  22.331  0.00  0.00    +0.229 C 
BRANCH   3   2
ATOM      1  C   UNL     1       5.037   0.113  22.712  0.00  0.00    +0.175 C 
ATOM      2  O   UNL     1       4.436   0.661  22.575  0.00  0.00    -0.342 OA
ENDBRANCH   3   2
ENDBRANCH   4   3
ENDBRANCH  13  10
BRANCH  16  18
ATOM     18  C   UNL     1      -1.801   2.437  25.157  0.00  0.00    +0.138 C 
ATOM     19  C   UNL     1      -1.561   3.078  25.618  0.00  0.00    +0.027 C 
ATOM     20  C   UNL     1      -2.203   3.588  25.700  0.00  0.00    +0.019 C 
ATOM     21  C   UNL     1      -2.842   3.263  25.290  0.00  0.00    +0.073 C 
ATOM     22  N   UNL     1      -2.593   2.552  24.955  0.00  0.00    -0.263 NA
BRANCH  22  23
ATOM     23  C   UNL     1      -3.055   2.044  24.497  0.00  0.00    +0.099 C 
BRANCH  23  24
ATOM     24  C   UNL     1      -3.872   2.017  24.608  0.00  0.00    -0.006 A 
ATOM     25  C   UNL     1      -4.205   1.424  25.074  0.00  0.00    +0.000 A 
ATOM     26  C   UNL     1      -5.023   1.396  25.185  0.00  0.00    +0.037 A 
ATOM     27  C   UNL     1      -5.506   1.963  24.829  0.00  0.00    +0.139 A 
ATOM     30  C   UNL     1      -5.172   2.557  24.364  0.00  0.00    +0.037 A 
ATOM     31  C   UNL     1      -4.355   2.584  24.253  0.00  0.00    +0.000 A 
BRANCH  27  28
ATOM     28  O   UNL     1      -6.323   1.936  24.940  0.00  0.00    -0.471 OA
ATOM     29  C   UNL     1      -6.636   1.955  25.704  0.00  0.00    +0.252 C 
ENDBRANCH  27  28
ENDBRANCH  23  24
ENDBRANCH  22  23
ENDBRANCH  16  18
TORSDOF 7
ENDMDL
MODEL 5
REMARK VINA RESULT:      -7.8      1.462      2.973
REMARK  Name = 
REMARK  7 active torsions:
REMARK  status: ('A' for Active; 'I' for Inactive)
REMARK    1  A    between atoms: O_2  and  C_3
REMARK    2  A    between atoms: C_3  and  C_4
REMARK    3  A    between atoms: C_10  and  C_13
REMARK    4  A    between atoms: C_16  and  C_18
REMARK    5  A    between atoms: N_22  and  C_23
REMARK    6  A    between atoms: C_23  and  C_24
REMARK    7  A    between atoms: C_27  and  O_28
REMARK                            x       y       z     vdW  Elec       q    Type
REMARK                         _______ _______ _______ _____ _____    ______ ____
ROOT
ATOM     13  C   UNL     1      -1.860   2.068  24.142  0.00  0.00    +0.205 A 
ATOM     14  N   UNL     1      -2.283   2.721  23.867  0.00  0.00    -0.056 NA
ATOM     15  O   UNL     1      -3.080   2.603  24.050  0.00  0.00    -0.336 OA
ATOM     16  C   UNL     1      -3.148   1.877  24.437  0.00  0.00    +0.251 A 
ATOM     17  N   UNL     1      -2.393   1.547  24.493  0.00  0.00    -0.190 NA
ENDROOT
BRANCH  13  10
ATOM      4  C   UNL     1       1.695   0.995  23.430  0.00  0.00    +0.277 C 
ATOM      5  O   UNL     1       1.176   0.480  23.048  0.00  0.00    -0.270 OA
ATOM      6  N   UNL     1       1.400   1.622  23.878  0.00  0.00    -0.158 NA
ATOM      7  C   UNL     1       0.585   1.733  23.944  0.00  0.00    +0.155 A 
ATOM      8  N   UNL     1       0.289   2.359  24.392  0.00  0.00    -0.227 NA
ATOM      9  C   UNL     1      -0.526   2.471  24.458  0.00  0.00    +0.103 A 
ATOM     10  C   UNL     1      -1.045   1.956  24.076  0.00  0.00    +0.058 A 
ATOM     11  C   UNL     1      -0.750   1.329  23.628  0.00  0.00    +0.008 A 
ATOM     12  C   UNL     1       0.065   1.218  23.562  0.00  0.00    +0.036 A 
BRANCH   4   3
ATOM      3  C   UNL     1       2.509   0.883  23.364  0.00  0.00    +0.229 C 
BRANCH   3   2
ATOM      1  C   UNL     1       3.643   0.550  22.559  0.00  0.00    +0.175 C 
ATOM      2  O   UNL     1       2.826   0.549  22.679  0.00  0.00    -0.342 OA
ENDBRANCH   3   2
ENDBRANCH   4   3
ENDBRANCH  13  10
BRANCH  16  18
ATOM     18  C   UNL     1      -3.846   1.541  24.717  0.00  0.00    +0.138 C 
ATOM     19  C   UNL     1      -4.390   1.902  25.222  0.00  0.00    +0.027 C 
ATOM     20  C   UNL     1      -5.004   1.370  25.360  0.00  0.00    +0.019 C 
ATOM     21  C   UNL     1      -4.841   0.678  24.940  0.00  0.00    +0.073 C 
ATOM     22  N   UNL     1      -4.125   0.784  24.543  0.00  0.00    -0.263 NA
BRANCH  22  23
ATOM     23  C   UNL     1      -3.754   0.231  24.057  0.00  0.00    +0.099 C 
BRANCH  23  24
ATOM     24  C   UNL     1      -3.807  -0.573  24.232  0.00  0.00    -0.006 A 
ATOM     25  C   UNL     1      -3.460  -0.870  24.919  0.00  0.00    +0.000 A 
ATOM     26  C   UNL     1      -3.513  -1.675  25.094  0.00  0.00    +0.037 A 
ATOM     27  C   UNL     1      -3.913  -2.183  24.581  0.00  0.00    +0.139 A 
ATOM     30  C   UNL     1      -4.260  -1.886  23.894  0.00  0.00    +0.037 A 
ATOM     31  C   UNL     1      -4.207  -1.082  23.720  0.00  0.00    +0.000 A 
BRANCH  27  28
ATOM     28  O   UNL     1      -3.966  -2.988  24.756  0.00  0.00    -0.471 OA
ATOM     29  C   UNL     1      -3.335  -3.489  24.581  0.00  0.00    +0.252 C 
ENDBRANCH  27  28
ENDBRANCH  23  24
ENDBRANCH  22  23
ENDBRANCH  16  18
TORSDOF 7
ENDMDL
MODEL 6
REMARK VINA RESULT:      -7.6      1.729      2.714
REMARK  Name = 
REMARK  7 active torsions:
REMARK  status: ('A' for Active; 'I' for Inactive)
REMARK    1  A    between atoms: O_2  and  C_3
REMARK    2  A    between atoms: C_3  and  C_4
REMARK    3  A    between atoms: C_10  and  C_13
REMARK    4  A    between atoms: C_16  and  C_18
REMARK    5  A    between atoms: N_22  and  C_23
REMARK    6  A    between atoms: C_23  and  C_24
REMARK    7  A    between atoms: C_27  and  O_28
REMARK                            x       y       z     vdW  Elec       q    Type
REMARK                         _______ _______ _______ _____ _____    ______ ____
ROOT
ATOM     13  C   UNL     1      -0.272   1.305  24.050  0.00  0.00    +0.205 A 
ATOM     14  N   UNL     1      -0.387   1.633  24.799  0.00  0.00    -0.056 NA
ATOM     15  O   UNL     1      -1.185   1.833  24.870  0.00  0.00    -0.336 OA
ATOM     16  C   UNL     1      -1.563   1.628  24.165  0.00  0.00    +0.251 A 
ATOM     17  N   UNL     1      -0.999   1.301  23.659  0.00  0.00    -0.190 NA
ENDROOT
BRANCH  13  10
ATOM      4  C   UNL     1       3.264   0.674  22.874  0.00  0.00    +0.277 C 
ATOM      5  O   UNL     1       3.223   1.423  23.215  0.00  0.00    -0.270 OA
ATOM      6  N   UNL     1       2.590   0.199  22.836  0.00  0.00    -0.158 NA
ATOM      7  C   UNL     1       1.875   0.476  23.140  0.00  0.00    +0.155 A 
ATOM      8  N   UNL     1       1.200   0.003  23.102  0.00  0.00    -0.227 NA
ATOM      9  C   UNL     1       0.484   0.279  23.406  0.00  0.00    +0.103 A 
ATOM     10  C   UNL     1       0.443   1.028  23.747  0.00  0.00    +0.058 A 
ATOM     11  C   UNL     1       1.117   1.503  23.784  0.00  0.00    +0.008 A 
ATOM     12  C   UNL     1       1.833   1.226  23.481  0.00  0.00    +0.036 A 
BRANCH   4   3
ATOM      3  C   UNL     1       3.980   0.398  22.571  0.00  0.00    +0.229 C 
BRANCH   3   2
ATOM      1  C   UNL     1       5.283   0.026  23.027  0.00  0.00    +0.175 C 
ATOM      2  O   UNL     1       4.690   0.594  22.943  0.00  0.00    -0.342 OA
ENDBRANCH   3   2
ENDBRANCH   4   3
ENDBRANCH  13  10
BRANCH  16  18
ATOM     18  C   UNL     1      -2.364   1.731  23.997  0.00  0.00    +0.138 C 
ATOM     19  C   UNL     1      -2.691   2.346  23.556  0.00  0.00    +0.027 C 
ATOM     20  C   UNL     1      -3.507   2.233  23.525  0.00  0.00    +0.019 C 
ATOM     21  C   UNL     1      -3.685   1.547  23.948  0.00  0.00    +0.073 C 
ATOM     22  N   UNL     1      -2.978   1.236  24.239  0.00  0.00    -0.263 NA
BRANCH  22  23
ATOM     23  C   UNL     1      -2.900   0.552  24.693  0.00  0.00    +0.099 C 
BRANCH  23  24
ATOM     24  C   UNL     1      -3.333  -0.122  24.501  0.00  0.00    -0.006 A 
ATOM     25  C   UNL     1      -2.998  -0.707  24.025  0.00  0.00    +0.000 A 
ATOM     26  C   UNL     1      -3.433  -1.382  23.833  0.00  0.00    +0.037 A 
ATOM     27  C   UNL     1      -4.202  -1.472  24.117  0.00  0.00    +0.139 A 
ATOM     30  C   UNL     1      -4.536  -0.888  24.594  0.00  0.00    +0.037 A 
ATOM     31  C   UNL     1      -4.103  -0.213  24.786  0.00  0.00    +0.000 A 
BRANCH  27  28
ATOM     28  O   UNL     1      -4.636  -2.147  23.925  0.00  0.00    -0.471 OA
ATOM     29  C   UNL     1      -4.268  -2.886  23.923  0.00  0.00    +0.252 C 
ENDBRANCH  27  28
ENDBRANCH  23  24
ENDBRANCH  22  23
ENDBRANCH  16  18
TORSDOF 7
ENDMDL
MODEL 7
REMARK VINA RESULT:      -7.5      2.130      5.687
REMARK  Name = 
REMARK  7 active torsions:
REMARK  status: ('A' for Active; 'I' for Inactive)
REMARK    1  A    between atoms: O_2  and  C_3
REMARK    2  A    between atoms: C_3  and  C_4
REMARK    3  A    between atoms: C_10  and  C_13
REMARK    4  A    between atoms: C_16  and  C_18
REMARK    5  A    between atoms: N_22  and  C_23
REMARK    6  A    between atoms: C_23  and  C_24
REMARK    7  A    between atoms: C_27  and  O_28
REMARK                            x       y       z     vdW  Elec       q    Type
REMARK                         _______ _______ _______ _____ _____    ______ ____
ROOT
ATOM     13  C   UNL     1      -1.046   2.171  25.115  0.00  0.00    +0.205 A 
ATOM     14  N   UNL     1      -0.294   2.222  25.452  0.00  0.00    -0.056 NA
ATOM     15  O   UNL     1       0.168   1.616  25.134  0.00  0.00    -0.336 OA
ATOM     16  C   UNL     1      -0.298   1.192  24.602  0.00  0.00    +0.251 A 
ATOM     17  N   UNL     1      -1.048   1.535  24.591  0.00  0.00    -0.190 NA
ENDROOT
BRANCH  13  10
ATOM      4  C   UNL     1      -4.353   3.961  25.505  0.00  0.00    +0.277 C 
ATOM      5  O   UNL     1      -4.474   3.257  25.092  0.00  0.00    -0.270 OA
ATOM      6  N   UNL     1      -3.595   4.166  25.757  0.00  0.00    -0.158 NA
ATOM      7  C   UNL     1      -2.958   3.668  25.597  0.00  0.00    +0.155 A 
ATOM      8  N   UNL     1      -2.200   3.872  25.849  0.00  0.00    -0.227 NA
ATOM      9  C   UNL     1      -1.562   3.373  25.688  0.00  0.00    +0.103 A 
ATOM     10  C   UNL     1      -1.683   2.670  25.276  0.00  0.00    +0.058 A 
ATOM     11  C   UNL     1      -2.441   2.464  25.023  0.00  0.00    +0.008 A 
ATOM     12  C   UNL     1      -3.079   2.963  25.183  0.00  0.00    +0.036 A 
BRANCH   4   3
ATOM      3  C   UNL     1      -4.990   4.459  25.665  0.00  0.00    +0.229 C 
BRANCH   3   2
ATOM      1  C   UNL     1      -6.400   4.695  25.633  0.00  0.00    +0.175 C 
ATOM      2  O   UNL     1      -5.762   4.172  25.617  0.00  0.00    -0.342 OA
ENDBRANCH   3   2
ENDBRANCH   4   3
ENDBRANCH  13  10
BRANCH  16  18
ATOM     18  C   UNL     1      -0.057   0.539  24.160  0.00  0.00    +0.138 C 
ATOM     19  C   UNL     1       0.433   0.558  23.495  0.00  0.00    +0.027 C 
ATOM     20  C   UNL     1       0.530  -0.216  23.228  0.00  0.00    +0.019 C 
ATOM     21  C   UNL     1       0.101  -0.714  23.727  0.00  0.00    +0.073 C 
ATOM     22  N   UNL     1      -0.262  -0.247  24.303  0.00  0.00    -0.263 NA
BRANCH  22  23
ATOM     23  C   UNL     1      -0.744  -0.519  24.914  0.00  0.00    +0.099 C 
BRANCH  23  24
ATOM     24  C   UNL     1      -1.261  -1.147  24.783  0.00  0.00    -0.006 A 
ATOM     25  C   UNL     1      -0.999  -1.924  24.876  0.00  0.00    +0.000 A 
ATOM     26  C   UNL     1      -1.516  -2.553  24.745  0.00  0.00    +0.037 A 
ATOM     27  C   UNL     1      -2.297  -2.405  24.522  0.00  0.00    +0.139 A 
ATOM     30  C   UNL     1      -2.559  -1.629  24.429  0.00  0.00    +0.037 A 
ATOM     31  C   UNL     1      -2.042  -1.000  24.560  0.00  0.00    +0.000 A 
BRANCH  27  28
ATOM     28  O   UNL     1      -2.814  -3.035  24.391  0.00  0.00    -0.471 OA
ATOM     29  C   UNL     1      -3.629  -2.910  24.417  0.00  0.00    +0.252 C 
ENDBRANCH  27  28
ENDBRANCH  23  24
ENDBRANCH  22  23
ENDBRANCH  16  18
TORSDOF 7
ENDMDL
MODEL 8
REMARK VINA RESULT:      -7.2      2.727      4.216
REMARK  Name = 
REMARK  7 active torsions:
REMARK  status: ('A' for Active; 'I' for Inactive)
REMARK    1  A    between atoms: O_2  and  C_3
REMARK    2  A    between atoms: C_3  and  C_4
REMARK    3  A    between atoms: C_10  and  C_13
REMARK    4  A    between atoms: C_16  and  C_18
REMARK    5  A    between atoms: N_22  and  C_23
REMARK    6  A    between atoms: C_23  and  C_24
REMARK    7  A    between atoms: C_27  and  O_28
REMARK                            x       y       z     vdW  Elec       q    Type
REMARK                         _______ _______ _______ _____ _____    ______ ____
ROOT
ATOM     13  C   UNL     1      -4.287   0.433  24.920  0.00  0.00    +0.205 A 
ATOM     14  N   UNL     1      -5.029   0.390  24.560  0.00  0.00    -0.056 NA
ATOM     15  O   UNL     1      -5.401   1.121  24.653  0.00  0.00    -0.336 OA
ATOM     16  C   UNL     1      -4.889   1.616  25.070  0.00  0.00    +0.251 A 
ATOM     17  N   UNL     1      -4.201   1.191  25.234  0.00  0.00    -0.190 NA
ENDROOT
BRANCH  13  10
ATOM      4  C   UNL     1      -1.258  -1.828  24.972  0.00  0.00    +0.277 C 
ATOM      5  O   UNL     1      -1.014  -1.053  24.835  0.00  0.00    -0.270 OA
ATOM      6  N   UNL     1      -2.060  -1.997  25.071  0.00  0.00    -0.158 NA
ATOM      7  C   UNL     1      -2.617  -1.389  25.033  0.00  0.00    +0.155 A 
ATOM      8  N   UNL     1      -3.418  -1.557  25.133  0.00  0.00    -0.227 NA
ATOM      9  C   UNL     1      -3.975  -0.949  25.095  0.00  0.00    +0.103 A 
ATOM     10  C   UNL     1      -3.730  -0.174  24.958  0.00  0.00    +0.058 A 
ATOM     11  C   UNL     1      -2.929  -0.005  24.858  0.00  0.00    +0.008 A 
ATOM     12  C   UNL     1      -2.372  -0.613  24.896  0.00  0.00    +0.036 A 
BRANCH   4   3
ATOM      3  C   UNL     1      -0.701  -2.435  25.010  0.00  0.00    +0.229 C 
BRANCH   3   2
ATOM      1  C   UNL     1       0.544  -2.944  25.493  0.00  0.00    +0.175 C 
ATOM      2  O   UNL     1       0.005  -2.323  25.420  0.00  0.00    -0.342 OA
ENDBRANCH   3   2
ENDBRANCH   4   3
ENDBRANCH  13  10
BRANCH  16  18
ATOM     18  C   UNL     1      -5.038   2.398  25.284  0.00  0.00    +0.138 C 
ATOM     19  C   UNL     1      -5.705   2.672  25.685  0.00  0.00    +0.027 C 
ATOM     20  C   UNL     1      -5.627   3.487  25.784  0.00  0.00    +0.019 C 
ATOM     21  C   UNL     1      -4.911   3.717  25.444  0.00  0.00    +0.073 C 
ATOM     22  N   UNL     1      -4.547   3.044  25.135  0.00  0.00    -0.263 NA
BRANCH  22  23
ATOM     23  C   UNL     1      -3.821   3.021  24.745  0.00  0.00    +0.099 C 
BRANCH  23  24
ATOM     24  C   UNL     1      -3.256   3.604  24.892  0.00  0.00    -0.006 A 
ATOM     25  C   UNL     1      -3.178   4.242  24.376  0.00  0.00    +0.000 A 
ATOM     26  C   UNL     1      -2.612   4.826  24.522  0.00  0.00    +0.037 A 
ATOM     27  C   UNL     1      -2.125   4.769  25.185  0.00  0.00    +0.139 A 
ATOM     30  C   UNL     1      -2.203   4.130  25.701  0.00  0.00    +0.037 A 
ATOM     31  C   UNL     1      -2.768   3.548  25.555  0.00  0.00    +0.000 A 
BRANCH  27  28
ATOM     28  O   UNL     1      -1.559   5.352  25.332  0.00  0.00    -0.471 OA
ATOM     29  C   UNL     1      -0.830   5.324  24.947  0.00  0.00    +0.252 C 
ENDBRANCH  27  28
ENDBRANCH  23  24
ENDBRANCH  22  23
ENDBRANCH  16  18
TORSDOF 7
ENDMDL
MODEL 9
REMARK VINA RESULT:      -6.0     14.114     16.251
REMARK  Name = 
REMARK  7 active torsions:
REMARK  status: ('A' for Active; 'I' for Inactive)
REMARK    1  A    between atoms: O_2  and  C_3
REMARK    2  A    between atoms: C_3  and  C_4
REMARK    3  A    between atoms: C_10  and  C_13
REMARK    4  A    between atoms: C_16  and  C_18
REMARK    5  A    between atoms: N_22  and  C_23
REMARK    6  A    between atoms: C_23  and  C_24
REMARK    7  A    between atoms: C_27  and  O_28
REMARK                            x       y       z     vdW  Elec       q    Type
REMARK                         _______ _______ _______ _____ _____    ______ ____
ROOT
ATOM     13  C   UNL     1      -6.816 -10.174  13.933  0.00  0.00    +0.205 A 
ATOM     14  N   UNL     1      -7.144 -10.702  13.389  0.00  0.00    -0.056 NA
ATOM     15  O   UNL     1      -6.855 -10.510  12.641  0.00  0.00    -0.336 OA
ATOM     16  C   UNL     1      -6.348  -9.864  12.721  0.00  0.00    +0.251 A 
ATOM     17  N   UNL     1      -6.324  -9.657  13.520  0.00  0.00    -0.190 NA
ENDROOT
BRANCH  13  10
ATOM      4  C   UNL     1      -6.750 -10.265  17.711  0.00  0.00    +0.277 C 
ATOM      5  O   UNL     1      -5.988 -10.396  17.425  0.00  0.00    -0.270 OA
ATOM      6  N   UNL     1      -7.373 -10.142  17.185  0.00  0.00    -0.158 NA
ATOM      7  C   UNL     1      -7.234 -10.150  16.372  0.00  0.00    +0.155 A 
ATOM      8  N   UNL     1      -7.857 -10.028  15.845  0.00  0.00    -0.227 NA
ATOM      9  C   UNL     1      -7.717 -10.036  15.032  0.00  0.00    +0.103 A 
ATOM     10  C   UNL     1      -6.955 -10.166  14.746  0.00  0.00    +0.058 A 
ATOM     11  C   UNL     1      -6.331 -10.289  15.272  0.00  0.00    +0.008 A 
ATOM     12  C   UNL     1      -6.471 -10.281  16.085  0.00  0.00    +0.036 A 
BRANCH   4   3
ATOM      3  C   UNL     1      -6.889 -10.257  18.524  0.00  0.00    +0.229 C 
BRANCH   3   2
ATOM      1  C   UNL     1      -6.410 -10.418  19.861  0.00  0.00    +0.175 C 
ATOM      2  O   UNL     1      -6.263 -10.358  19.052  0.00  0.00    -0.342 OA
ENDBRANCH   3   2
ENDBRANCH   4   3
ENDBRANCH  13  10
BRANCH  16  18
ATOM     18  C   UNL     1      -5.937  -9.491  12.111  0.00  0.00    +0.138 C 
ATOM     19  C   UNL     1      -6.174  -8.806  11.715  0.00  0.00    +0.027 C 
ATOM     20  C   UNL     1      -5.601  -8.628  11.149  0.00  0.00    +0.019 C 
ATOM     21  C   UNL     1      -5.010  -9.203  11.195  0.00  0.00    +0.073 C 
ATOM     22  N   UNL     1      -5.218  -9.736  11.789  0.00  0.00    -0.263 NA
BRANCH  22  23
ATOM     23  C   UNL     1      -4.784 -10.397  12.021  0.00  0.00    +0.099 C 
BRANCH  23  24
ATOM     24  C   UNL     1      -3.966 -10.412  11.915  0.00  0.00    -0.006 A 
ATOM     25  C   UNL     1      -3.464 -10.259  12.551  0.00  0.00    +0.000 A 
ATOM     26  C   UNL     1      -2.646 -10.273  12.445  0.00  0.00    +0.037 A 
ATOM     27  C   UNL     1      -2.330 -10.441  11.701  0.00  0.00    +0.139 A 
ATOM     30  C   UNL     1      -2.832 -10.595  11.065  0.00  0.00    +0.037 A 
ATOM     31  C   UNL     1      -3.649 -10.580  11.171  0.00  0.00    +0.000 A 
BRANCH  27  28
ATOM     28  O   UNL     1      -1.512 -10.456  11.595  0.00  0.00    -0.471 OA
ATOM     29  C   UNL     1      -1.087  -9.749  11.574  0.00  0.00    +0.252 C 
ENDBRANCH  27  28
ENDBRANCH  23  24
ENDBRANCH  22  23
ENDBRANCH  16  18
TORSDOF 7
ENDMDL
MODEL 10
REMARK VINA RESULT:      -5.6     14.305     15.915
REMARK  Name = 
REMARK  7 active torsions:
REMARK  status: ('A' for Active; 'I' for Inactive)
REMARK    1  A    between atoms: O_2  and  C_3
REMARK    2  A    between atoms: C_3  and  C_4
REMARK    3  A    between atoms: C_10  and  C_13
REMARK    4  A    between atoms: C_16  and  C_18
REMARK    5  A    between atoms: N_22  and  C_23
REMARK    6  A    between atoms: C_23  and  C_24
REMARK    7  A    between atoms: C_27  and  O_28
REMARK                            x       y       z     vdW  Elec       q    Type
REMARK                         _______ _______ _______ _____ _____    ______ ____
ROOT
ATOM     13  C   UNL     1      -6.302  -9.870  13.075  0.00  0.00    +0.205 A 
ATOM     14  N   UNL     1      -6.217 -10.678  13.220  0.00  0.00    -0.056 NA
ATOM     15  O   UNL     1      -6.095 -10.781  14.030  0.00  0.00    -0.336 OA
ATOM     16  C   UNL     1      -6.104 -10.036  14.385  0.00  0.00    +0.251 A 
ATOM     17  N   UNL     1      -6.231  -9.474  13.795  0.00  0.00    -0.190 NA
ENDROOT
BRANCH  13  10
ATOM      4  C   UNL     1      -7.573  -8.511   9.785  0.00  0.00    +0.277 C 
ATOM      5  O   UNL     1      -8.189  -8.901  10.172  0.00  0.00    -0.270 OA
ATOM      6  N   UNL     1      -6.826  -8.471  10.133  0.00  0.00    -0.158 NA
ATOM      7  C   UNL     1      -6.695  -8.820  10.869  0.00  0.00    +0.155 A 
ATOM      8  N   UNL     1      -5.949  -8.781  11.218  0.00  0.00    -0.227 NA
ATOM      9  C   UNL     1      -5.818  -9.130  11.953  0.00  0.00    +0.103 A 
ATOM     10  C   UNL     1      -6.433  -9.520  12.340  0.00  0.00    +0.058 A 
ATOM     11  C   UNL     1      -7.180  -9.561  11.992  0.00  0.00    +0.008 A 
ATOM     12  C   UNL     1      -7.311  -9.211  11.256  0.00  0.00    +0.036 A 
BRANCH   4   3
ATOM      3  C   UNL     1      -7.705  -8.162   9.049  0.00  0.00    +0.229 C 
BRANCH   3   2
ATOM      1  C   UNL     1      -8.488  -7.284   8.238  0.00  0.00    +0.175 C 
ATOM      2  O   UNL     1      -8.417  -7.774   8.898  0.00  0.00    -0.342 OA
ENDBRANCH   3   2
ENDBRANCH   4   3
ENDBRANCH  13  10
BRANCH  16  18
ATOM     18  C   UNL     1      -6.003  -9.882  15.189  0.00  0.00    +0.138 C 
ATOM     19  C   UNL     1      -5.281  -9.818  15.584  0.00  0.00    +0.027 C 
ATOM     20  C   UNL     1      -5.437  -9.660  16.378  0.00  0.00    +0.019 C 
ATOM     21  C   UNL     1      -6.256  -9.626  16.475  0.00  0.00    +0.073 C 
ATOM     22  N   UNL     1      -6.606  -9.763  15.740  0.00  0.00    -0.263 NA
BRANCH  22  23
ATOM     23  C   UNL     1      -7.415  -9.778  15.583  0.00  0.00    +0.099 C 
BRANCH  23  24
ATOM     24  C   UNL     1      -7.956  -9.771  16.206  0.00  0.00    -0.006 A 
ATOM     25  C   UNL     1      -8.240 -10.481  16.514  0.00  0.00    +0.000 A 
ATOM     26  C   UNL     1      -8.781 -10.475  17.137  0.00  0.00    +0.037 A 
ATOM     27  C   UNL     1      -9.038  -9.757  17.452  0.00  0.00    +0.139 A 
ATOM     30  C   UNL     1      -8.754  -9.046  17.144  0.00  0.00    +0.037 A 
ATOM     31  C   UNL     1      -8.213  -9.053  16.521  0.00  0.00    +0.000 A 
BRANCH  27  28
ATOM     28  O   UNL     1      -9.579  -9.750  18.075  0.00  0.00    -0.471 OA
ATOM     29  C   UNL     1      -9.896 -10.459  18.353  0.00  0.00    +0.252 C 
ENDBRANCH  27  28
ENDBRANCH  23  24
ENDBRANCH  22  23
ENDBRANCH  16  18
TORSDOF 7
ENDMDL
