MODEL 1
REMARK VINA RESULT:     -11.1      0.000      0.000
REMARK  Name = 
REMARK  8 active torsions:
REMARK  status: ('A' for Active; 'I' for Inactive)
REMARK    1  A    between atoms: C_2  and  C_3
REMARK    2  A    between atoms: C_8  and  C_9
REMARK    3  A    between atoms: C_9  and  C_10
REMARK    4  A    between atoms: N_12  and  CA_13
REMARK    5  A    between atoms: CA_13  and  C_14
REMARK    6  A    between atoms: CA_13  and  CB_16
REMARK    7  A    between atoms: CB_16  and  CG_17
REMARK    8  A    between atoms: C_20  and  C_22
REMARK                            x       y       z     vdW  Elec       q    Type
REMARK                         _______ _______ _______ _____ _____    ______ ____
ROOT
ATOM      3  C   UNK A   0      -2.878   2.013  24.050  0.00  0.00    +0.020 C 
ATOM      4  C   UNK A   0      -2.670   2.673  24.499  0.00  0.00    +0.094 C 
ATOM      5  N   UNK A   0      -3.124   2.888  25.152  0.00  0.00    -0.276 N 
ATOM      6  C   UNK A   0      -3.788   2.443  25.358  0.00  0.00    +0.094 C 
ATOM      7  C   UNK A   0      -3.997   1.783  24.908  0.00  0.00    +0.022 C 
ATOM      8  C   UNK A   0      -3.543   1.568  24.255  0.00  0.00    +0.012 C 
ATOM     20  C   UNK A   0      -2.915   3.548  25.601  0.00  0.00    +0.249 C 
ATOM     21  O   UNK A   0      -3.370   3.763  26.255  0.00  0.00    -0.270 OA
ENDROOT
BRANCH  20  22
ATOM     22  C   UNK A   0      -2.252   3.993  25.395  0.00  0.00    +0.054 A 
ATOM     23  C   UNK A   0      -1.499   3.729  25.600  0.00  0.00    +0.007 A 
ATOM     24  C   UNK A   0      -0.835   4.175  25.394  0.00  0.00    +0.030 A 
ATOM     25  C   UNK A   0      -0.926   4.884  24.983  0.00  0.00    +0.140 A 
ATOM     26  F   UNK A   0      -0.262   5.329  24.777  0.00  0.00    -0.204 F 
ATOM     27  C   UNK A   0      -1.679   5.148  24.778  0.00  0.00    +0.030 A 
ATOM     28  C   UNK A   0      -2.343   4.703  24.984  0.00  0.00    +0.007 A 
ENDBRANCH  20  22
BRANCH   3   2
ATOM      1  C   UNK A   0      -2.473   2.237  22.698  0.00  0.00    +0.000 C 
ATOM      2  C   UNK A   0      -2.424   1.799  23.396  0.00  0.00    +0.002 C 
ENDBRANCH   3   2
BRANCH   8   9
ATOM      9  C   UNK A   0      -3.751   0.908  23.806  0.00  0.00    +0.087 C 
BRANCH   9  10
ATOM     10  C   UNK A   0      -3.971   0.207  24.182  0.00  0.00    +0.241 C 
ATOM     11  O   UNK A   0      -4.586   0.208  24.730  0.00  0.00    -0.273 OA
ATOM     12  N   LEU A   1      -3.574  -0.495  24.008  0.00  0.00    -0.204 NA
BRANCH  12  13
ATOM     13  CA  LEU A   1      -3.794  -1.196  24.384  0.00  0.00    +0.128 C 
BRANCH  13  14
ATOM     14  C   LEU A   1      -4.392  -1.664  24.066  0.00  0.00    +0.204 C 
ATOM     15  O   LEU A   1      -4.380  -1.862  23.264  0.00  0.00    -0.219 OA
ENDBRANCH  13  14
BRANCH  13  16
ATOM     16  CB  LEU A   1      -3.413  -1.428  25.080  0.00  0.00    +0.024 C 
BRANCH  16  17
ATOM     17  CG  LEU A   1      -2.957  -2.116  25.091  0.00  0.00    +0.002 C 
ATOM     18  CD1 LEU A   1      -3.281  -2.820  25.374  0.00  0.00    +0.000 C 
ATOM     19  CD2 LEU A   1      -2.180  -2.099  24.819  0.00  0.00    +0.000 C 
ENDBRANCH  16  17
ENDBRANCH  13  16
ENDBRANCH  12  13
ENDBRANCH   9  10
ENDBRANCH   8   9
TORSDOF 8
ENDMDL
MODEL 2
REMARK VINA RESULT:     -10.8      1.352      1.731
REMARK  Name = 
REMARK  8 active torsions:
REMARK  status: ('A' for Active; 'I' for Inactive)
REMARK    1  A    between atoms: C_2  and  C_3
REMARK    2  A    between atoms: C_8  and  C_9
REMARK    3  A    between atoms: C_9  and  C_10
REMARK    4  A    between atoms: N_12  and  CA_13
REMARK    5  A    between atoms: CA_13  and  C_14
REMARK    6  A    between atoms: CA_13  and  CB_16
REMARK    7  A    between atoms: CB_16  and  CG_17
REMARK    8  A    between atoms: C_20  and  C_22
REMARK                            x       y       z     vdW  Elec       q    Type
REMARK                         _______ _______ _______ _____ _____    ______ ____
ROOT
ATOM      3  C   UNK A   0      -2.175   1.911  24.167  0.00  0.00    +0.020 C 
ATOM      4  C   UNK A   0      -1.806   2.532  24.566  0.00  0.00    +0.094 C 
ATOM      5  N   UNK A   0      -1.242   2.372  25.145  0.00  0.00    -0.276 N 
ATOM      6  C   UNK A   0      -1.045   1.592  25.326  0.00  0.00    +0.094 C 
ATOM      7  C   UNK A   0      -1.414   0.971  24.927  0.00  0.00    +0.022 C 
ATOM      8  C   UNK A   0      -1.978   1.130  24.348  0.00  0.00    +0.012 C 
ATOM     20  C   UNK A   0      -0.873   2.994  25.544  0.00  0.00    +0.249 C 
ATOM     21  O   UNK A   0      -0.308   2.834  26.124  0.00  0.00    -0.270 OA
ENDROOT
BRANCH  20  22
ATOM     22  C   UNK A   0      -1.070   3.774  25.363  0.00  0.00    +0.054 A 
ATOM     23  C   UNK A   0      -1.741   4.118  25.696  0.00  0.00    +0.007 A 
ATOM     24  C   UNK A   0      -1.937   4.899  25.515  0.00  0.00    +0.030 A 
ATOM     25  C   UNK A   0      -1.462   5.335  25.000  0.00  0.00    +0.140 A 
ATOM     26  F   UNK A   0      -1.659   6.116  24.818  0.00  0.00    -0.204 F 
ATOM     27  C   UNK A   0      -0.792   4.990  24.667  0.00  0.00    +0.030 A 
ATOM     28  C   UNK A   0      -0.595   4.210  24.848  0.00  0.00    +0.007 A 
ENDBRANCH  20  22
BRANCH   3   2
ATOM      1  C   UNK A   0      -2.504   2.342  22.845  0.00  0.00    +0.000 C 
ATOM      2  C   UNK A   0      -2.740   2.071  23.587  0.00  0.00    +0.002 C 
ENDBRANCH   3   2
BRANCH   8   9
ATOM      9  C   UNK A   0      -2.347   0.510  23.949  0.00  0.00    +0.087 C 
BRANCH   9  10
ATOM     10  C   UNK A   0      -2.413  -0.231  24.309  0.00  0.00    +0.241 C 
ATOM     11  O   UNK A   0      -1.737  -0.631  24.555  0.00  0.00    -0.273 OA
ATOM     12  N   LEU A   1      -3.157  -0.569  24.421  0.00  0.00    -0.204 NA
BRANCH  12  13
ATOM     13  CA  LEU A   1      -3.223  -1.308  24.781  0.00  0.00    +0.128 C 
BRANCH  13  14
ATOM     14  C   LEU A   1      -3.425  -1.363  25.578  0.00  0.00    +0.204 C 
ATOM     15  O   LEU A   1      -3.970  -0.834  25.903  0.00  0.00    -0.219 OA
ENDBRANCH  13  14
BRANCH  13  16
ATOM     16  CB  LEU A   1      -3.085  -1.993  24.342  0.00  0.00    +0.024 C 
BRANCH  16  17
ATOM     17  CG  LEU A   1      -3.675  -2.568  24.278  0.00  0.00    +0.002 C 
ATOM     18  CD1 LEU A   1      -3.594  -3.287  24.673  0.00  0.00    +0.000 C 
ATOM     19  CD2 LEU A   1      -4.344  -2.421  23.819  0.00  0.00    +0.000 C 
ENDBRANCH  16  17
ENDBRANCH  13  16
ENDBRANCH  12  13
ENDBRANCH   9  10
ENDBRANCH   8   9
TORSDOF 8
ENDMDL
MODEL 3
REMARK VINA RESULT:     -10.1      1.888      5.229
REMARK  Name = 
REMARK  8 active torsions:
REMARK  status: ('A' for Active; 'I' for Inactive)
REMARK    1  A    between atoms: C_2  and  C_3
REMARK    2  A    between atoms: C_8  and  C_9
REMARK    3  A    between atoms: C_9  and  C_10
REMARK    4  A    between atoms: N_12  and  CA_13
REMARK    5  A    between atoms: CA_13  and  C_14
REMARK    6  A    between atoms: CA_13  and  CB_16
REMARK    7  A    between atoms: CB_16  and  CG_17
REMARK    8  A    between atoms: C_20  and  C_22
REMARK                            x       y       z     vdW  Elec       q    Type
REMARK                         _______ _______ _______ _____ _____    ______ ____
ROOT
ATOM      3  C   UNK A   0      -3.211   1.295  23.970  0.00  0.00    +0.020 C 
ATOM      4  C   UNK A   0      -3.498   0.569  24.236  0.00  0.00    +0.094 C 
ATOM      5  N   UNK A   0      -4.145   0.543  24.746  0.00  0.00    -0.276 N 
ATOM      6  C   UNK A   0      -4.506   1.243  24.992  0.00  0.00    +0.094 C 
ATOM      7  C   UNK A   0      -4.218   1.970  24.726  0.00  0.00    +0.022 C 
ATOM      8  C   UNK A   0      -3.572   1.996  24.216  0.00  0.00    +0.012 C 
ATOM     20  C   UNK A   0      -4.432  -0.184  25.012  0.00  0.00    +0.249 C 
ATOM     21  O   UNK A   0      -5.079  -0.210  25.523  0.00  0.00    -0.270 OA
ENDROOT
BRANCH  20  22
ATOM     22  C   UNK A   0      -4.071  -0.884  24.767  0.00  0.00    +0.054 A 
ATOM     23  C   UNK A   0      -4.347  -1.278  24.097  0.00  0.00    +0.007 A 
ATOM     24  C   UNK A   0      -3.985  -1.978  23.852  0.00  0.00    +0.030 A 
ATOM     25  C   UNK A   0      -3.348  -2.284  24.277  0.00  0.00    +0.140 A 
ATOM     26  F   UNK A   0      -2.987  -2.984  24.032  0.00  0.00    -0.204 F 
ATOM     27  C   UNK A   0      -3.073  -1.891  24.947  0.00  0.00    +0.030 A 
ATOM     28  C   UNK A   0      -3.433  -1.191  25.192  0.00  0.00    +0.007 A 
ENDBRANCH  20  22
BRANCH   3   2
ATOM      1  C   UNK A   0      -2.664   1.151  22.658  0.00  0.00    +0.000 C 
ATOM      2  C   UNK A   0      -2.564   1.321  23.459  0.00  0.00    +0.002 C 
ENDBRANCH   3   2
BRANCH   8   9
ATOM      9  C   UNK A   0      -3.285   2.722  23.950  0.00  0.00    +0.087 C 
BRANCH   9  10
ATOM     10  C   UNK A   0      -3.197   3.349  24.479  0.00  0.00    +0.241 C 
ATOM     11  O   UNK A   0      -3.851   3.802  24.694  0.00  0.00    -0.273 OA
ATOM     12  N   LEU A   1      -2.454   3.522  24.793  0.00  0.00    -0.204 NA
BRANCH  12  13
ATOM     13  CA  LEU A   1      -2.366   4.149  25.322  0.00  0.00    +0.128 C 
BRANCH  13  14
ATOM     14  C   LEU A   1      -2.753   4.132  26.049  0.00  0.00    +0.204 C 
ATOM     15  O   LEU A   1      -2.979   4.837  26.414  0.00  0.00    -0.219 OA
ENDBRANCH  13  14
BRANCH  13  16
ATOM     16  CB  LEU A   1      -1.891   4.793  25.122  0.00  0.00    +0.024 C 
BRANCH  16  17
ATOM     17  CG  LEU A   1      -1.073   4.698  25.057  0.00  0.00    +0.002 C 
ATOM     18  CD1 LEU A   1      -0.633   5.226  24.600  0.00  0.00    +0.000 C 
ATOM     19  CD2 LEU A   1      -0.698   4.077  25.447  0.00  0.00    +0.000 C 
ENDBRANCH  16  17
ENDBRANCH  13  16
ENDBRANCH  12  13
ENDBRANCH   9  10
ENDBRANCH   8   9
TORSDOF 8
ENDMDL
MODEL 4
REMARK VINA RESULT:     -10.0      2.065      5.494
REMARK  Name = 
REMARK  8 active torsions:
REMARK  status: ('A' for Active; 'I' for Inactive)
REMARK    1  A    between atoms: C_2  and  C_3
REMARK    2  A    between atoms: C_8  and  C_9
REMARK    3  A    between atoms: C_9  and  C_10
REMARK    4  A    between atoms: N_12  and  CA_13
REMARK    5  A    between atoms: CA_13  and  C_14
REMARK    6  A    between atoms: CA_13  and  CB_16
REMARK    7  A    between atoms: CB_16  and  CG_17
REMARK    8  A    between atoms: C_20  and  C_22
REMARK                            x       y       z     vdW  Elec       q    Type
REMARK                         _______ _______ _______ _____ _____    ______ ____
ROOT
ATOM      3  C   UNK A   0      -2.285   0.547  24.551  0.00  0.00    +0.020 C 
ATOM      4  C   UNK A   0      -2.837  -0.067  24.569  0.00  0.00    +0.094 C 
ATOM      5  N   UNK A   0      -3.638   0.096  24.467  0.00  0.00    -0.276 N 
ATOM      6  C   UNK A   0      -3.890   0.872  24.347  0.00  0.00    +0.094 C 
ATOM      7  C   UNK A   0      -3.339   1.486  24.329  0.00  0.00    +0.022 C 
ATOM      8  C   UNK A   0      -2.538   1.324  24.431  0.00  0.00    +0.012 C 
ATOM     20  C   UNK A   0      -4.189  -0.519  24.485  0.00  0.00    +0.249 C 
ATOM     21  O   UNK A   0      -4.992  -0.356  24.383  0.00  0.00    -0.270 OA
ENDROOT
BRANCH  20  22
ATOM     22  C   UNK A   0      -3.937  -1.295  24.605  0.00  0.00    +0.054 A 
ATOM     23  C   UNK A   0      -3.719  -1.546  25.359  0.00  0.00    +0.007 A 
ATOM     24  C   UNK A   0      -3.466  -2.323  25.479  0.00  0.00    +0.030 A 
ATOM     25  C   UNK A   0      -3.433  -2.847  24.844  0.00  0.00    +0.140 A 
ATOM     26  F   UNK A   0      -3.180  -3.624  24.964  0.00  0.00    -0.204 F 
ATOM     27  C   UNK A   0      -3.651  -2.597  24.090  0.00  0.00    +0.030 A 
ATOM     28  C   UNK A   0      -3.903  -1.821  23.969  0.00  0.00    +0.007 A 
ENDBRANCH  20  22
BRANCH   3   2
ATOM      1  C   UNK A   0      -1.058   0.013  24.052  0.00  0.00    +0.000 C 
ATOM      2  C   UNK A   0      -1.483   0.384  24.654  0.00  0.00    +0.002 C 
ENDBRANCH   3   2
BRANCH   8   9
ATOM      9  C   UNK A   0      -1.986   1.937  24.413  0.00  0.00    +0.087 C 
BRANCH   9  10
ATOM     10  C   UNK A   0      -2.234   2.717  24.526  0.00  0.00    +0.241 C 
ATOM     11  O   UNK A   0      -2.866   3.016  24.090  0.00  0.00    -0.273 OA
ATOM     12  N   LEU A   1      -1.847   3.196  25.075  0.00  0.00    -0.204 NA
BRANCH  12  13
ATOM     13  CA  LEU A   1      -2.095   3.975  25.187  0.00  0.00    +0.128 C 
BRANCH  13  14
ATOM     14  C   LEU A   1      -2.581   4.165  25.825  0.00  0.00    +0.204 C 
ATOM     15  O   LEU A   1      -2.440   3.832  26.567  0.00  0.00    -0.219 OA
ENDBRANCH  13  14
BRANCH  13  16
ATOM     16  CB  LEU A   1      -1.855   4.564  24.661  0.00  0.00    +0.024 C 
BRANCH  16  17
ATOM     17  CG  LEU A   1      -1.331   5.151  24.910  0.00  0.00    +0.002 C 
ATOM     18  CD1 LEU A   1      -1.616   5.899  25.111  0.00  0.00    +0.000 C 
ATOM     19  CD2 LEU A   1      -0.524   4.991  24.958  0.00  0.00    +0.000 C 
ENDBRANCH  16  17
ENDBRANCH  13  16
ENDBRANCH  12  13
ENDBRANCH   9  10
ENDBRANCH   8   9
TORSDOF 8
ENDMDL
MODEL 5
REMARK VINA RESULT:      -9.9      2.416      5.490
REMARK  Name = 
REMARK  8 active torsions:
REMARK  status: ('A' for Active; 'I' for Inactive)
REMARK    1  A    between atoms: C_2  and  C_3
REMARK    2  A    between atoms: C_8  and  C_9
REMARK    3  A    between atoms: C_9  and  C_10
REMARK    4  A    between atoms: N_12  and  CA_13
REMARK    5  A    between atoms: CA_13  and  C_14
REMARK    6  A    between atoms: CA_13  and  CB_16
REMARK    7  A    between atoms: CB_16  and  CG_17
REMARK    8  A    between atoms: C_20  and  C_22
REMARK                            x       y       z     vdW  Elec       q    Type
REMARK                         _______ _______ _______ _____ _____    ______ ____
ROOT
ATOM      3  C   UNK A   0      -2.164   0.718  24.065  0.00  0.00    +0.020 C 
ATOM      4  C   UNK A   0      -2.179  -0.022  24.431  0.00  0.00    +0.094 C 
ATOM      5  N   UNK A   0      -1.605  -0.218  24.988  0.00  0.00    -0.276 N 
ATOM      6  C   UNK A   0      -1.014   0.325  25.182  0.00  0.00    +0.094 C 
ATOM      7  C   UNK A   0      -0.999   1.065  24.816  0.00  0.00    +0.022 C 
ATOM      8  C   UNK A   0      -1.573   1.261  24.259  0.00  0.00    +0.012 C 
ATOM     20  C   UNK A   0      -1.620  -0.958  25.354  0.00  0.00    +0.249 C 
ATOM     21  O   UNK A   0      -1.045  -1.155  25.912  0.00  0.00    -0.270 OA
ENDROOT
BRANCH  20  22
ATOM     22  C   UNK A   0      -2.210  -1.501  25.160  0.00  0.00    +0.054 A 
ATOM     23  C   UNK A   0      -2.088  -2.044  24.553  0.00  0.00    +0.007 A 
ATOM     24  C   UNK A   0      -2.680  -2.587  24.359  0.00  0.00    +0.030 A 
ATOM     25  C   UNK A   0      -3.392  -2.585  24.775  0.00  0.00    +0.140 A 
ATOM     26  F   UNK A   0      -3.983  -3.128  24.581  0.00  0.00    -0.204 F 
ATOM     27  C   UNK A   0      -3.514  -2.042  25.383  0.00  0.00    +0.030 A 
ATOM     28  C   UNK A   0      -2.924  -1.500  25.576  0.00  0.00    +0.007 A 
ENDBRANCH  20  22
BRANCH   3   2
ATOM      1  C   UNK A   0      -3.533   0.952  23.729  0.00  0.00    +0.000 C 
ATOM      2  C   UNK A   0      -2.739   0.914  23.507  0.00  0.00    +0.002 C 
ENDBRANCH   3   2
BRANCH   8   9
ATOM      9  C   UNK A   0      -1.558   2.001  23.893  0.00  0.00    +0.087 C 
BRANCH   9  10
ATOM     10  C   UNK A   0      -1.236   2.650  24.289  0.00  0.00    +0.241 C 
ATOM     11  O   UNK A   0      -0.429   2.673  24.453  0.00  0.00    -0.273 OA
ATOM     12  N   LEU A   1      -1.723   3.274  24.521  0.00  0.00    -0.204 NA
BRANCH  12  13
ATOM     13  CA  LEU A   1      -1.400   3.922  24.916  0.00  0.00    +0.128 C 
BRANCH  13  14
ATOM     14  C   LEU A   1      -0.791   4.355  24.570  0.00  0.00    +0.204 C 
ATOM     15  O   LEU A   1      -0.428   4.966  24.990  0.00  0.00    -0.219 OA
ENDBRANCH  13  14
BRANCH  13  16
ATOM     16  CB  LEU A   1      -1.689   4.136  25.660  0.00  0.00    +0.024 C 
BRANCH  16  17
ATOM     17  CG  LEU A   1      -2.474   4.377  25.744  0.00  0.00    +0.002 C 
ATOM     18  CD1 LEU A   1      -2.959   4.013  26.303  0.00  0.00    +0.000 C 
ATOM     19  CD2 LEU A   1      -2.773   4.982  25.270  0.00  0.00    +0.000 C 
ENDBRANCH  16  17
ENDBRANCH  13  16
ENDBRANCH  12  13
ENDBRANCH   9  10
ENDBRANCH   8   9
TORSDOF 8
ENDMDL
