MODEL 1
REMARK VINA RESULT:     -16.8      0.000      0.000
REMARK  Name = 
REMARK  3 active torsions:
REMARK  status: ('A' for Active; 'I' for Inactive)
REMARK    1  A    between atoms: C_5  and  C_8
REMARK    2  A    between atoms: C_19  and  C_20
REMARK    3  A    between atoms: C_21  and  C_22
REMARK                            x       y       z     vdW  Elec       q    Type
REMARK                         _______ _______ _______ _____ _____    ______ ____
ROOT
ATOM      8  C   UNL     1      -1.213   2.050  24.256  0.00  0.00    +0.249 C 
ATOM      9  O   UNL     1      -0.425   1.831  23.994  0.00  0.00    -0.270 OA
ATOM     10  N   UNL     1      -1.211   2.851  24.595  0.00  0.00    -0.276 N 
ATOM     11  C   UNL     1      -0.821   3.558  24.811  0.00  0.00    +0.096 C 
ATOM     12  C   UNL     1      -1.585   4.059  25.188  0.00  0.00    +0.043 C 
ATOM     13  C   UNL     1      -2.098   4.594  25.525  0.00  0.00    +0.011 C 
ATOM     14  C   UNL     1      -2.127   3.946  25.257  0.00  0.00    +0.058 C 
ATOM     15  C   UNL     1      -1.379   3.474  24.896  0.00  0.00    +0.099 C 
ATOM     16  C   UNL     1      -2.714   3.259  25.091  0.00  0.00    +0.041 A 
ATOM     17  C   UNL     1      -3.511   3.063  25.179  0.00  0.00    +0.013 A 
ATOM     18  C   UNL     1      -3.784   2.327  24.925  0.00  0.00    +0.006 A 
ATOM     19  C   UNL     1      -3.261   1.788  24.584  0.00  0.00    +0.056 A 
ATOM     29  C   UNL     1      -2.464   1.984  24.496  0.00  0.00    +0.261 A 
ATOM     30  O   UNL     1      -2.585   1.189  24.185  0.00  0.00    -0.267 OA
ATOM     31  N   UNL     1      -2.191   2.720  24.750  0.00  0.00    -0.299 N 
ATOM     32  C   UNL     1      -2.191   3.336  25.012  0.00  0.00    +0.110 C 
ENDROOT
BRANCH   8   5
ATOM      1  C   UNL     1      -4.840   0.694  24.594  0.00  0.00    +0.031 C 
ATOM      2  C   UNL     1      -3.923   1.057  24.335  0.00  0.00    -0.022 A 
ATOM      3  C   UNL     1      -3.328   1.196  24.997  0.00  0.00    -0.004 A 
ATOM      4  C   UNL     1      -2.447   1.516  24.998  0.00  0.00    +0.004 A 
ATOM      5  C   UNL     1      -2.059   1.738  24.305  0.00  0.00    +0.054 A 
ATOM      6  C   UNL     1      -2.446   1.682  23.578  0.00  0.00    +0.004 A 
ATOM      7  C   UNL     1      -3.222   1.404  23.545  0.00  0.00    -0.004 A 
ENDBRANCH   8   5
BRANCH  19  20
ATOM     20  C   UNL     1      -3.443   0.980  24.280  0.00  0.00    +0.005 C 
ATOM     21  C   UNL     1      -3.385   0.455  25.088  0.00  0.00    +0.000 C 
BRANCH  21  22
ATOM     22  C   UNL     1      -3.563  -0.362  24.818  0.00  0.00    +0.000 A 
ATOM     23  C   UNL     1      -3.978  -0.557  24.133  0.00  0.00    +0.001 A 
ATOM     24  C   UNL     1      -4.108  -1.350  23.941  0.00  0.00    +0.011 A 
ATOM     25  C   UNL     1      -3.823  -1.945  24.436  0.00  0.00    +0.058 A 
ATOM     26 CL   UNL     1      -3.953  -2.771  24.246  0.00  0.00    -0.082 Cl
ATOM     27  C   UNL     1      -3.408  -1.749  25.121  0.00  0.00    +0.011 A 
ATOM     28  C   UNL     1      -3.278  -0.958  25.312  0.00  0.00    +0.001 A 
ENDBRANCH  21  22
ENDBRANCH  19  20
TORSDOF 3
ENDMDL
MODEL 2
REMARK VINA RESULT:     -16.5      1.241      1.919
REMARK  Name = 
REMARK  3 active torsions:
REMARK  status: ('A' for Active; 'I' for Inactive)
REMARK    1  A    between atoms: C_5  and  C_8
REMARK    2  A    between atoms: C_19  and  C_20
REMARK    3  A    between atoms: C_21  and  C_22
REMARK                            x       y       z     vdW  Elec       q    Type
REMARK                         _______ _______ _______ _____ _____    ______ ____
ROOT
ATOM      8  C   UNL     1      -2.830   2.457  24.735  0.00  0.00    +0.249 C 
ATOM      9  O   UNL     1      -2.069   2.853  24.684  0.00  0.00    -0.270 OA
ATOM     10  N   UNL     1      -3.448   3.014  24.988  0.00  0.00    -0.276 N 
ATOM     11  C   UNL     1      -3.703   3.775  25.219  0.00  0.00    +0.096 C 
ATOM     12  C   UNL     1      -4.664   3.592  25.360  0.00  0.00    +0.043 C 
ATOM     13  C   UNL     1      -5.463   3.606  25.517  0.00  0.00    +0.011 C 
ATOM     14  C   UNL     1      -4.983   3.137  25.312  0.00  0.00    +0.058 C 
ATOM     15  C   UNL     1      -4.057   3.330  25.180  0.00  0.00    +0.099 C 
ATOM     16  C   UNL     1      -4.892   2.252  25.082  0.00  0.00    +0.041 A 
ATOM     17  C   UNL     1      -5.337   1.562  25.002  0.00  0.00    +0.013 A 
ATOM     18  C   UNL     1      -4.972   0.862  24.764  0.00  0.00    +0.006 A 
ATOM     19  C   UNL     1      -4.162   0.851  24.606  0.00  0.00    +0.056 A 
ATOM     29  C   UNL     1      -3.717   1.541  24.686  0.00  0.00    +0.261 A 
ATOM     30  O   UNL     1      -3.192   0.906  24.432  0.00  0.00    -0.267 OA
ATOM     31  N   UNL     1      -4.082   2.241  24.924  0.00  0.00    -0.299 N 
ATOM     32  C   UNL     1      -4.559   2.669  25.118  0.00  0.00    +0.110 C 
ENDROOT
BRANCH   8   5
ATOM      1  C   UNL     1      -4.533  -1.016  24.355  0.00  0.00    +0.031 C 
ATOM      2  C   UNL     1      -4.073  -0.109  24.282  0.00  0.00    -0.022 A 
ATOM      3  C   UNL     1      -3.916   0.342  25.046  0.00  0.00    -0.004 A 
ATOM      4  C   UNL     1      -3.517   1.171  25.219  0.00  0.00    +0.004 A 
ATOM      5  C   UNL     1      -3.222   1.652  24.617  0.00  0.00    +0.054 A 
ATOM      6  C   UNL     1      -3.273   1.408  23.831  0.00  0.00    +0.004 A 
ATOM      7  C   UNL     1      -3.620   0.682  23.646  0.00  0.00    -0.004 A 
ENDBRANCH   8   5
BRANCH  19  20
ATOM     20  C   UNL     1      -3.673   0.165  24.347  0.00  0.00    +0.005 C 
ATOM     21  C   UNL     1      -3.488  -0.266  25.190  0.00  0.00    +0.000 C 
BRANCH  21  22
ATOM     22  C   UNL     1      -2.998  -0.960  24.966  0.00  0.00    +0.000 A 
ATOM     23  C   UNL     1      -3.220  -1.546  24.429  0.00  0.00    +0.001 A 
ATOM     24  C   UNL     1      -2.707  -2.172  24.266  0.00  0.00    +0.011 A 
ATOM     25  C   UNL     1      -1.973  -2.211  24.641  0.00  0.00    +0.058 A 
ATOM     26 CL   UNL     1      -1.434  -2.858  24.478  0.00  0.00    -0.082 Cl
ATOM     27  C   UNL     1      -1.752  -1.626  25.177  0.00  0.00    +0.011 A 
ATOM     28  C   UNL     1      -2.264  -1.000  25.340  0.00  0.00    +0.001 A 
ENDBRANCH  21  22
ENDBRANCH  19  20
TORSDOF 3
ENDMDL
MODEL 3
REMARK VINA RESULT:     -16.0      1.909      3.996
REMARK  Name = 
REMARK  3 active torsions:
REMARK  status: ('A' for Active; 'I' for Inactive)
REMARK    1  A    between atoms: C_5  and  C_8
REMARK    2  A    between atoms: C_19  and  C_20
REMARK    3  A    between atoms: C_21  and  C_22
REMARK                            x       y       z     vdW  Elec       q    Type
REMARK                         _______ _______ _______ _____ _____    ______ ____
ROOT
ATOM      8  C   UNL     1      -1.589  -0.310  24.510  0.00  0.00    +0.249 C 
ATOM      9  O   UNL     1      -0.751  -0.496  24.558  0.00  0.00    -0.270 OA
ATOM     10  N   UNL     1      -2.066  -1.035  24.562  0.00  0.00    -0.276 N 
ATOM     11  C   UNL     1      -2.140  -1.864  24.638  0.00  0.00    +0.096 C 
ATOM     12  C   UNL     1      -3.125  -1.945  24.610  0.00  0.00    +0.043 C 
ATOM     13  C   UNL     1      -3.905  -2.178  24.604  0.00  0.00    +0.011 C 
ATOM     14  C   UNL     1      -3.543  -1.579  24.560  0.00  0.00    +0.058 C 
ATOM     15  C   UNL     1      -2.590  -1.517  24.589  0.00  0.00    +0.099 C 
ATOM     16  C   UNL     1      -3.658  -0.672  24.469  0.00  0.00    +0.041 A 
ATOM     17  C   UNL     1      -4.253  -0.106  24.393  0.00  0.00    +0.013 A 
ATOM     18  C   UNL     1      -4.057   0.692  24.324  0.00  0.00    +0.006 A 
ATOM     19  C   UNL     1      -3.266   0.925  24.331  0.00  0.00    +0.056 A 
ATOM     29  C   UNL     1      -2.670   0.359  24.406  0.00  0.00    +0.261 A 
ATOM     30  O   UNL     1      -2.302   1.137  24.345  0.00  0.00    -0.267 OA
ATOM     31  N   UNL     1      -2.866  -0.439  24.476  0.00  0.00    -0.299 N 
ATOM     32  C   UNL     1      -3.235  -0.996  24.515  0.00  0.00    +0.110 C 
ENDROOT
BRANCH   8   5
ATOM      1  C   UNL     1      -4.081   2.661  24.256  0.00  0.00    +0.031 C 
ATOM      2  C   UNL     1      -3.389   1.920  24.158  0.00  0.00    -0.022 A 
ATOM      3  C   UNL     1      -3.238   1.393  24.873  0.00  0.00    -0.004 A 
ATOM      4  C   UNL     1      -2.662   0.667  25.012  0.00  0.00    +0.004 A 
ATOM      5  C   UNL     1      -2.160   0.385  24.423  0.00  0.00    +0.054 A 
ATOM      6  C   UNL     1      -2.151   0.743  23.680  0.00  0.00    +0.004 A 
ATOM      7  C   UNL     1      -2.647   1.385  23.526  0.00  0.00    -0.004 A 
ENDBRANCH   8   5
BRANCH  19  20
ATOM     20  C   UNL     1      -2.946   1.743  24.264  0.00  0.00    +0.005 C 
ATOM     21  C   UNL     1      -2.965   2.031  25.184  0.00  0.00    +0.000 C 
BRANCH  21  22
ATOM     22  C   UNL     1      -2.649   2.851  25.153  0.00  0.00    +0.000 A 
ATOM     23  C   UNL     1      -2.900   3.437  24.631  0.00  0.00    +0.001 A 
ATOM     24  C   UNL     1      -2.557   4.188  24.659  0.00  0.00    +0.011 A 
ATOM     25  C   UNL     1      -1.964   4.350  25.209  0.00  0.00    +0.058 A 
ATOM     26 CL   UNL     1      -1.602   5.126  25.246  0.00  0.00    -0.082 Cl
ATOM     27  C   UNL     1      -1.714   3.763  25.731  0.00  0.00    +0.011 A 
ATOM     28  C   UNL     1      -2.056   3.013  25.703  0.00  0.00    +0.001 A 
ENDBRANCH  21  22
ENDBRANCH  19  20
TORSDOF 3
ENDMDL
