REMARK  Name = 
REMARK  5 active torsions:
REMARK  status: ('A' for Active; 'I' for Inactive)
REMARK    1  A    between atoms: C_2  and  C_3
REMARK    2  A    between atoms: C_10  and  C_11
REMARK    3  A    between atoms: C_11  and  O_12
REMARK    4  A    between atoms: O_12  and  C_13
REMARK    5  A    between atoms: N_15  and  C_16
REMARK                            x       y       z     vdW  Elec       q    Type
REMARK                         _______ _______ _______ _____ _____    ______ ____
ROOT
ATOM     13  C   UNL     1       3.572  -0.412   0.000  0.00  0.00    +0.425 C 
ATOM     14  O   UNL     1       3.572  -1.238   0.000  0.00  0.00    -0.224 OA
ATOM     15  N   UNL     1       2.858   0.000   0.000  0.00  0.00    -0.142 NA
ENDROOT
BRANCH  15  16
ATOM     16  C   UNL     1       2.143  -0.412   0.000  0.00  0.00    +0.077 A 
ATOM     17  C   UNL     1       2.143  -1.238   0.000  0.00  0.00    +0.017 A 
ATOM     18  C   UNL     1       1.429  -1.650   0.000  0.00  0.00    +0.001 A 
ATOM     19  C   UNL     1       0.715  -1.238   0.000  0.00  0.00    +0.000 A 
ATOM     20  C   UNL     1       0.715  -0.412   0.000  0.00  0.00    +0.001 A 
ATOM     21  C   UNL     1       0.000   0.000   0.000  0.00  0.00    +0.000 A 
ATOM     22  C   UNL     1       0.000   0.825   0.000  0.00  0.00    +0.000 A 
ATOM     23  C   UNL     1       0.715   1.238   0.000  0.00  0.00    +0.000 A 
ATOM     24  C   UNL     1       1.429   0.825   0.000  0.00  0.00    +0.001 A 
ATOM     25  C   UNL     1       1.429   0.000   0.000  0.00  0.00    +0.015 A 
ENDBRANCH  15  16
BRANCH  13  12
ATOM     12  O   UNL     1       4.287   0.000   0.000  0.00  0.00    -0.432 OA
BRANCH  12  11
ATOM     11  C   UNL     1       5.001  -0.412   0.000  0.00  0.00    +0.226 C 
BRANCH  11  10
ATOM      3  C   UNL     1       7.346  -0.064   0.000  0.00  0.00    +0.016 C 
ATOM      4  C   UNL     1       7.088  -0.798   0.000  0.00  0.00    +0.072 C 
ATOM      5  N   UNL     1       6.621  -0.119   0.000  0.00  0.00    -0.271 NA
ATOM      6  C   UNL     1       7.270   0.704   0.000  0.00  0.00    +0.072 C 
ATOM      7  C   UNL     1       7.368   1.350   0.000  0.00  0.00    +0.017 C 
ATOM      8  C   UNL     1       6.879   0.598   0.000  0.00  0.00    +0.004 C 
ATOM      9  C   UNL     1       6.008   0.705   0.000  0.00  0.00    +0.020 C 
ATOM     10  C   UNL     1       5.716   0.000   0.000  0.00  0.00    +0.102 C 
BRANCH   3   2
ATOM      1  C   UNL     1       8.473   0.814   0.000  0.00  0.00    +0.000 C 
ATOM      2  C   UNL     1       8.163   0.050   0.000  0.00  0.00    +0.001 C 
ENDBRANCH   3   2
ENDBRANCH  11  10
ENDBRANCH  12  11
ENDBRANCH  13  12
TORSDOF 5
