MODEL 1
REMARK VINA RESULT:     -14.7      0.000      0.000
REMARK  Name = 
REMARK  4 active torsions:
REMARK  status: ('A' for Active; 'I' for Inactive)
REMARK    1  A    between atoms: C_7  and  C_8
REMARK    2  A    between atoms: N_16  and  C_17
REMARK    3  A    between atoms: C_17  and  C_18
REMARK    4  A    between atoms: C_21  and  C_22
REMARK                            x       y       z     vdW  Elec       q    Type
REMARK                         _______ _______ _______ _____ _____    ______ ____
ROOT
ATOM      8  C   UNL     1      -3.939  -0.095  24.928  0.00  0.00    +0.056 A 
ATOM      9  C   UNL     1      -4.724   0.157  24.967  0.00  0.00    +0.006 A 
ATOM     10  C   UNL     1      -4.903   0.960  24.908  0.00  0.00    +0.013 A 
ATOM     11  C   UNL     1      -4.297   1.511  24.810  0.00  0.00    +0.041 A 
ATOM     12  C   UNL     1      -4.163   2.415  24.717  0.00  0.00    +0.054 C 
ATOM     13  C   UNL     1      -4.512   3.024  24.689  0.00  0.00    +0.011 C 
ATOM     14  C   UNL     1      -3.738   2.771  24.651  0.00  0.00    +0.039 C 
ATOM     15  C   UNL     1      -2.758   2.665  24.583  0.00  0.00    +0.074 C 
ATOM     16  N   UNL     1      -2.702   1.835  24.654  0.00  0.00    -0.266 NA
ATOM     25  C   UNL     1      -3.214   2.330  24.650  0.00  0.00    +0.078 C 
ATOM     26  C   UNL     1      -3.868   1.825  24.747  0.00  0.00    +0.110 C 
ATOM     27  N   UNL     1      -3.512   1.259  24.771  0.00  0.00    -0.299 N 
ATOM     28  C   UNL     1      -3.333   0.455  24.830  0.00  0.00    +0.261 A 
ATOM     29  O   UNL     1      -2.549   0.203  24.791  0.00  0.00    -0.267 OA
ENDROOT
BRANCH   8   7
ATOM      1  C   UNL     1      -4.270  -1.107  23.668  0.00  0.00    +0.031 C 
ATOM      2  C   UNL     1      -3.927  -1.404  24.356  0.00  0.00    -0.022 A 
ATOM      3  C   UNL     1      -3.750  -2.208  24.414  0.00  0.00    -0.004 A 
ATOM      4  C   UNL     1      -3.407  -2.505  25.103  0.00  0.00    -0.000 A 
ATOM      5  C   UNL     1      -3.241  -2.000  25.734  0.00  0.00    -0.000 A 
ATOM      6  C   UNL     1      -3.419  -1.196  25.675  0.00  0.00    -0.000 A 
ATOM      7  C   UNL     1      -3.762  -0.898  24.987  0.00  0.00    +0.001 A 
ENDBRANCH   8   7
BRANCH  16  17
ATOM     17  C   UNL     1      -2.353   1.088  24.695  0.00  0.00    +0.138 C 
BRANCH  17  18
ATOM     18  C   UNL     1      -1.538   1.007  24.595  0.00  0.00    +0.139 A 
ATOM     19  C   UNL     1      -0.967   1.093  25.184  0.00  0.00    +0.037 A 
ATOM     20  C   UNL     1      -0.227   0.965  24.841  0.00  0.00    +0.038 A 
ATOM     21  C   UNL     1      -0.341   0.800  24.041  0.00  0.00    +0.156 A 
ATOM     24  O   UNL     1      -1.151   0.825  23.888  0.00  0.00    -0.458 OA
BRANCH  21  22
ATOM     22  C   UNL     1       0.251   0.637  23.490  0.00  0.00    +0.246 C 
ATOM     23  O   UNL     1       0.487  -0.142  23.356  0.00  0.00    -0.212 OA
ENDBRANCH  21  22
ENDBRANCH  17  18
ENDBRANCH  16  17
TORSDOF 4
ENDMDL
MODEL 2
REMARK VINA RESULT:     -13.7      1.061      3.058
REMARK  Name = 
REMARK  4 active torsions:
REMARK  status: ('A' for Active; 'I' for Inactive)
REMARK    1  A    between atoms: C_7  and  C_8
REMARK    2  A    between atoms: N_16  and  C_17
REMARK    3  A    between atoms: C_17  and  C_18
REMARK    4  A    between atoms: C_21  and  C_22
REMARK                            x       y       z     vdW  Elec       q    Type
REMARK                         _______ _______ _______ _____ _____    ______ ____
ROOT
ATOM      8  C   UNL     1      -3.992   0.479  24.393  0.00  0.00    +0.056 A 
ATOM      9  C   UNL     1      -4.584  -0.083  24.272  0.00  0.00    +0.006 A 
ATOM     10  C   UNL     1      -4.403  -0.887  24.305  0.00  0.00    +0.013 A 
ATOM     11  C   UNL     1      -3.630  -1.130  24.459  0.00  0.00    +0.041 A 
ATOM     12  C   UNL     1      -3.128  -1.893  24.556  0.00  0.00    +0.054 C 
ATOM     13  C   UNL     1      -3.181  -2.593  24.542  0.00  0.00    +0.011 C 
ATOM     14  C   UNL     1      -2.599  -2.036  24.661  0.00  0.00    +0.039 C 
ATOM     15  C   UNL     1      -1.770  -1.524  24.828  0.00  0.00    +0.074 C 
ATOM     16  N   UNL     1      -2.071  -0.747  24.771  0.00  0.00    -0.266 NA
ATOM     25  C   UNL     1      -2.318  -1.413  24.719  0.00  0.00    +0.078 C 
ATOM     26  C   UNL     1      -3.116  -1.233  24.561  0.00  0.00    +0.110 C 
ATOM     27  N   UNL     1      -3.038  -0.568  24.579  0.00  0.00    -0.299 N 
ATOM     28  C   UNL     1      -3.219   0.236  24.546  0.00  0.00    +0.261 A 
ATOM     29  O   UNL     1      -2.626   0.798  24.667  0.00  0.00    -0.267 OA
ENDROOT
BRANCH   8   7
ATOM      1  C   UNL     1      -5.009   1.140  25.511  0.00  0.00    +0.031 C 
ATOM      2  C   UNL     1      -4.682   1.613  24.919  0.00  0.00    -0.022 A 
ATOM      3  C   UNL     1      -4.865   2.417  24.887  0.00  0.00    -0.004 A 
ATOM      4  C   UNL     1      -4.538   2.890  24.296  0.00  0.00    -0.000 A 
ATOM      5  C   UNL     1      -4.029   2.560  23.736  0.00  0.00    -0.000 A 
ATOM      6  C   UNL     1      -3.847   1.755  23.769  0.00  0.00    -0.000 A 
ATOM      7  C   UNL     1      -4.173   1.282  24.360  0.00  0.00    +0.001 A 
ENDBRANCH   8   7
BRANCH  16  17
ATOM     17  C   UNL     1      -2.077   0.078  24.774  0.00  0.00    +0.138 C 
BRANCH  17  18
ATOM     18  C   UNL     1      -1.372   0.495  24.867  0.00  0.00    +0.139 A 
ATOM     19  C   UNL     1      -1.072   0.789  25.577  0.00  0.00    +0.037 A 
ATOM     20  C   UNL     1      -0.357   1.167  25.414  0.00  0.00    +0.038 A 
ATOM     21  C   UNL     1      -0.214   1.107  24.604  0.00  0.00    +0.156 A 
ATOM     24  O   UNL     1      -0.841   0.692  24.265  0.00  0.00    -0.458 OA
BRANCH  21  22
ATOM     22  C   UNL     1       0.441   1.409  24.203  0.00  0.00    +0.246 C 
ATOM     23  O   UNL     1       0.761   2.136  24.424  0.00  0.00    -0.212 OA
ENDBRANCH  21  22
ENDBRANCH  17  18
ENDBRANCH  16  17
TORSDOF 4
ENDMDL
MODEL 3
REMARK VINA RESULT:     -13.7      1.375      3.246
REMARK  Name = 
REMARK  4 active torsions:
REMARK  status: ('A' for Active; 'I' for Inactive)
REMARK    1  A    between atoms: C_7  and  C_8
REMARK    2  A    between atoms: N_16  and  C_17
REMARK    3  A    between atoms: C_17  and  C_18
REMARK    4  A    between atoms: C_21  and  C_22
REMARK                            x       y       z     vdW  Elec       q    Type
REMARK                         _______ _______ _______ _____ _____    ______ ____
ROOT
ATOM      8  C   UNL     1      -2.362  -0.002  24.900  0.00  0.00    +0.056 A 
ATOM      9  C   UNL     1      -1.605  -0.285  25.070  0.00  0.00    +0.006 A 
ATOM     10  C   UNL     1      -1.004   0.241  25.274  0.00  0.00    +0.013 A 
ATOM     11  C   UNL     1      -1.158   1.050  25.309  0.00  0.00    +0.041 A 
ATOM     12  C   UNL     1      -0.742   1.849  25.490  0.00  0.00    +0.054 C 
ATOM     13  C   UNL     1      -0.120   2.116  25.675  0.00  0.00    +0.011 C 
ATOM     14  C   UNL     1      -0.868   2.392  25.507  0.00  0.00    +0.039 C 
ATOM     15  C   UNL     1      -1.692   2.912  25.341  0.00  0.00    +0.074 C 
ATOM     16  N   UNL     1      -2.214   2.289  25.149  0.00  0.00    -0.266 NA
ATOM     25  C   UNL     1      -1.530   2.366  25.333  0.00  0.00    +0.078 C 
ATOM     26  C   UNL     1      -1.311   1.563  25.316  0.00  0.00    +0.110 C 
ATOM     27  N   UNL     1      -1.915   1.333  25.139  0.00  0.00    -0.299 N 
ATOM     28  C   UNL     1      -2.516   0.807  24.934  0.00  0.00    +0.261 A 
ATOM     29  O   UNL     1      -3.272   1.090  24.764  0.00  0.00    -0.267 OA
ENDROOT
BRANCH   8   7
ATOM      1  C   UNL     1      -2.968  -1.039  26.031  0.00  0.00    +0.031 C 
ATOM      2  C   UNL     1      -3.265  -1.047  25.262  0.00  0.00    -0.022 A 
ATOM      3  C   UNL     1      -3.866  -1.575  25.059  0.00  0.00    -0.004 A 
ATOM      4  C   UNL     1      -4.164  -1.584  24.290  0.00  0.00    -0.000 A 
ATOM      5  C   UNL     1      -3.862  -1.066  23.723  0.00  0.00    -0.000 A 
ATOM      6  C   UNL     1      -3.260  -0.538  23.927  0.00  0.00    -0.000 A 
ATOM      7  C   UNL     1      -2.962  -0.529  24.696  0.00  0.00    +0.001 A 
ENDBRANCH   8   7
BRANCH  16  17
ATOM     17  C   UNL     1      -2.915   1.912  24.932  0.00  0.00    +0.138 C 
BRANCH  17  18
ATOM     18  C   UNL     1      -3.610   2.348  24.851  0.00  0.00    +0.139 A 
ATOM     19  C   UNL     1      -3.867   2.728  24.166  0.00  0.00    +0.037 A 
ATOM     20  C   UNL     1      -4.587   3.096  24.334  0.00  0.00    +0.038 A 
ATOM     21  C   UNL     1      -4.774   2.944  25.122  0.00  0.00    +0.156 A 
ATOM     24  O   UNL     1      -4.172   2.482  25.443  0.00  0.00    -0.458 OA
BRANCH  21  22
ATOM     22  C   UNL     1      -5.447   3.207  25.520  0.00  0.00    +0.246 C 
ATOM     23  O   UNL     1      -5.597   4.016  25.588  0.00  0.00    -0.212 OA
ENDBRANCH  21  22
ENDBRANCH  17  18
ENDBRANCH  16  17
TORSDOF 4
ENDMDL
MODEL 4
REMARK VINA RESULT:     -13.6      1.272      3.971
REMARK  Name = 
REMARK  4 active torsions:
REMARK  status: ('A' for Active; 'I' for Inactive)
REMARK    1  A    between atoms: C_7  and  C_8
REMARK    2  A    between atoms: N_16  and  C_17
REMARK    3  A    between atoms: C_17  and  C_18
REMARK    4  A    between atoms: C_21  and  C_22
REMARK                            x       y       z     vdW  Elec       q    Type
REMARK                         _______ _______ _______ _____ _____    ______ ____
ROOT
ATOM      8  C   UNL     1      -1.409   0.406  25.156  0.00  0.00    +0.056 A 
ATOM      9  C   UNL     1      -1.123  -0.360  25.265  0.00  0.00    +0.006 A 
ATOM     10  C   UNL     1      -1.638  -1.003  25.226  0.00  0.00    +0.013 A 
ATOM     11  C   UNL     1      -2.440  -0.879  25.078  0.00  0.00    +0.041 A 
ATOM     12  C   UNL     1      -3.227  -1.343  24.978  0.00  0.00    +0.054 C 
ATOM     13  C   UNL     1      -3.486  -1.996  24.984  0.00  0.00    +0.011 C 
ATOM     14  C   UNL     1      -3.765  -1.238  24.877  0.00  0.00    +0.039 C 
ATOM     15  C   UNL     1      -4.286  -0.412  24.723  0.00  0.00    +0.074 C 
ATOM     16  N   UNL     1      -3.674   0.153  24.785  0.00  0.00    -0.266 NA
ATOM     25  C   UNL     1      -3.744  -0.555  24.828  0.00  0.00    +0.078 C 
ATOM     26  C   UNL     1      -2.948  -0.745  24.980  0.00  0.00    +0.110 C 
ATOM     27  N   UNL     1      -2.726  -0.113  24.969  0.00  0.00    -0.299 N 
ATOM     28  C   UNL     1      -2.211   0.529  25.008  0.00  0.00    +0.261 A 
ATOM     29  O   UNL     1      -2.497   1.296  24.899  0.00  0.00    -0.267 OA
ENDROOT
BRANCH   8   7
ATOM      1  C   UNL     1      -0.329   0.670  23.937  0.00  0.00    +0.031 C 
ATOM      2  C   UNL     1      -0.352   1.180  24.585  0.00  0.00    -0.022 A 
ATOM      3  C   UNL     1       0.164   1.821  24.624  0.00  0.00    -0.004 A 
ATOM      4  C   UNL     1       0.141   2.331  25.272  0.00  0.00    -0.000 A 
ATOM      5  C   UNL     1      -0.398   2.200  25.882  0.00  0.00    -0.000 A 
ATOM      6  C   UNL     1      -0.916   1.557  25.843  0.00  0.00    -0.000 A 
ATOM      7  C   UNL     1      -0.892   1.048  25.195  0.00  0.00    +0.001 A 
ENDBRANCH   8   7
BRANCH  16  17
ATOM     17  C   UNL     1      -3.306   0.892  24.791  0.00  0.00    +0.138 C 
BRANCH  17  18
ATOM     18  C   UNL     1      -3.756   1.577  24.699  0.00  0.00    +0.139 A 
ATOM     19  C   UNL     1      -3.872   1.990  23.994  0.00  0.00    +0.037 A 
ATOM     20  C   UNL     1      -4.357   2.638  24.156  0.00  0.00    +0.038 A 
ATOM     21  C   UNL     1      -4.542   2.625  24.960  0.00  0.00    +0.156 A 
ATOM     24  O   UNL     1      -4.171   1.969  25.296  0.00  0.00    -0.458 OA
BRANCH  21  22
ATOM     22  C   UNL     1      -5.014   3.171  25.358  0.00  0.00    +0.246 C 
ATOM     23  O   UNL     1      -5.560   2.913  25.920  0.00  0.00    -0.212 OA
ENDBRANCH  21  22
ENDBRANCH  17  18
ENDBRANCH  16  17
TORSDOF 4
ENDMDL
MODEL 5
REMARK VINA RESULT:     -13.6      1.288      3.508
REMARK  Name = 
REMARK  4 active torsions:
REMARK  status: ('A' for Active; 'I' for Inactive)
REMARK    1  A    between atoms: C_7  and  C_8
REMARK    2  A    between atoms: N_16  and  C_17
REMARK    3  A    between atoms: C_17  and  C_18
REMARK    4  A    between atoms: C_21  and  C_22
REMARK                            x       y       z     vdW  Elec       q    Type
REMARK                         _______ _______ _______ _____ _____    ______ ____
ROOT
ATOM      8  C   UNL     1      -2.631   2.765  24.887  0.00  0.00    +0.056 A 
ATOM      9  C   UNL     1      -2.846   3.548  25.032  0.00  0.00    +0.006 A 
ATOM     10  C   UNL     1      -3.632   3.736  25.198  0.00  0.00    +0.013 A 
ATOM     11  C   UNL     1      -4.203   3.141  25.220  0.00  0.00    +0.041 A 
ATOM     12  C   UNL     1      -5.102   3.020  25.364  0.00  0.00    +0.054 C 
ATOM     13  C   UNL     1      -5.688   3.375  25.517  0.00  0.00    +0.011 C 
ATOM     14  C   UNL     1      -5.472   2.603  25.374  0.00  0.00    +0.039 C 
ATOM     15  C   UNL     1      -5.410   1.627  25.230  0.00  0.00    +0.074 C 
ATOM     16  N   UNL     1      -4.592   1.560  25.074  0.00  0.00    -0.266 NA
ATOM     25  C   UNL     1      -5.059   2.076  25.228  0.00  0.00    +0.078 C 
ATOM     26  C   UNL     1      -4.531   2.720  25.221  0.00  0.00    +0.110 C 
ATOM     27  N   UNL     1      -3.988   2.358  25.074  0.00  0.00    -0.299 N 
ATOM     28  C   UNL     1      -3.202   2.170  24.908  0.00  0.00    +0.261 A 
ATOM     29  O   UNL     1      -2.987   1.387  24.763  0.00  0.00    -0.267 OA
ENDROOT
BRANCH   8   7
ATOM      1  C   UNL     1      -1.479   2.935  26.055  0.00  0.00    +0.031 C 
ATOM      2  C   UNL     1      -1.269   2.663  25.305  0.00  0.00    -0.022 A 
ATOM      3  C   UNL     1      -0.483   2.476  25.139  0.00  0.00    -0.004 A 
ATOM      4  C   UNL     1      -0.273   2.204  24.389  0.00  0.00    -0.000 A 
ATOM      5  C   UNL     1      -0.849   2.119  23.805  0.00  0.00    -0.000 A 
ATOM      6  C   UNL     1      -1.636   2.306  23.971  0.00  0.00    -0.000 A 
ATOM      7  C   UNL     1      -1.846   2.578  24.720  0.00  0.00    +0.001 A 
ENDBRANCH   8   7
BRANCH  16  17
ATOM     17  C   UNL     1      -3.869   1.204  24.896  0.00  0.00    +0.138 C 
BRANCH  17  18
ATOM     18  C   UNL     1      -3.820   0.384  24.824  0.00  0.00    +0.139 A 
ATOM     19  C   UNL     1      -3.944  -0.051  24.134  0.00  0.00    +0.037 A 
ATOM     20  C   UNL     1      -3.839  -0.850  24.314  0.00  0.00    +0.038 A 
ATOM     21  C   UNL     1      -3.650  -0.909  25.115  0.00  0.00    +0.156 A 
ATOM     24  O   UNL     1      -3.639  -0.147  25.431  0.00  0.00    -0.458 OA
BRANCH  21  22
ATOM     22  C   UNL     1      -3.500  -1.607  25.528  0.00  0.00    +0.246 C 
ATOM     23  O   UNL     1      -3.560  -2.335  25.144  0.00  0.00    -0.212 OA
ENDBRANCH  21  22
ENDBRANCH  17  18
ENDBRANCH  16  17
TORSDOF 4
ENDMDL
MODEL 6
REMARK VINA RESULT:     -13.4      1.583      2.706
REMARK  Name = 
REMARK  4 active torsions:
REMARK  status: ('A' for Active; 'I' for Inactive)
REMARK    1  A    between atoms: C_7  and  C_8
REMARK    2  A    between atoms: N_16  and  C_17
REMARK    3  A    between atoms: C_17  and  C_18
REMARK    4  A    between atoms: C_21  and  C_22
REMARK                            x       y       z     vdW  Elec       q    Type
REMARK                         _______ _______ _______ _____ _____    ______ ____
ROOT
ATOM      8  C   UNL     1      -3.108   0.748  24.666  0.00  0.00    +0.056 A 
ATOM      9  C   UNL     1      -3.734   0.232  24.514  0.00  0.00    +0.006 A 
ATOM     10  C   UNL     1      -4.512   0.501  24.566  0.00  0.00    +0.013 A 
ATOM     11  C   UNL     1      -4.665   1.286  24.771  0.00  0.00    +0.041 A 
ATOM     12  C   UNL     1      -5.365   1.864  24.907  0.00  0.00    +0.054 C 
ATOM     13  C   UNL     1      -6.067   1.892  24.898  0.00  0.00    +0.011 C 
ATOM     14  C   UNL     1      -5.446   2.398  25.047  0.00  0.00    +0.039 C 
ATOM     15  C   UNL     1      -4.843   3.151  25.261  0.00  0.00    +0.074 C 
ATOM     16  N   UNL     1      -4.105   2.767  25.177  0.00  0.00    -0.266 NA
ATOM     25  C   UNL     1      -4.795   2.602  25.117  0.00  0.00    +0.078 C 
ATOM     26  C   UNL     1      -4.708   1.801  24.907  0.00  0.00    +0.110 C 
ATOM     27  N   UNL     1      -4.039   1.801  24.923  0.00  0.00    -0.299 N 
ATOM     28  C   UNL     1      -3.260   1.533  24.870  0.00  0.00    +0.261 A 
ATOM     29  O   UNL     1      -2.634   2.048  25.022  0.00  0.00    -0.267 OA
ENDROOT
BRANCH   8   7
ATOM      1  C   UNL     1      -2.554  -0.381  25.733  0.00  0.00    +0.031 C 
ATOM      2  C   UNL     1      -2.053  -0.086  25.147  0.00  0.00    -0.022 A 
ATOM      3  C   UNL     1      -1.276  -0.356  25.095  0.00  0.00    -0.004 A 
ATOM      4  C   UNL     1      -0.775  -0.061  24.509  0.00  0.00    -0.000 A 
ATOM      5  C   UNL     1      -1.052   0.503  23.975  0.00  0.00    -0.000 A 
ATOM      6  C   UNL     1      -1.830   0.774  24.028  0.00  0.00    -0.000 A 
ATOM      7  C   UNL     1      -2.331   0.479  24.613  0.00  0.00    +0.001 A 
ENDBRANCH   8   7
BRANCH  16  17
ATOM     17  C   UNL     1      -3.286   2.668  25.171  0.00  0.00    +0.138 C 
BRANCH  17  18
ATOM     18  C   UNL     1      -2.792   3.304  25.347  0.00  0.00    +0.139 A 
ATOM     19  C   UNL     1      -2.530   3.520  26.099  0.00  0.00    +0.037 A 
ATOM     20  C   UNL     1      -2.048   4.186  26.018  0.00  0.00    +0.038 A 
ATOM     21  C   UNL     1      -2.014   4.381  25.218  0.00  0.00    +0.156 A 
ATOM     24  O   UNL     1      -2.473   3.836  24.803  0.00  0.00    -0.458 OA
BRANCH  21  22
ATOM     22  C   UNL     1      -1.593   5.011  24.890  0.00  0.00    +0.246 C 
ATOM     23  O   UNL     1      -0.769   5.026  24.937  0.00  0.00    -0.212 OA
ENDBRANCH  21  22
ENDBRANCH  17  18
ENDBRANCH  16  17
TORSDOF 4
ENDMDL
