MODEL 1
REMARK VINA RESULT:      -9.0      0.000      0.000
REMARK  Name = 
REMARK  9 active torsions:
REMARK  status: ('A' for Active; 'I' for Inactive)
REMARK    1  A    between atoms: N_2  and  C_3
REMARK    2  A    between atoms: C_3  and  C_4
REMARK    3  A    between atoms: N_6  and  C_7
REMARK    4  A    between atoms: C_9  and  C_15
REMARK    5  A    between atoms: N_17  and  C_18
REMARK    6  A    between atoms: C_18  and  C_19
REMARK    7  A    between atoms: C_18  and  C_25
REMARK    8  A    between atoms: C_19  and  C_20
REMARK    9  A    between atoms: C_20  and  S_21
REMARK                            x       y       z     vdW  Elec       q    Type
REMARK                         _______ _______ _______ _____ _____    ______ ____
ROOT
ATOM      7  C   UNL     1      -4.077   2.576  24.729  0.00  0.00    +0.150 C 
ATOM      8  C   UNL     1      -3.736   1.839  24.590  0.00  0.00    -0.002 C 
ATOM      9  C   UNL     1      -4.167   1.150  24.732  0.00  0.00    +0.033 C 
ATOM     10  C   UNL     1      -4.942   1.199  25.015  0.00  0.00    +0.066 C 
ATOM     11  C   UNL     1      -5.283   1.938  25.155  0.00  0.00    +0.189 C 
ATOM     12  O   UNL     1      -6.056   1.987  25.438  0.00  0.00    -0.220 OA
ATOM     13  C   UNL     1      -4.851   2.626  25.013  0.00  0.00    +0.206 C 
ATOM     14  O   UNL     1      -5.192   3.364  25.153  0.00  0.00    -0.218 OA
ENDROOT
BRANCH   7   6
ATOM      4  C   UNL     1      -2.968   3.426  25.027  0.00  0.00    +0.259 C 
ATOM      5  O   UNL     1      -2.720   2.898  25.612  0.00  0.00    -0.272 OA
ATOM      6  N   UNL     1      -3.646   3.265  24.587  0.00  0.00    -0.199 NA
BRANCH   4   3
ATOM      3  C   UNL     1      -2.536   4.115  24.885  0.00  0.00    +0.175 C 
BRANCH   3   2
ATOM      1  C   UNL     1      -1.400   4.940  25.153  0.00  0.00    +0.108 C 
ATOM      2  N   UNL     1      -1.866   4.283  25.334  0.00  0.00    -0.207 NA
ENDBRANCH   3   2
ENDBRANCH   4   3
ENDBRANCH   7   6
BRANCH   9  15
ATOM     15  C   UNL     1      -3.826   0.413  24.592  0.00  0.00    +0.261 C 
ATOM     16  O   UNL     1      -3.893   0.061  23.850  0.00  0.00    -0.269 OA
ATOM     17  N   UNL     1      -3.417   0.026  25.196  0.00  0.00    -0.194 NA
BRANCH  17  18
ATOM     18  C   UNL     1      -3.076  -0.712  25.057  0.00  0.00    +0.176 C 
BRANCH  18  25
ATOM     25  C   UNL     1      -3.459  -1.398  25.310  0.00  0.00    +0.281 C 
ATOM     26  N   UNL     1      -3.708  -1.959  24.759  0.00  0.00    -0.086 NA
ATOM     27  O   UNL     1      -3.593  -1.522  26.115  0.00  0.00    -0.270 OA
ENDBRANCH  18  25
BRANCH  18  19
ATOM     19  C   UNL     1      -2.353  -0.764  24.665  0.00  0.00    +0.056 C 
BRANCH  19  20
ATOM     20  C   UNL     1      -1.654  -0.852  25.096  0.00  0.00    +0.153 C 
BRANCH  20  21
ATOM     21  S   UNL     1      -0.924  -0.776  24.720  0.00  0.00    -0.008 S 
ATOM     22  C   UNL     1      -0.194  -0.700  24.343  0.00  0.00    +0.176 C 
ATOM     23  O   UNL     1      -1.055  -1.488  24.323  0.00  0.00    -0.173 OA
ATOM     24  O   UNL     1      -0.794  -0.065  25.117  0.00  0.00    -0.173 OA
ENDBRANCH  20  21
ENDBRANCH  19  20
ENDBRANCH  18  19
ENDBRANCH  17  18
ENDBRANCH   9  15
TORSDOF 9
ENDMDL
MODEL 2
REMARK VINA RESULT:      -8.2      1.532      3.886
REMARK  Name = 
REMARK  9 active torsions:
REMARK  status: ('A' for Active; 'I' for Inactive)
REMARK    1  A    between atoms: N_2  and  C_3
REMARK    2  A    between atoms: C_3  and  C_4
REMARK    3  A    between atoms: N_6  and  C_7
REMARK    4  A    between atoms: C_9  and  C_15
REMARK    5  A    between atoms: N_17  and  C_18
REMARK    6  A    between atoms: C_18  and  C_19
REMARK    7  A    between atoms: C_18  and  C_25
REMARK    8  A    between atoms: C_19  and  C_20
REMARK    9  A    between atoms: C_20  and  S_21
REMARK                            x       y       z     vdW  Elec       q    Type
REMARK                         _______ _______ _______ _____ _____    ______ ____
ROOT
ATOM      7  C   UNL     1      -4.699   1.463  24.714  0.00  0.00    +0.150 C 
ATOM      8  C   UNL     1      -4.000   1.883  24.598  0.00  0.00    -0.002 C 
ATOM      9  C   UNL     1      -3.935   2.660  24.869  0.00  0.00    +0.033 C 
ATOM     10  C   UNL     1      -4.571   3.016  25.257  0.00  0.00    +0.066 C 
ATOM     11  C   UNL     1      -5.271   2.594  25.373  0.00  0.00    +0.189 C 
ATOM     12  O   UNL     1      -5.907   2.950  25.761  0.00  0.00    -0.220 OA
ATOM     13  C   UNL     1      -5.336   1.818  25.102  0.00  0.00    +0.206 C 
ATOM     14  O   UNL     1      -6.035   1.397  25.219  0.00  0.00    -0.218 OA
ENDROOT
BRANCH   7   6
ATOM      4  C   UNL     1      -4.239   0.110  24.712  0.00  0.00    +0.259 C 
ATOM      5  O   UNL     1      -3.648   0.310  25.252  0.00  0.00    -0.272 OA
ATOM      6  N   UNL     1      -4.764   0.686  24.443  0.00  0.00    -0.199 NA
BRANCH   4   3
ATOM      3  C   UNL     1      -4.304  -0.667  24.441  0.00  0.00    +0.175 C 
BRANCH   3   2
ATOM      1  C   UNL     1      -3.804  -2.005  24.392  0.00  0.00    +0.108 C 
ATOM      2  N   UNL     1      -3.779  -1.243  24.708  0.00  0.00    -0.207 NA
ENDBRANCH   3   2
ENDBRANCH   4   3
ENDBRANCH   7   6
BRANCH   9  15
ATOM     15  C   UNL     1      -3.236   3.081  24.752  0.00  0.00    +0.261 C 
ATOM     16  O   UNL     1      -3.076   3.419  24.018  0.00  0.00    -0.269 OA
ATOM     17  N   UNL     1      -2.697   3.164  25.371  0.00  0.00    -0.194 NA
BRANCH  17  18
ATOM     18  C   UNL     1      -1.997   3.585  25.255  0.00  0.00    +0.176 C 
BRANCH  18  25
ATOM     25  C   UNL     1      -1.954   4.380  25.471  0.00  0.00    +0.281 C 
ATOM     26  N   UNL     1      -1.651   4.936  24.941  0.00  0.00    -0.086 NA
ATOM     27  O   UNL     1      -2.214   4.620  26.217  0.00  0.00    -0.270 OA
ENDBRANCH  18  25
BRANCH  18  19
ATOM     19  C   UNL     1      -1.341   3.211  24.924  0.00  0.00    +0.056 C 
BRANCH  19  20
ATOM     20  C   UNL     1      -0.761   2.884  25.413  0.00  0.00    +0.153 C 
BRANCH  20  21
ATOM     21  S   UNL     1      -0.224   2.338  25.107  0.00  0.00    -0.008 S 
ATOM     22  C   UNL     1       0.314   1.793  24.801  0.00  0.00    +0.176 C 
ATOM     23  O   UNL     1      -0.005   2.880  24.524  0.00  0.00    -0.173 OA
ATOM     24  O   UNL     1      -0.442   1.796  25.689  0.00  0.00    -0.173 OA
ENDBRANCH  20  21
ENDBRANCH  19  20
ENDBRANCH  18  19
ENDBRANCH  17  18
ENDBRANCH   9  15
TORSDOF 9
ENDMDL
MODEL 3
REMARK VINA RESULT:      -8.0      1.616      4.162
REMARK  Name = 
REMARK  9 active torsions:
REMARK  status: ('A' for Active; 'I' for Inactive)
REMARK    1  A    between atoms: N_2  and  C_3
REMARK    2  A    between atoms: C_3  and  C_4
REMARK    3  A    between atoms: N_6  and  C_7
REMARK    4  A    between atoms: C_9  and  C_15
REMARK    5  A    between atoms: N_17  and  C_18
REMARK    6  A    between atoms: C_18  and  C_19
REMARK    7  A    between atoms: C_18  and  C_25
REMARK    8  A    between atoms: C_19  and  C_20
REMARK    9  A    between atoms: C_20  and  S_21
REMARK                            x       y       z     vdW  Elec       q    Type
REMARK                         _______ _______ _______ _____ _____    ______ ____
ROOT
ATOM      7  C   UNL     1      -2.312  -0.818  24.575  0.00  0.00    +0.150 C 
ATOM      8  C   UNL     1      -2.730  -0.124  24.422  0.00  0.00    -0.002 C 
ATOM      9  C   UNL     1      -3.478  -0.011  24.751  0.00  0.00    +0.033 C 
ATOM     10  C   UNL     1      -3.809  -0.594  25.233  0.00  0.00    +0.066 C 
ATOM     11  C   UNL     1      -3.390  -1.289  25.386  0.00  0.00    +0.189 C 
ATOM     12  O   UNL     1      -3.720  -1.871  25.868  0.00  0.00    -0.220 OA
ATOM     13  C   UNL     1      -2.643  -1.401  25.057  0.00  0.00    +0.206 C 
ATOM     14  O   UNL     1      -2.224  -2.096  25.210  0.00  0.00    -0.218 OA
ENDROOT
BRANCH   7   6
ATOM      4  C   UNL     1      -0.958  -0.396  24.405  0.00  0.00    +0.259 C 
ATOM      5  O   UNL     1      -1.099   0.255  24.895  0.00  0.00    -0.272 OA
ATOM      6  N   UNL     1      -1.564  -0.931  24.246  0.00  0.00    -0.199 NA
BRANCH   4   3
ATOM      3  C   UNL     1      -0.209  -0.508  24.077  0.00  0.00    +0.175 C 
BRANCH   3   2
ATOM      1  C   UNL     1       0.841  -0.033  23.232  0.00  0.00    +0.108 C 
ATOM      2  N   UNL     1       0.169   0.113  23.688  0.00  0.00    -0.207 NA
ENDBRANCH   3   2
ENDBRANCH   4   3
ENDBRANCH   7   6
BRANCH   9  15
ATOM     15  C   UNL     1      -3.896   0.683  24.598  0.00  0.00    +0.261 C 
ATOM     16  O   UNL     1      -4.122   0.867  23.827  0.00  0.00    -0.269 OA
ATOM     17  N   UNL     1      -4.088   1.193  25.217  0.00  0.00    -0.194 NA
BRANCH  17  18
ATOM     18  C   UNL     1      -4.506   1.888  25.065  0.00  0.00    +0.176 C 
BRANCH  18  25
ATOM     25  C   UNL     1      -5.324   1.909  25.174  0.00  0.00    +0.281 C 
ATOM     26  N   UNL     1      -5.642   1.809  25.929  0.00  0.00    -0.086 NA
ATOM     27  O   UNL     1      -5.823   2.030  24.528  0.00  0.00    -0.270 OA
ENDBRANCH  18  25
BRANCH  18  19
ATOM     19  C   UNL     1      -4.107   2.561  24.805  0.00  0.00    +0.056 C 
BRANCH  19  20
ATOM     20  C   UNL     1      -3.855   3.128  25.349  0.00  0.00    +0.153 C 
BRANCH  20  21
ATOM     21  S   UNL     1      -3.281   3.680  25.134  0.00  0.00    -0.008 S 
ATOM     22  C   UNL     1      -2.708   4.232  24.918  0.00  0.00    +0.176 C 
ATOM     23  O   UNL     1      -2.797   3.417  25.748  0.00  0.00    -0.173 OA
ATOM     24  O   UNL     1      -3.765   3.944  24.520  0.00  0.00    -0.173 OA
ENDBRANCH  20  21
ENDBRANCH  19  20
ENDBRANCH  18  19
ENDBRANCH  17  18
ENDBRANCH   9  15
TORSDOF 9
ENDMDL
MODEL 4
REMARK VINA RESULT:      -8.0      1.717      4.951
REMARK  Name = 
REMARK  9 active torsions:
REMARK  status: ('A' for Active; 'I' for Inactive)
REMARK    1  A    between atoms: N_2  and  C_3
REMARK    2  A    between atoms: C_3  and  C_4
REMARK    3  A    between atoms: N_6  and  C_7
REMARK    4  A    between atoms: C_9  and  C_15
REMARK    5  A    between atoms: N_17  and  C_18
REMARK    6  A    between atoms: C_18  and  C_19
REMARK    7  A    between atoms: C_18  and  C_25
REMARK    8  A    between atoms: C_19  and  C_20
REMARK    9  A    between atoms: C_20  and  S_21
REMARK                            x       y       z     vdW  Elec       q    Type
REMARK                         _______ _______ _______ _____ _____    ______ ____
ROOT
ATOM      7  C   UNL     1      -1.546   0.120  24.362  0.00  0.00    +0.150 C 
ATOM      8  C   UNL     1      -2.136   0.695  24.330  0.00  0.00    -0.002 C 
ATOM      9  C   UNL     1      -1.940   1.493  24.404  0.00  0.00    +0.033 C 
ATOM     10  C   UNL     1      -1.152   1.716  24.510  0.00  0.00    +0.066 C 
ATOM     11  C   UNL     1      -0.561   1.141  24.542  0.00  0.00    +0.189 C 
ATOM     12  O   UNL     1       0.226   1.363  24.649  0.00  0.00    -0.220 OA
ATOM     13  C   UNL     1      -0.758   0.343  24.468  0.00  0.00    +0.206 C 
ATOM     14  O   UNL     1      -0.168  -0.232  24.500  0.00  0.00    -0.218 OA
ENDROOT
BRANCH   7   6
ATOM      4  C   UNL     1      -2.244  -1.032  24.837  0.00  0.00    +0.259 C 
ATOM      5  O   UNL     1      -2.552  -0.588  25.462  0.00  0.00    -0.272 OA
ATOM      6  N   UNL     1      -1.742  -0.678  24.288  0.00  0.00    -0.199 NA
BRANCH   4   3
ATOM      3  C   UNL     1      -2.440  -1.830  24.763  0.00  0.00    +0.175 C 
BRANCH   3   2
ATOM      1  C   UNL     1      -3.435  -2.853  24.853  0.00  0.00    +0.108 C 
ATOM      2  N   UNL     1      -3.147  -2.113  25.080  0.00  0.00    -0.207 NA
ENDBRANCH   3   2
ENDBRANCH   4   3
ENDBRANCH   7   6
BRANCH   9  15
ATOM     15  C   UNL     1      -2.530   2.068  24.372  0.00  0.00    +0.261 C 
ATOM     16  O   UNL     1      -2.770   2.373  23.644  0.00  0.00    -0.269 OA
ATOM     17  N   UNL     1      -2.880   2.339  25.068  0.00  0.00    -0.194 NA
BRANCH  17  18
ATOM     18  C   UNL     1      -3.470   2.914  25.037  0.00  0.00    +0.176 C 
BRANCH  18  25
ATOM     25  C   UNL     1      -3.281   3.707  25.170  0.00  0.00    +0.281 C 
ATOM     26  N   UNL     1      -2.980   3.942  25.902  0.00  0.00    -0.086 NA
ATOM     27  O   UNL     1      -3.393   4.264  24.572  0.00  0.00    -0.270 OA
ENDBRANCH  18  25
BRANCH  18  19
ATOM     19  C   UNL     1      -4.248   2.698  24.873  0.00  0.00    +0.056 C 
BRANCH  19  20
ATOM     20  C   UNL     1      -4.770   2.532  25.491  0.00  0.00    +0.153 C 
BRANCH  20  21
ATOM     21  S   UNL     1      -5.518   2.223  25.328  0.00  0.00    -0.008 S 
ATOM     22  C   UNL     1      -6.265   1.915  25.165  0.00  0.00    +0.176 C 
ATOM     23  O   UNL     1      -5.780   2.975  25.110  0.00  0.00    -0.173 OA
ATOM     24  O   UNL     1      -5.255   1.472  25.545  0.00  0.00    -0.173 OA
ENDBRANCH  20  21
ENDBRANCH  19  20
ENDBRANCH  18  19
ENDBRANCH  17  18
ENDBRANCH   9  15
TORSDOF 9
ENDMDL
MODEL 5
REMARK VINA RESULT:      -7.9      1.788      3.321
REMARK  Name = 
REMARK  9 active torsions:
REMARK  status: ('A' for Active; 'I' for Inactive)
REMARK    1  A    between atoms: N_2  and  C_3
REMARK    2  A    between atoms: C_3  and  C_4
REMARK    3  A    between atoms: N_6  and  C_7
REMARK    4  A    between atoms: C_9  and  C_15
REMARK    5  A    between atoms: N_17  and  C_18
REMARK    6  A    between atoms: C_18  and  C_19
REMARK    7  A    between atoms: C_18  and  C_25
REMARK    8  A    between atoms: C_19  and  C_20
REMARK    9  A    between atoms: C_20  and  S_21
REMARK                            x       y       z     vdW  Elec       q    Type
REMARK                         _______ _______ _______ _____ _____    ______ ____
ROOT
ATOM      7  C   UNL     1      -1.558   3.256  24.664  0.00  0.00    +0.150 C 
ATOM      8  C   UNL     1      -2.211   2.785  24.486  0.00  0.00    -0.002 C 
ATOM      9  C   UNL     1      -2.959   2.993  24.766  0.00  0.00    +0.033 C 
ATOM     10  C   UNL     1      -3.053   3.674  25.225  0.00  0.00    +0.066 C 
ATOM     11  C   UNL     1      -2.398   4.144  25.403  0.00  0.00    +0.189 C 
ATOM     12  O   UNL     1      -2.492   4.823  25.862  0.00  0.00    -0.220 OA
ATOM     13  C   UNL     1      -1.652   3.936  25.123  0.00  0.00    +0.206 C 
ATOM     14  O   UNL     1      -0.997   4.406  25.302  0.00  0.00    -0.218 OA
ENDROOT
BRANCH   7   6
ATOM      4  C   UNL     1      -0.473   2.327  24.601  0.00  0.00    +0.259 C 
ATOM      5  O   UNL     1      -0.885   1.813  25.099  0.00  0.00    -0.272 OA
ATOM      6  N   UNL     1      -0.810   3.048  24.384  0.00  0.00    -0.199 NA
BRANCH   4   3
ATOM      3  C   UNL     1       0.275   2.119  24.321  0.00  0.00    +0.175 C 
BRANCH   3   2
ATOM      1  C   UNL     1       1.121   1.135  23.724  0.00  0.00    +0.108 C 
ATOM      2  N   UNL     1       0.453   1.329  24.168  0.00  0.00    -0.207 NA
ENDBRANCH   3   2
ENDBRANCH   4   3
ENDBRANCH   7   6
BRANCH   9  15
ATOM     15  C   UNL     1      -3.612   2.523  24.588  0.00  0.00    +0.261 C 
ATOM     16  O   UNL     1      -3.942   2.545  23.833  0.00  0.00    -0.269 OA
ATOM     17  N   UNL     1      -3.934   2.030  25.165  0.00  0.00    -0.194 NA
BRANCH  17  18
ATOM     18  C   UNL     1      -4.588   1.559  24.987  0.00  0.00    +0.176 C 
BRANCH  18  25
ATOM     25  C   UNL     1      -5.349   1.831  25.154  0.00  0.00    +0.281 C 
ATOM     26  N   UNL     1      -5.563   2.010  25.931  0.00  0.00    -0.086 NA
ATOM     27  O   UNL     1      -5.897   1.924  24.544  0.00  0.00    -0.270 OA
ENDBRANCH  18  25
BRANCH  18  19
ATOM     19  C   UNL     1      -4.481   0.817  24.644  0.00  0.00    +0.056 C 
BRANCH  19  20
ATOM     20  C   UNL     1      -4.383   0.151  25.122  0.00  0.00    +0.153 C 
BRANCH  20  21
ATOM     21  S   UNL     1      -4.089  -0.549  24.800  0.00  0.00    -0.008 S 
ATOM     22  C   UNL     1      -3.794  -1.248  24.477  0.00  0.00    +0.176 C 
ATOM     23  O   UNL     1      -4.705  -0.556  24.252  0.00  0.00    -0.173 OA
ATOM     24  O   UNL     1      -3.472  -0.541  25.348  0.00  0.00    -0.173 OA
ENDBRANCH  20  21
ENDBRANCH  19  20
ENDBRANCH  18  19
ENDBRANCH  17  18
ENDBRANCH   9  15
TORSDOF 9
ENDMDL
MODEL 6
REMARK VINA RESULT:      -7.9      1.732      3.590
REMARK  Name = 
REMARK  9 active torsions:
REMARK  status: ('A' for Active; 'I' for Inactive)
REMARK    1  A    between atoms: N_2  and  C_3
REMARK    2  A    between atoms: C_3  and  C_4
REMARK    3  A    between atoms: N_6  and  C_7
REMARK    4  A    between atoms: C_9  and  C_15
REMARK    5  A    between atoms: N_17  and  C_18
REMARK    6  A    between atoms: C_18  and  C_19
REMARK    7  A    between atoms: C_18  and  C_25
REMARK    8  A    between atoms: C_19  and  C_20
REMARK    9  A    between atoms: C_20  and  S_21
REMARK                            x       y       z     vdW  Elec       q    Type
REMARK                         _______ _______ _______ _____ _____    ______ ____
ROOT
ATOM      7  C   UNL     1      -0.663   1.676  24.751  0.00  0.00    +0.150 C 
ATOM      8  C   UNL     1      -1.395   1.376  24.981  0.00  0.00    -0.002 C 
ATOM      9  C   UNL     1      -1.614   0.610  24.767  0.00  0.00    +0.033 C 
ATOM     10  C   UNL     1      -1.099   0.143  24.322  0.00  0.00    +0.066 C 
ATOM     11  C   UNL     1      -0.366   0.443  24.091  0.00  0.00    +0.189 C 
ATOM     12  O   UNL     1       0.149  -0.023  23.647  0.00  0.00    -0.220 OA
ATOM     13  C   UNL     1      -0.147   1.209  24.305  0.00  0.00    +0.206 C 
ATOM     14  O   UNL     1       0.586   1.509  24.075  0.00  0.00    -0.218 OA
ENDROOT
BRANCH   7   6
ATOM      4  C   UNL     1      -0.905   3.084  24.730  0.00  0.00    +0.259 C 
ATOM      5  O   UNL     1      -1.587   2.960  24.281  0.00  0.00    -0.272 OA
ATOM      6  N   UNL     1      -0.444   2.442  24.965  0.00  0.00    -0.199 NA
BRANCH   4   3
ATOM      3  C   UNL     1      -0.686   3.850  24.944  0.00  0.00    +0.175 C 
BRANCH   3   2
ATOM      1  C   UNL     1      -1.007   5.242  24.980  0.00  0.00    +0.108 C 
ATOM      2  N   UNL     1      -1.248   4.454  24.950  0.00  0.00    -0.207 NA
ENDBRANCH   3   2
ENDBRANCH   4   3
ENDBRANCH   7   6
BRANCH   9  15
ATOM     15  C   UNL     1      -2.347   0.310  24.998  0.00  0.00    +0.261 C 
ATOM     16  O   UNL     1      -2.439  -0.023  25.746  0.00  0.00    -0.269 OA
ATOM     17  N   UNL     1      -2.987   0.343  24.479  0.00  0.00    -0.194 NA
BRANCH  17  18
ATOM     18  C   UNL     1      -3.721   0.043  24.709  0.00  0.00    +0.176 C 
BRANCH  18  25
ATOM     25  C   UNL     1      -3.916  -0.742  24.541  0.00  0.00    +0.281 C 
ATOM     26  N   UNL     1      -4.002  -0.987  23.757  0.00  0.00    -0.086 NA
ATOM     27  O   UNL     1      -4.026  -1.280  25.156  0.00  0.00    -0.270 OA
ENDBRANCH  18  25
BRANCH  18  19
ATOM     19  C   UNL     1      -4.258   0.525  25.106  0.00  0.00    +0.056 C 
BRANCH  19  20
ATOM     20  C   UNL     1      -4.797   0.982  24.678  0.00  0.00    +0.153 C 
BRANCH  20  21
ATOM     21  S   UNL     1      -5.193   1.605  25.046  0.00  0.00    -0.008 S 
ATOM     22  C   UNL     1      -5.589   2.229  25.414  0.00  0.00    +0.176 C 
ATOM     23  O   UNL     1      -4.916   2.123  24.466  0.00  0.00    -0.173 OA
ATOM     24  O   UNL     1      -5.470   1.087  25.626  0.00  0.00    -0.173 OA
ENDBRANCH  20  21
ENDBRANCH  19  20
ENDBRANCH  18  19
ENDBRANCH  17  18
ENDBRANCH   9  15
TORSDOF 9
ENDMDL
MODEL 7
REMARK VINA RESULT:      -7.8      1.713      2.991
REMARK  Name = 
REMARK  9 active torsions:
REMARK  status: ('A' for Active; 'I' for Inactive)
REMARK    1  A    between atoms: N_2  and  C_3
REMARK    2  A    between atoms: C_3  and  C_4
REMARK    3  A    between atoms: N_6  and  C_7
REMARK    4  A    between atoms: C_9  and  C_15
REMARK    5  A    between atoms: N_17  and  C_18
REMARK    6  A    between atoms: C_18  and  C_19
REMARK    7  A    between atoms: C_18  and  C_25
REMARK    8  A    between atoms: C_19  and  C_20
REMARK    9  A    between atoms: C_20  and  S_21
REMARK                            x       y       z     vdW  Elec       q    Type
REMARK                         _______ _______ _______ _____ _____    ______ ____
ROOT
ATOM      7  C   UNL     1      -2.103   2.711  25.150  0.00  0.00    +0.150 C 
ATOM      8  C   UNL     1      -2.072   1.951  24.833  0.00  0.00    -0.002 C 
ATOM      9  C   UNL     1      -1.416   1.470  24.974  0.00  0.00    +0.033 C 
ATOM     10  C   UNL     1      -0.790   1.751  25.434  0.00  0.00    +0.066 C 
ATOM     11  C   UNL     1      -0.822   2.512  25.752  0.00  0.00    +0.189 C 
ATOM     12  O   UNL     1      -0.197   2.793  26.211  0.00  0.00    -0.220 OA
ATOM     13  C   UNL     1      -1.477   2.992  25.610  0.00  0.00    +0.206 C 
ATOM     14  O   UNL     1      -1.509   3.753  25.928  0.00  0.00    -0.218 OA
ENDROOT
BRANCH   7   6
ATOM      4  C   UNL     1      -3.514   2.929  25.211  0.00  0.00    +0.259 C 
ATOM      5  O   UNL     1      -3.615   2.184  25.554  0.00  0.00    -0.272 OA
ATOM      6  N   UNL     1      -2.759   3.191  25.009  0.00  0.00    -0.199 NA
BRANCH   4   3
ATOM      3  C   UNL     1      -4.170   3.409  25.070  0.00  0.00    +0.175 C 
BRANCH   3   2
ATOM      1  C   UNL     1      -5.480   3.832  25.455  0.00  0.00    +0.108 C 
ATOM      2  N   UNL     1      -4.880   3.266  25.464  0.00  0.00    -0.207 NA
ENDBRANCH   3   2
ENDBRANCH   4   3
ENDBRANCH   7   6
BRANCH   9  15
ATOM     15  C   UNL     1      -1.385   0.710  24.656  0.00  0.00    +0.261 C 
ATOM     16  O   UNL     1      -1.220   0.604  23.856  0.00  0.00    -0.269 OA
ATOM     17  N   UNL     1      -1.520   0.055  25.139  0.00  0.00    -0.194 NA
BRANCH  17  18
ATOM     18  C   UNL     1      -1.489  -0.705  24.822  0.00  0.00    +0.176 C 
BRANCH  18  25
ATOM     25  C   UNL     1      -0.792  -1.145  24.874  0.00  0.00    +0.281 C 
ATOM     26  N   UNL     1      -0.524  -1.409  25.609  0.00  0.00    -0.086 NA
ATOM     27  O   UNL     1      -0.364  -1.322  24.191  0.00  0.00    -0.270 OA
ENDBRANCH  18  25
BRANCH  18  19
ATOM     19  C   UNL     1      -2.153  -1.026  24.455  0.00  0.00    +0.056 C 
BRANCH  19  20
ATOM     20  C   UNL     1      -2.686  -1.482  24.890  0.00  0.00    +0.153 C 
BRANCH  20  21
ATOM     21  S   UNL     1      -3.394  -1.731  24.546  0.00  0.00    -0.008 S 
ATOM     22  C   UNL     1      -4.101  -1.980  24.201  0.00  0.00    +0.176 C 
ATOM     23  O   UNL     1      -2.983  -2.303  24.115  0.00  0.00    -0.173 OA
ATOM     24  O   UNL     1      -3.804  -1.159  24.976  0.00  0.00    -0.173 OA
ENDBRANCH  20  21
ENDBRANCH  19  20
ENDBRANCH  18  19
ENDBRANCH  17  18
ENDBRANCH   9  15
TORSDOF 9
ENDMDL
MODEL 8
REMARK VINA RESULT:      -7.8      1.963      4.677
REMARK  Name = 
REMARK  9 active torsions:
REMARK  status: ('A' for Active; 'I' for Inactive)
REMARK    1  A    between atoms: N_2  and  C_3
REMARK    2  A    between atoms: C_3  and  C_4
REMARK    3  A    between atoms: N_6  and  C_7
REMARK    4  A    between atoms: C_9  and  C_15
REMARK    5  A    between atoms: N_17  and  C_18
REMARK    6  A    between atoms: C_18  and  C_19
REMARK    7  A    between atoms: C_18  and  C_25
REMARK    8  A    between atoms: C_19  and  C_20
REMARK    9  A    between atoms: C_20  and  S_21
REMARK                            x       y       z     vdW  Elec       q    Type
REMARK                         _______ _______ _______ _____ _____    ______ ____
ROOT
ATOM      7  C   UNL     1      -1.037  -0.410  24.619  0.00  0.00    +0.150 C 
ATOM      8  C   UNL     1      -1.389   0.335  24.654  0.00  0.00    -0.002 C 
ATOM      9  C   UNL     1      -2.186   0.407  24.856  0.00  0.00    +0.033 C 
ATOM     10  C   UNL     1      -2.631  -0.268  25.023  0.00  0.00    +0.066 C 
ATOM     11  C   UNL     1      -2.279  -1.013  24.989  0.00  0.00    +0.189 C 
ATOM     12  O   UNL     1      -2.724  -1.687  25.156  0.00  0.00    -0.220 OA
ATOM     13  C   UNL     1      -1.483  -1.085  24.787  0.00  0.00    +0.206 C 
ATOM     14  O   UNL     1      -1.131  -1.830  24.753  0.00  0.00    -0.218 OA
ENDROOT
BRANCH   7   6
ATOM      4  C   UNL     1       0.037  -0.163  23.710  0.00  0.00    +0.259 C 
ATOM      5  O   UNL     1      -0.483   0.229  23.202  0.00  0.00    -0.272 OA
ATOM      6  N   UNL     1      -0.240  -0.482  24.417  0.00  0.00    -0.199 NA
BRANCH   4   3
ATOM      3  C   UNL     1       0.834  -0.235  23.508  0.00  0.00    +0.175 C 
BRANCH   3   2
ATOM      1  C   UNL     1       1.896  -0.042  22.571  0.00  0.00    +0.108 C 
ATOM      2  N   UNL     1       1.095   0.007  22.765  0.00  0.00    -0.207 NA
ENDBRANCH   3   2
ENDBRANCH   4   3
ENDBRANCH   7   6
BRANCH   9  15
ATOM     15  C   UNL     1      -2.537   1.152  24.890  0.00  0.00    +0.261 C 
ATOM     16  O   UNL     1      -2.293   1.698  25.458  0.00  0.00    -0.269 OA
ATOM     17  N   UNL     1      -3.133   1.352  24.356  0.00  0.00    -0.194 NA
BRANCH  17  18
ATOM     18  C   UNL     1      -3.486   2.097  24.389  0.00  0.00    +0.176 C 
BRANCH  18  25
ATOM     25  C   UNL     1      -3.240   2.693  23.873  0.00  0.00    +0.281 C 
ATOM     26  N   UNL     1      -3.305   2.584  23.057  0.00  0.00    -0.086 NA
ATOM     27  O   UNL     1      -2.930   3.396  24.172  0.00  0.00    -0.270 OA
ENDBRANCH  18  25
BRANCH  18  19
ATOM     19  C   UNL     1      -4.082   2.247  24.938  0.00  0.00    +0.056 C 
BRANCH  19  20
ATOM     20  C   UNL     1      -4.870   2.282  24.692  0.00  0.00    +0.153 C 
BRANCH  20  21
ATOM     21  S   UNL     1      -5.477   2.253  25.249  0.00  0.00    -0.008 S 
ATOM     22  C   UNL     1      -6.085   2.224  25.807  0.00  0.00    +0.176 C 
ATOM     23  O   UNL     1      -5.228   2.976  25.558  0.00  0.00    -0.173 OA
ATOM     24  O   UNL     1      -5.726   1.529  24.941  0.00  0.00    -0.173 OA
ENDBRANCH  20  21
ENDBRANCH  19  20
ENDBRANCH  18  19
ENDBRANCH  17  18
ENDBRANCH   9  15
TORSDOF 9
ENDMDL
