REMARK  Name = 
REMARK  9 active torsions:
REMARK  status: ('A' for Active; 'I' for Inactive)
REMARK    1  A    between atoms: O_2  and  C_3
REMARK    2  A    between atoms: C_3  and  C_4
REMARK    3  A    between atoms: C_6  and  C_7
REMARK    4  A    between atoms: C_7  and  C_8
REMARK    5  A    between atoms: C_13  and  C_14
REMARK    6  A    between atoms: C_14  and  C_15
REMARK    7  A    between atoms: N_17  and  C_18
REMARK    8  A    between atoms: C_18  and  C_19
REMARK    9  A    between atoms: C_20  and  O_21
REMARK                            x       y       z     vdW  Elec       q    Type
REMARK                         _______ _______ _______ _____ _____    ______ ____
ROOT
ATOM      8  C   UNL     1      -0.715  -2.888   0.000  0.00  0.00    +0.024 C 
ATOM      9  C   UNL     1      -1.429  -2.475   0.000  0.00  0.00    +0.089 C 
ATOM     10  N   UNL     1      -1.429  -1.650   0.000  0.00  0.00    -0.218 NA
ATOM     11  C   UNL     1      -0.715  -1.238   0.000  0.00  0.00    +0.089 C 
ATOM     12  C   UNL     1       0.000  -1.650   0.000  0.00  0.00    +0.019 C 
ATOM     13  C   UNL     1       0.000  -2.475   0.000  0.00  0.00    +0.012 C 
ENDROOT
BRANCH   8   7
ATOM      7  C   UNL     1      -0.715  -3.712   0.000  0.00  0.00    +0.051 C 
BRANCH   7   6
ATOM      4  C   UNL     1      -2.735  -4.402   0.000  0.00  0.00    +0.184 A 
ATOM      5  C   UNL     1      -2.183  -3.789   0.000  0.00  0.00    +0.056 A 
ATOM      6  C   UNL     1      -1.429  -4.125   0.000  0.00  0.00    +0.100 A 
ATOM     27  N   UNL     1      -1.515  -4.946   0.000  0.00  0.00    -0.082 NA
ATOM     28  O   UNL     1      -2.322  -5.117   0.000  0.00  0.00    -0.356 OA
BRANCH   4   3
ATOM      3  C   UNL     1      -3.555  -4.316   0.000  0.00  0.00    +0.209 C 
BRANCH   3   2
ATOM      1  C   UNL     1      -4.861  -4.897   0.000  0.00  0.00    +0.175 C 
ATOM      2  O   UNL     1      -4.040  -4.984   0.000  0.00  0.00    -0.343 OA
ENDBRANCH   3   2
ENDBRANCH   4   3
ENDBRANCH   7   6
ENDBRANCH   8   7
BRANCH  13  14
ATOM     14  C   UNL     1       0.715  -2.888   0.000  0.00  0.00    +0.087 C 
BRANCH  14  15
ATOM     15  C   UNL     1       1.429  -2.475   0.000  0.00  0.00    +0.242 C 
ATOM     16  O   UNL     1       1.429  -1.650   0.000  0.00  0.00    -0.273 OA
ATOM     17  N   UNL     1       2.143  -2.888   0.000  0.00  0.00    -0.200 NA
BRANCH  17  18
ATOM     18  C   UNL     1       2.858  -2.475   0.000  0.00  0.00    +0.144 C 
BRANCH  18  19
ATOM     19  C   UNL     1       3.572  -2.888   0.000  0.00  0.00    +0.033 A 
ATOM     20  C   UNL     1       4.287  -2.475   0.000  0.00  0.00    +0.136 A 
ATOM     23  C   UNL     1       5.001  -2.888   0.000  0.00  0.00    +0.037 A 
ATOM     24  C   UNL     1       5.001  -3.712   0.000  0.00  0.00    +0.003 A 
ATOM     25  C   UNL     1       4.287  -4.125   0.000  0.00  0.00    -0.000 A 
ATOM     26  C   UNL     1       3.572  -3.712   0.000  0.00  0.00    +0.000 A 
BRANCH  20  21
ATOM     21  O   UNL     1       4.287  -1.650   0.000  0.00  0.00    -0.472 OA
ATOM     22  C   UNL     1       3.572  -1.238   0.000  0.00  0.00    +0.252 C 
ENDBRANCH  20  21
ENDBRANCH  18  19
ENDBRANCH  17  18
ENDBRANCH  14  15
ENDBRANCH  13  14
TORSDOF 9
