MODEL 1
REMARK VINA RESULT:     -12.9      0.000      0.000
REMARK  Name = 
REMARK  5 active torsions:
REMARK  status: ('A' for Active; 'I' for Inactive)
REMARK    1  A    between atoms: C_2  and  C_3
REMARK    2  A    between atoms: C_3  and  C_4
REMARK    3  A    between atoms: C_9  and  C_10
REMARK    4  A    between atoms: C_10  and  C_11
REMARK    5  A    between atoms: C_14  and  C_16
REMARK                            x       y       z     vdW  Elec       q    Type
REMARK                         _______ _______ _______ _____ _____    ______ ____
ROOT
ATOM      4  C   UNL     1      -5.114   1.995  25.250  0.00  0.00    +0.012 C 
ATOM      5  C   UNL     1      -5.682   1.646  25.736  0.00  0.00    +0.019 C 
ATOM      6  C   UNL     1      -6.168   2.116  26.207  0.00  0.00    +0.089 C 
ATOM      7  N   UNL     1      -6.088   2.937  26.191  0.00  0.00    -0.218 NA
ATOM      8  C   UNL     1      -5.521   3.287  25.705  0.00  0.00    +0.089 C 
ATOM      9  C   UNL     1      -5.034   2.816  25.234  0.00  0.00    +0.024 C 
ENDROOT
BRANCH   4   3
ATOM      3  C   UNL     1      -4.627   1.524  24.780  0.00  0.00    +0.085 C 
BRANCH   3   2
ATOM      1  O   UNL     1      -5.597   0.498  24.561  0.00  0.00    -0.275 OA
ATOM      2  C   UNL     1      -4.811   0.729  24.660  0.00  0.00    +0.226 C 
ATOM     22  N   UNL     1      -4.211   0.164  24.640  0.00  0.00    -0.276 N 
ATOM     23  C   UNL     1      -4.395  -0.631  24.521  0.00  0.00    +0.115 C 
ATOM     24  C   UNL     1      -3.795  -1.195  24.500  0.00  0.00    +0.114 C 
ATOM     25  N   UNL     1      -3.009  -0.965  24.599  0.00  0.00    -0.290 N 
ATOM     26  C   UNL     1      -2.823  -0.170  24.718  0.00  0.00    +0.114 C 
ATOM     27  C   UNL     1      -3.425   0.395  24.739  0.00  0.00    +0.115 C 
ATOM     28  C   UNL     1      -2.407  -1.530  24.579  0.00  0.00    +0.132 A 
ATOM     29  N   UNL     1      -2.592  -2.325  24.459  0.00  0.00    -0.229 NA
ATOM     30  C   UNL     1      -1.991  -2.890  24.439  0.00  0.00    +0.100 A 
ATOM     31  C   UNL     1      -1.205  -2.660  24.538  0.00  0.00    +0.021 A 
ATOM     32  C   UNL     1      -1.020  -1.864  24.657  0.00  0.00    +0.004 A 
ATOM     33  C   UNL     1      -1.621  -1.300  24.677  0.00  0.00    +0.034 A 
ENDBRANCH   3   2
ENDBRANCH   4   3
BRANCH   9  10
ATOM     10  C   UNL     1      -4.467   3.166  24.748  0.00  0.00    +0.051 C 
BRANCH  10  11
ATOM     11  C   UNL     1      -3.840   3.586  25.082  0.00  0.00    +0.101 A 
ATOM     12  N   UNL     1      -3.847   3.973  25.810  0.00  0.00    -0.081 NA
ATOM     13  O   UNL     1      -3.108   4.318  25.923  0.00  0.00    -0.354 OA
ATOM     14  C   UNL     1      -2.642   4.146  25.264  0.00  0.00    +0.177 A 
ATOM     15  C   UNL     1      -3.094   3.693  24.744  0.00  0.00    +0.058 A 
BRANCH  14  16
ATOM     16  C   UNL     1      -1.860   4.384  25.147  0.00  0.00    +0.037 A 
ATOM     17  C   UNL     1      -1.258   3.822  25.119  0.00  0.00    +0.003 A 
ATOM     18  C   UNL     1      -0.476   4.060  25.002  0.00  0.00    +0.000 A 
ATOM     19  C   UNL     1      -0.299   4.860  24.912  0.00  0.00    +0.000 A 
ATOM     20  C   UNL     1      -0.902   5.423  24.940  0.00  0.00    +0.000 A 
ATOM     21  C   UNL     1      -1.683   5.184  25.058  0.00  0.00    +0.003 A 
ENDBRANCH  14  16
ENDBRANCH  10  11
ENDBRANCH   9  10
TORSDOF 5
ENDMDL
MODEL 2
REMARK VINA RESULT:     -12.5      1.608      3.575
REMARK  Name = 
REMARK  5 active torsions:
REMARK  status: ('A' for Active; 'I' for Inactive)
REMARK    1  A    between atoms: C_2  and  C_3
REMARK    2  A    between atoms: C_3  and  C_4
REMARK    3  A    between atoms: C_9  and  C_10
REMARK    4  A    between atoms: C_10  and  C_11
REMARK    5  A    between atoms: C_14  and  C_16
REMARK                            x       y       z     vdW  Elec       q    Type
REMARK                         _______ _______ _______ _____ _____    ______ ____
ROOT
ATOM      4  C   UNL     1      -0.733   2.119  25.029  0.00  0.00    +0.012 C 
ATOM      5  C   UNL     1      -0.155   1.969  25.599  0.00  0.00    +0.019 C 
ATOM      6  C   UNL     1       0.099   2.574  26.099  0.00  0.00    +0.089 C 
ATOM      7  N   UNL     1      -0.224   3.329  26.029  0.00  0.00    -0.218 NA
ATOM      8  C   UNL     1      -0.802   3.481  25.460  0.00  0.00    +0.089 C 
ATOM      9  C   UNL     1      -1.056   2.875  24.960  0.00  0.00    +0.024 C 
ENDROOT
BRANCH   4   3
ATOM      3  C   UNL     1      -0.987   1.515  24.529  0.00  0.00    +0.085 C 
BRANCH   3   2
ATOM      1  O   UNL     1       0.143   0.659  24.714  0.00  0.00    -0.275 OA
ATOM      2  C   UNL     1      -0.669   0.757  24.603  0.00  0.00    +0.226 C 
ATOM     22  N   UNL     1      -1.162   0.097  24.565  0.00  0.00    -0.276 N 
ATOM     23  C   UNL     1      -0.844  -0.661  24.639  0.00  0.00    +0.115 C 
ATOM     24  C   UNL     1      -1.336  -1.321  24.601  0.00  0.00    +0.114 C 
ATOM     25  N   UNL     1      -2.148  -1.224  24.491  0.00  0.00    -0.290 N 
ATOM     26  C   UNL     1      -2.467  -0.466  24.417  0.00  0.00    +0.114 C 
ATOM     27  C   UNL     1      -1.973   0.194  24.455  0.00  0.00    +0.115 C 
ATOM     28  C   UNL     1      -2.642  -1.884  24.453  0.00  0.00    +0.132 A 
ATOM     29  N   UNL     1      -2.323  -2.641  24.527  0.00  0.00    -0.229 NA
ATOM     30  C   UNL     1      -2.817  -3.302  24.489  0.00  0.00    +0.100 A 
ATOM     31  C   UNL     1      -3.629  -3.205  24.378  0.00  0.00    +0.021 A 
ATOM     32  C   UNL     1      -3.946  -2.447  24.305  0.00  0.00    +0.004 A 
ATOM     33  C   UNL     1      -3.454  -1.787  24.342  0.00  0.00    +0.034 A 
ENDBRANCH   3   2
ENDBRANCH   4   3
BRANCH   9  10
ATOM     10  C   UNL     1      -1.633   3.026  24.390  0.00  0.00    +0.051 C 
BRANCH  10  11
ATOM     11  C   UNL     1      -2.367   3.329  24.616  0.00  0.00    +0.101 A 
ATOM     12  N   UNL     1      -2.538   4.121  24.769  0.00  0.00    -0.081 NA
ATOM     13  O   UNL     1      -3.334   4.175  24.976  0.00  0.00    -0.354 OA
ATOM     14  C   UNL     1      -3.656   3.415  24.952  0.00  0.00    +0.177 A 
ATOM     15  C   UNL     1      -3.058   2.893  24.730  0.00  0.00    +0.058 A 
BRANCH  14  16
ATOM     16  C   UNL     1      -4.438   3.214  25.120  0.00  0.00    +0.037 A 
ATOM     17  C   UNL     1      -4.757   2.514  24.824  0.00  0.00    +0.003 A 
ATOM     18  C   UNL     1      -5.539   2.313  24.992  0.00  0.00    +0.000 A 
ATOM     19  C   UNL     1      -6.002   2.812  25.457  0.00  0.00    +0.000 A 
ATOM     20  C   UNL     1      -5.683   3.513  25.754  0.00  0.00    +0.000 A 
ATOM     21  C   UNL     1      -4.900   3.714  25.586  0.00  0.00    +0.003 A 
ENDBRANCH  14  16
ENDBRANCH  10  11
ENDBRANCH   9  10
TORSDOF 5
ENDMDL
MODEL 3
REMARK VINA RESULT:     -12.4      1.963      6.075
REMARK  Name = 
REMARK  5 active torsions:
REMARK  status: ('A' for Active; 'I' for Inactive)
REMARK    1  A    between atoms: C_2  and  C_3
REMARK    2  A    between atoms: C_3  and  C_4
REMARK    3  A    between atoms: C_9  and  C_10
REMARK    4  A    between atoms: C_10  and  C_11
REMARK    5  A    between atoms: C_14  and  C_16
REMARK                            x       y       z     vdW  Elec       q    Type
REMARK                         _______ _______ _______ _____ _____    ______ ____
ROOT
ATOM      4  C   UNL     1      -0.455   0.751  24.478  0.00  0.00    +0.012 C 
ATOM      5  C   UNL     1      -0.059   1.159  23.880  0.00  0.00    +0.019 C 
ATOM      6  C   UNL     1       0.433   0.753  23.358  0.00  0.00    +0.089 C 
ATOM      7  N   UNL     1       0.530  -0.063  23.434  0.00  0.00    -0.218 NA
ATOM      8  C   UNL     1       0.135  -0.472  24.031  0.00  0.00    +0.089 C 
ATOM      9  C   UNL     1      -0.358  -0.065  24.554  0.00  0.00    +0.024 C 
ENDROOT
BRANCH   4   3
ATOM      3  C   UNL     1      -0.946   1.158  25.000  0.00  0.00    +0.085 C 
BRANCH   3   2
ATOM      1  O   UNL     1      -0.439   2.462  24.712  0.00  0.00    -0.275 OA
ATOM      2  C   UNL     1      -1.071   1.968  24.905  0.00  0.00    +0.226 C 
ATOM     22  N   UNL     1      -1.826   2.284  25.001  0.00  0.00    -0.276 N 
ATOM     23  C   UNL     1      -1.950   3.094  24.906  0.00  0.00    +0.115 C 
ATOM     24  C   UNL     1      -2.705   3.410  25.002  0.00  0.00    +0.114 C 
ATOM     25  N   UNL     1      -3.338   2.916  25.195  0.00  0.00    -0.290 N 
ATOM     26  C   UNL     1      -3.215   2.106  25.290  0.00  0.00    +0.114 C 
ATOM     27  C   UNL     1      -2.458   1.790  25.194  0.00  0.00    +0.115 C 
ATOM     28  C   UNL     1      -4.094   3.233  25.292  0.00  0.00    +0.132 A 
ATOM     29  N   UNL     1      -4.217   4.043  25.196  0.00  0.00    -0.229 NA
ATOM     30  C   UNL     1      -4.974   4.359  25.293  0.00  0.00    +0.100 A 
ATOM     31  C   UNL     1      -5.606   3.865  25.485  0.00  0.00    +0.021 A 
ATOM     32  C   UNL     1      -5.482   3.055  25.580  0.00  0.00    +0.004 A 
ATOM     33  C   UNL     1      -4.726   2.739  25.484  0.00  0.00    +0.034 A 
ENDBRANCH   3   2
ENDBRANCH   4   3
BRANCH   9  10
ATOM     10  C   UNL     1      -0.753  -0.474  25.151  0.00  0.00    +0.051 C 
BRANCH  10  11
ATOM     11  C   UNL     1      -1.210  -1.135  24.967  0.00  0.00    +0.101 A 
ATOM     12  N   UNL     1      -0.954  -1.919  24.972  0.00  0.00    -0.081 NA
ATOM     13  O   UNL     1      -1.590  -2.396  24.753  0.00  0.00    -0.354 OA
ATOM     14  C   UNL     1      -2.239  -1.907  24.612  0.00  0.00    +0.177 A 
ATOM     15  C   UNL     1      -2.005  -1.127  24.744  0.00  0.00    +0.058 A 
BRANCH  14  16
ATOM     16  C   UNL     1      -2.992  -2.155  24.379  0.00  0.00    +0.037 A 
ATOM     17  C   UNL     1      -3.194  -2.953  24.423  0.00  0.00    +0.003 A 
ATOM     18  C   UNL     1      -3.947  -3.200  24.190  0.00  0.00    +0.000 A 
ATOM     19  C   UNL     1      -4.495  -2.650  23.914  0.00  0.00    +0.000 A 
ATOM     20  C   UNL     1      -4.292  -1.851  23.870  0.00  0.00    +0.000 A 
ATOM     21  C   UNL     1      -3.539  -1.603  24.103  0.00  0.00    +0.003 A 
ENDBRANCH  14  16
ENDBRANCH  10  11
ENDBRANCH   9  10
TORSDOF 5
ENDMDL
MODEL 4
REMARK VINA RESULT:     -12.3      2.488      4.747
REMARK  Name = 
REMARK  5 active torsions:
REMARK  status: ('A' for Active; 'I' for Inactive)
REMARK    1  A    between atoms: C_2  and  C_3
REMARK    2  A    between atoms: C_3  and  C_4
REMARK    3  A    between atoms: C_9  and  C_10
REMARK    4  A    between atoms: C_10  and  C_11
REMARK    5  A    between atoms: C_14  and  C_16
REMARK                            x       y       z     vdW  Elec       q    Type
REMARK                         _______ _______ _______ _____ _____    ______ ____
ROOT
ATOM      4  C   UNL     1      -2.758   2.538  24.785  0.00  0.00    +0.012 C 
ATOM      5  C   UNL     1      -2.635   3.135  25.341  0.00  0.00    +0.019 C 
ATOM      6  C   UNL     1      -3.275   3.459  25.747  0.00  0.00    +0.089 C 
ATOM      7  N   UNL     1      -4.039   3.186  25.598  0.00  0.00    -0.218 NA
ATOM      8  C   UNL     1      -4.163   2.589  25.042  0.00  0.00    +0.089 C 
ATOM      9  C   UNL     1      -3.522   2.265  24.636  0.00  0.00    +0.024 C 
ENDROOT
BRANCH   4   3
ATOM      3  C   UNL     1      -2.118   2.214  24.378  0.00  0.00    +0.085 C 
BRANCH   3   2
ATOM      1  O   UNL     1      -1.242   3.179  24.964  0.00  0.00    -0.275 OA
ATOM      2  C   UNL     1      -1.354   2.492  24.522  0.00  0.00    +0.226 C 
ATOM     22  N   UNL     1      -0.704   2.083  24.223  0.00  0.00    -0.276 N 
ATOM     23  C   UNL     1       0.060   2.361  24.366  0.00  0.00    +0.115 C 
ATOM     24  C   UNL     1       0.711   1.952  24.067  0.00  0.00    +0.114 C 
ATOM     25  N   UNL     1       0.598   1.265  23.625  0.00  0.00    -0.290 N 
ATOM     26  C   UNL     1      -0.164   0.987  23.481  0.00  0.00    +0.114 C 
ATOM     27  C   UNL     1      -0.816   1.396  23.780  0.00  0.00    +0.115 C 
ATOM     28  C   UNL     1       1.250   0.856  23.325  0.00  0.00    +0.132 A 
ATOM     29  N   UNL     1       2.013   1.134  23.469  0.00  0.00    -0.229 NA
ATOM     30  C   UNL     1       2.664   0.725  23.170  0.00  0.00    +0.100 A 
ATOM     31  C   UNL     1       2.552   0.038  22.727  0.00  0.00    +0.021 A 
ATOM     32  C   UNL     1       1.788  -0.240  22.584  0.00  0.00    +0.004 A 
ATOM     33  C   UNL     1       1.138   0.169  22.882  0.00  0.00    +0.034 A 
ENDBRANCH   3   2
ENDBRANCH   4   3
BRANCH   9  10
ATOM     10  C   UNL     1      -3.646   1.668  24.080  0.00  0.00    +0.051 C 
BRANCH  10  11
ATOM     11  C   UNL     1      -3.963   0.943  24.316  0.00  0.00    +0.101 A 
ATOM     12  N   UNL     1      -4.677   0.832  24.713  0.00  0.00    -0.081 NA
ATOM     13  O   UNL     1      -4.776   0.024  24.838  0.00  0.00    -0.354 OA
ATOM     14  C   UNL     1      -4.123  -0.366  24.519  0.00  0.00    +0.177 A 
ATOM     15  C   UNL     1      -3.620   0.202  24.196  0.00  0.00    +0.058 A 
BRANCH  14  16
ATOM     16  C   UNL     1      -3.995  -1.181  24.522  0.00  0.00    +0.037 A 
ATOM     17  C   UNL     1      -3.584  -1.532  25.144  0.00  0.00    +0.003 A 
ATOM     18  C   UNL     1      -3.456  -2.347  25.147  0.00  0.00    +0.000 A 
ATOM     19  C   UNL     1      -3.740  -2.811  24.528  0.00  0.00    +0.000 A 
ATOM     20  C   UNL     1      -4.153  -2.460  23.905  0.00  0.00    +0.000 A 
ATOM     21  C   UNL     1      -4.280  -1.645  23.902  0.00  0.00    +0.003 A 
ENDBRANCH  14  16
ENDBRANCH  10  11
ENDBRANCH   9  10
TORSDOF 5
ENDMDL
MODEL 5
REMARK VINA RESULT:      -9.9     14.416     16.761
REMARK  Name = 
REMARK  5 active torsions:
REMARK  status: ('A' for Active; 'I' for Inactive)
REMARK    1  A    between atoms: C_2  and  C_3
REMARK    2  A    between atoms: C_3  and  C_4
REMARK    3  A    between atoms: C_9  and  C_10
REMARK    4  A    between atoms: C_10  and  C_11
REMARK    5  A    between atoms: C_14  and  C_16
REMARK                            x       y       z     vdW  Elec       q    Type
REMARK                         _______ _______ _______ _____ _____    ______ ____
ROOT
ATOM      4  C   UNL     1      -2.834 -10.646  14.925  0.00  0.00    +0.012 C 
ATOM      5  C   UNL     1      -2.260 -10.581  15.514  0.00  0.00    +0.019 C 
ATOM      6  C   UNL     1      -1.460 -10.586  15.313  0.00  0.00    +0.089 C 
ATOM      7  N   UNL     1      -1.234 -10.656  14.523  0.00  0.00    -0.218 NA
ATOM      8  C   UNL     1      -1.807 -10.721  13.934  0.00  0.00    +0.089 C 
ATOM      9  C   UNL     1      -2.608 -10.716  14.135  0.00  0.00    +0.024 C 
ENDROOT
BRANCH   4   3
ATOM      3  C   UNL     1      -3.634 -10.640  15.126  0.00  0.00    +0.085 C 
BRANCH   3   2
ATOM      1  O   UNL     1      -3.318 -10.764  16.514  0.00  0.00    -0.275 OA
ATOM      2  C   UNL     1      -3.861 -10.589  15.918  0.00  0.00    +0.226 C 
ATOM     22  N   UNL     1      -4.629 -10.363  16.113  0.00  0.00    -0.276 N 
ATOM     23  C   UNL     1      -4.856 -10.311  16.905  0.00  0.00    +0.115 C 
ATOM     24  C   UNL     1      -5.624 -10.085  17.100  0.00  0.00    +0.114 C 
ATOM     25  N   UNL     1      -6.167  -9.910  16.504  0.00  0.00    -0.290 N 
ATOM     26  C   UNL     1      -5.941  -9.961  15.712  0.00  0.00    +0.114 C 
ATOM     27  C   UNL     1      -5.171 -10.187  15.517  0.00  0.00    +0.115 C 
ATOM     28  C   UNL     1      -6.936  -9.683  16.699  0.00  0.00    +0.132 A 
ATOM     29  N   UNL     1      -7.162  -9.632  17.491  0.00  0.00    -0.229 NA
ATOM     30  C   UNL     1      -7.932  -9.406  17.687  0.00  0.00    +0.100 A 
ATOM     31  C   UNL     1      -8.474  -9.230  17.090  0.00  0.00    +0.021 A 
ATOM     32  C   UNL     1      -8.247  -9.282  16.299  0.00  0.00    +0.004 A 
ATOM     33  C   UNL     1      -7.479  -9.508  16.103  0.00  0.00    +0.034 A 
ENDBRANCH   3   2
ENDBRANCH   4   3
BRANCH   9  10
ATOM     10  C   UNL     1      -3.181 -10.781  13.546  0.00  0.00    +0.051 C 
BRANCH  10  11
ATOM     11  C   UNL     1      -2.984 -10.627  12.759  0.00  0.00    +0.101 A 
ATOM     12  N   UNL     1      -2.257 -10.781  12.402  0.00  0.00    -0.081 NA
ATOM     13  O   UNL     1      -2.304 -10.542  11.615  0.00  0.00    -0.354 OA
ATOM     14  C   UNL     1      -3.060 -10.239  11.485  0.00  0.00    +0.177 A 
ATOM     15  C   UNL     1      -3.481 -10.292  12.192  0.00  0.00    +0.058 A 
BRANCH  14  16
ATOM     16  C   UNL     1      -3.346  -9.937  10.771  0.00  0.00    +0.037 A 
ATOM     17  C   UNL     1      -3.039  -9.234  10.470  0.00  0.00    +0.003 A 
ATOM     18  C   UNL     1      -3.325  -8.932   9.757  0.00  0.00    +0.000 A 
ATOM     19  C   UNL     1      -3.916  -9.333   9.346  0.00  0.00    +0.000 A 
ATOM     20  C   UNL     1      -4.223 -10.038   9.648  0.00  0.00    +0.000 A 
ATOM     21  C   UNL     1      -3.938 -10.340  10.362  0.00  0.00    +0.003 A 
ENDBRANCH  14  16
ENDBRANCH  10  11
ENDBRANCH   9  10
TORSDOF 5
ENDMDL
MODEL 6
REMARK VINA RESULT:      -9.2     14.523     16.849
REMARK  Name = 
REMARK  5 active torsions:
REMARK  status: ('A' for Active; 'I' for Inactive)
REMARK    1  A    between atoms: C_2  and  C_3
REMARK    2  A    between atoms: C_3  and  C_4
REMARK    3  A    between atoms: C_9  and  C_10
REMARK    4  A    between atoms: C_10  and  C_11
REMARK    5  A    between atoms: C_14  and  C_16
REMARK                            x       y       z     vdW  Elec       q    Type
REMARK                         _______ _______ _______ _____ _____    ______ ____
ROOT
ATOM      4  C   UNL     1      -6.163  -9.686  12.605  0.00  0.00    +0.012 C 
ATOM      5  C   UNL     1      -6.775  -9.149  12.471  0.00  0.00    +0.019 C 
ATOM      6  C   UNL     1      -6.914  -8.862  11.711  0.00  0.00    +0.089 C 
ATOM      7  N   UNL     1      -6.442  -9.112  11.083  0.00  0.00    -0.218 NA
ATOM      8  C   UNL     1      -5.829  -9.649  11.215  0.00  0.00    +0.089 C 
ATOM      9  C   UNL     1      -5.690  -9.936  11.977  0.00  0.00    +0.024 C 
ENDROOT
BRANCH   4   3
ATOM      3  C   UNL     1      -6.023  -9.973  13.365  0.00  0.00    +0.085 C 
BRANCH   3   2
ATOM      1  O   UNL     1      -7.418  -9.910  13.669  0.00  0.00    -0.275 OA
ATOM      2  C   UNL     1      -6.635  -9.994  13.918  0.00  0.00    +0.226 C 
ATOM     22  N   UNL     1      -6.466 -10.098  14.718  0.00  0.00    -0.276 N 
ATOM     23  C   UNL     1      -7.079 -10.119  15.271  0.00  0.00    +0.115 C 
ATOM     24  C   UNL     1      -6.909 -10.223  16.071  0.00  0.00    +0.114 C 
ATOM     25  N   UNL     1      -6.127 -10.306  16.319  0.00  0.00    -0.290 N 
ATOM     26  C   UNL     1      -5.514 -10.285  15.768  0.00  0.00    +0.114 C 
ATOM     27  C   UNL     1      -5.684 -10.181  14.966  0.00  0.00    +0.115 C 
ATOM     28  C   UNL     1      -5.957 -10.410  17.121  0.00  0.00    +0.132 A 
ATOM     29  N   UNL     1      -6.570 -10.431  17.672  0.00  0.00    -0.229 NA
ATOM     30  C   UNL     1      -6.400 -10.535  18.473  0.00  0.00    +0.100 A 
ATOM     31  C   UNL     1      -5.618 -10.619  18.722  0.00  0.00    +0.021 A 
ATOM     32  C   UNL     1      -5.006 -10.598  18.169  0.00  0.00    +0.004 A 
ATOM     33  C   UNL     1      -5.175 -10.494  17.369  0.00  0.00    +0.034 A 
ENDBRANCH   3   2
ENDBRANCH   4   3
BRANCH   9  10
ATOM     10  C   UNL     1      -5.077 -10.472  12.109  0.00  0.00    +0.051 C 
BRANCH  10  11
ATOM     11  C   UNL     1      -4.384 -10.426  11.664  0.00  0.00    +0.101 A 
ATOM     12  N   UNL     1      -4.258 -10.769  10.925  0.00  0.00    -0.081 NA
ATOM     13  O   UNL     1      -3.492 -10.583  10.684  0.00  0.00    -0.354 OA
ATOM     14  C   UNL     1      -3.143 -10.124  11.275  0.00  0.00    +0.177 A 
ATOM     15  C   UNL     1      -3.694 -10.027  11.881  0.00  0.00    +0.058 A 
BRANCH  14  16
ATOM     16  C   UNL     1      -2.377  -9.817  11.263  0.00  0.00    +0.037 A 
ATOM     17  C   UNL     1      -2.174  -9.241  10.709  0.00  0.00    +0.003 A 
ATOM     18  C   UNL     1      -1.408  -8.934  10.696  0.00  0.00    +0.000 A 
ATOM     19  C   UNL     1      -0.846  -9.203  11.237  0.00  0.00    +0.000 A 
ATOM     20  C   UNL     1      -1.051  -9.780  11.791  0.00  0.00    +0.000 A 
ATOM     21  C   UNL     1      -1.817 -10.087  11.804  0.00  0.00    +0.003 A 
ENDBRANCH  14  16
ENDBRANCH  10  11
ENDBRANCH   9  10
TORSDOF 5
ENDMDL
