MODEL 1
REMARK VINA RESULT:     -13.6      0.000      0.000
REMARK  Name = 
REMARK  6 active torsions:
REMARK  status: ('A' for Active; 'I' for Inactive)
REMARK    1  A    between atoms: C_2  and  C_4
REMARK    2  A    between atoms: C_4  and  C_5
REMARK    3  A    between atoms: C_7  and  C_26
REMARK    4  A    between atoms: N_11  and  C_12
REMARK    5  A    between atoms: C_12  and  C_13
REMARK    6  A    between atoms: N_28  and  C_29
REMARK                            x       y       z     vdW  Elec       q    Type
REMARK                         _______ _______ _______ _____ _____    ______ ____
ROOT
ATOM      5  C   UNL     1      -4.531   1.958  24.813  0.00  0.00    +0.095 C 
ATOM      6  N   UNL     1      -4.450   1.137  24.824  0.00  0.00    -0.207 NA
ATOM      7  C   UNL     1      -3.760   0.689  24.895  0.00  0.00    +0.155 C 
ATOM      8  C   UNL     1      -2.982   0.951  24.973  0.00  0.00    +0.055 C 
ATOM      9  C   UNL     1      -2.701   1.727  25.000  0.00  0.00    -0.002 A 
ATOM     10  C   UNL     1      -1.903   1.918  25.080  0.00  0.00    +0.072 A 
ATOM     11  N   UNL     1      -1.837   2.741  25.084  0.00  0.00    -0.322 N 
ATOM     20  C   UNL     1      -2.594   3.058  25.006  0.00  0.00    +0.060 A 
ATOM     21  C   UNL     1      -3.129   2.431  24.954  0.00  0.00    +0.011 A 
ATOM     22  C   UNL     1      -3.944   2.533  24.871  0.00  0.00    -0.005 A 
ATOM     23  C   UNL     1      -4.208   3.360  24.842  0.00  0.00    -0.003 A 
ATOM     24  C   UNL     1      -3.675   3.987  24.894  0.00  0.00    +0.001 A 
ATOM     25  C   UNL     1      -2.867   3.835  24.976  0.00  0.00    +0.017 A 
ENDROOT
BRANCH   7  26
ATOM     26  C   UNL     1      -3.863  -0.130  24.888  0.00  0.00    +0.257 C 
ATOM     27  O   UNL     1      -4.111  -0.521  25.571  0.00  0.00    -0.272 OA
ATOM     28  N   UNL     1      -3.718  -0.557  24.197  0.00  0.00    -0.206 NA
BRANCH  28  29
ATOM     29  C   UNL     1      -3.821  -1.376  24.190  0.00  0.00    +0.095 C 
ATOM     30  C   UNL     1      -4.420  -1.786  23.798  0.00  0.00    +0.022 C 
ATOM     31  C   UNL     1      -4.313  -2.591  23.940  0.00  0.00    +0.002 C 
ATOM     32  C   UNL     1      -3.647  -2.680  24.419  0.00  0.00    +0.002 C 
ATOM     33  C   UNL     1      -3.343  -1.929  24.573  0.00  0.00    +0.022 C 
ENDBRANCH  28  29
ENDBRANCH   7  26
BRANCH   5   4
ATOM      4  C   UNL     1      -5.302   2.239  24.734  0.00  0.00    +0.022 C 
BRANCH   4   2
ATOM      1  C   UNL     1      -5.978   1.980  25.967  0.00  0.00    +0.000 C 
ATOM      2  C   UNL     1      -5.917   1.879  25.150  0.00  0.00    +0.002 C 
ATOM      3  C   UNL     1      -6.472   1.417  24.749  0.00  0.00    +0.000 C 
ENDBRANCH   4   2
ENDBRANCH   5   4
BRANCH  11  12
ATOM     12  C   UNL     1      -1.137   3.171  25.153  0.00  0.00    +0.137 C 
BRANCH  12  13
ATOM     13  C   UNL     1      -0.409   2.783  25.139  0.00  0.00    +0.050 A 
ATOM     14  C   UNL     1       0.007   2.508  25.797  0.00  0.00    +0.152 A 
ATOM     15  C   UNL     1      -0.231   2.575  26.584  0.00  0.00    +0.075 C 
ATOM     16  O   UNL     1       0.703   2.156  25.528  0.00  0.00    -0.358 OA
ATOM     17  N   UNL     1       0.717   2.213  24.706  0.00  0.00    -0.082 NA
ATOM     18  C   UNL     1       0.029   2.600  24.465  0.00  0.00    +0.098 A 
ATOM     19  C   UNL     1      -0.182   2.773  23.686  0.00  0.00    +0.055 C 
ENDBRANCH  12  13
ENDBRANCH  11  12
TORSDOF 6
ENDMDL
MODEL 2
REMARK VINA RESULT:     -12.0      1.758      4.113
REMARK  Name = 
REMARK  6 active torsions:
REMARK  status: ('A' for Active; 'I' for Inactive)
REMARK    1  A    between atoms: C_2  and  C_4
REMARK    2  A    between atoms: C_4  and  C_5
REMARK    3  A    between atoms: C_7  and  C_26
REMARK    4  A    between atoms: N_11  and  C_12
REMARK    5  A    between atoms: C_12  and  C_13
REMARK    6  A    between atoms: N_28  and  C_29
REMARK                            x       y       z     vdW  Elec       q    Type
REMARK                         _______ _______ _______ _____ _____    ______ ____
ROOT
ATOM      5  C   UNL     1      -4.286   1.862  24.742  0.00  0.00    +0.095 C 
ATOM      6  N   UNL     1      -3.736   2.474  24.675  0.00  0.00    -0.207 NA
ATOM      7  C   UNL     1      -2.914   2.424  24.628  0.00  0.00    +0.155 C 
ATOM      8  C   UNL     1      -2.439   1.750  24.637  0.00  0.00    +0.055 C 
ATOM      9  C   UNL     1      -2.668   0.959  24.694  0.00  0.00    -0.002 A 
ATOM     10  C   UNL     1      -2.135   0.330  24.696  0.00  0.00    +0.072 A 
ATOM     11  N   UNL     1      -2.566  -0.371  24.761  0.00  0.00    -0.322 N 
ATOM     20  C   UNL     1      -3.367  -0.174  24.799  0.00  0.00    +0.060 A 
ATOM     21  C   UNL     1      -3.430   0.648  24.757  0.00  0.00    +0.011 A 
ATOM     22  C   UNL     1      -4.150   1.051  24.779  0.00  0.00    -0.005 A 
ATOM     23  C   UNL     1      -4.851   0.543  24.849  0.00  0.00    -0.003 A 
ATOM     24  C   UNL     1      -4.789  -0.278  24.890  0.00  0.00    +0.001 A 
ATOM     25  C   UNL     1      -4.046  -0.637  24.865  0.00  0.00    +0.017 A 
ENDROOT
BRANCH   7  26
ATOM     26  C   UNL     1      -2.514   3.143  24.565  0.00  0.00    +0.257 C 
ATOM     27  O   UNL     1      -2.518   3.555  23.849  0.00  0.00    -0.272 OA
ATOM     28  N   UNL     1      -2.112   3.450  25.216  0.00  0.00    -0.206 NA
BRANCH  28  29
ATOM     29  C   UNL     1      -1.713   4.169  25.151  0.00  0.00    +0.095 C 
ATOM     30  C   UNL     1      -2.039   4.917  25.272  0.00  0.00    +0.022 C 
ATOM     31  C   UNL     1      -1.446   5.477  25.150  0.00  0.00    +0.002 C 
ATOM     32  C   UNL     1      -0.752   5.076  24.954  0.00  0.00    +0.002 C 
ATOM     33  C   UNL     1      -0.918   4.268  24.954  0.00  0.00    +0.022 C 
ENDBRANCH  28  29
ENDBRANCH   7  26
BRANCH   5   4
ATOM      4  C   UNL     1      -5.076   2.095  24.777  0.00  0.00    +0.022 C 
BRANCH   4   2
ATOM      1  C   UNL     1      -5.422   3.480  24.857  0.00  0.00    +0.000 C 
ATOM      2  C   UNL     1      -5.293   2.754  25.226  0.00  0.00    +0.002 C 
ATOM      3  C   UNL     1      -5.381   2.684  26.044  0.00  0.00    +0.000 C 
ENDBRANCH   4   2
ENDBRANCH   5   4
BRANCH  11  12
ATOM     12  C   UNL     1      -2.253  -1.133  24.784  0.00  0.00    +0.137 C 
BRANCH  12  13
ATOM     13  C   UNL     1      -1.451  -1.246  24.941  0.00  0.00    +0.050 A 
ATOM     14  C   UNL     1      -1.103  -1.274  25.689  0.00  0.00    +0.152 A 
ATOM     15  C   UNL     1      -1.495  -1.194  26.410  0.00  0.00    +0.075 C 
ATOM     16  O   UNL     1      -0.294  -1.396  25.588  0.00  0.00    -0.358 OA
ATOM     17  N   UNL     1      -0.142  -1.444  24.779  0.00  0.00    -0.082 NA
ATOM     18  C   UNL     1      -0.857  -1.351  24.379  0.00  0.00    +0.098 A 
ATOM     19  C   UNL     1      -0.960  -1.362  23.560  0.00  0.00    +0.055 C 
ENDBRANCH  12  13
ENDBRANCH  11  12
TORSDOF 6
ENDMDL
MODEL 3
REMARK VINA RESULT:     -11.7      1.688      3.611
REMARK  Name = 
REMARK  6 active torsions:
REMARK  status: ('A' for Active; 'I' for Inactive)
REMARK    1  A    between atoms: C_2  and  C_4
REMARK    2  A    between atoms: C_4  and  C_5
REMARK    3  A    between atoms: C_7  and  C_26
REMARK    4  A    between atoms: N_11  and  C_12
REMARK    5  A    between atoms: C_12  and  C_13
REMARK    6  A    between atoms: N_28  and  C_29
REMARK                            x       y       z     vdW  Elec       q    Type
REMARK                         _______ _______ _______ _____ _____    ______ ____
ROOT
ATOM      5  C   UNL     1      -0.756   0.595  24.509  0.00  0.00    +0.095 C 
ATOM      6  N   UNL     1      -1.312  -0.008  24.592  0.00  0.00    -0.207 NA
ATOM      7  C   UNL     1      -2.125   0.056  24.721  0.00  0.00    +0.155 C 
ATOM      8  C   UNL     1      -2.581   0.739  24.798  0.00  0.00    +0.055 C 
ATOM      9  C   UNL     1      -2.338   1.526  24.765  0.00  0.00    -0.002 A 
ATOM     10  C   UNL     1      -2.853   2.165  24.850  0.00  0.00    +0.072 A 
ATOM     11  N   UNL     1      -2.412   2.860  24.786  0.00  0.00    -0.322 N 
ATOM     20  C   UNL     1      -1.624   2.650  24.660  0.00  0.00    +0.060 A 
ATOM     21  C   UNL     1      -1.578   1.826  24.647  0.00  0.00    +0.011 A 
ATOM     22  C   UNL     1      -0.874   1.411  24.533  0.00  0.00    -0.005 A 
ATOM     23  C   UNL     1      -0.169   1.907  24.425  0.00  0.00    -0.003 A 
ATOM     24  C   UNL     1      -0.214   2.731  24.438  0.00  0.00    +0.001 A 
ATOM     25  C   UNL     1      -0.942   3.102  24.555  0.00  0.00    +0.017 A 
ENDROOT
BRANCH   7  26
ATOM     26  C   UNL     1      -2.535  -0.658  24.781  0.00  0.00    +0.257 C 
ATOM     27  O   UNL     1      -2.578  -1.049  25.507  0.00  0.00    -0.272 OA
ATOM     28  N   UNL     1      -2.900  -0.980  24.116  0.00  0.00    -0.206 NA
BRANCH  28  29
ATOM     29  C   UNL     1      -3.310  -1.694  24.176  0.00  0.00    +0.095 C 
ATOM     30  C   UNL     1      -4.105  -1.814  23.991  0.00  0.00    +0.022 C 
ATOM     31  C   UNL     1      -4.284  -2.606  24.133  0.00  0.00    +0.002 C 
ATOM     32  C   UNL     1      -3.599  -2.977  24.406  0.00  0.00    +0.002 C 
ATOM     33  C   UNL     1      -2.998  -2.413  24.433  0.00  0.00    +0.022 C 
ENDBRANCH  28  29
ENDBRANCH   7  26
BRANCH   5   4
ATOM      4  C   UNL     1       0.022   0.350  24.384  0.00  0.00    +0.022 C 
BRANCH   4   2
ATOM      1  C   UNL     1       0.187  -0.243  23.094  0.00  0.00    +0.000 C 
ATOM      2  C   UNL     1       0.175  -0.313  23.916  0.00  0.00    +0.002 C 
ATOM      3  C   UNL     1       0.316  -1.045  24.271  0.00  0.00    +0.000 C 
ENDBRANCH   4   2
ENDBRANCH   5   4
BRANCH  11  12
ATOM     12  C   UNL     1      -2.706   3.628  24.837  0.00  0.00    +0.137 C 
BRANCH  12  13
ATOM     13  C   UNL     1      -3.486   3.757  25.072  0.00  0.00    +0.050 A 
ATOM     14  C   UNL     1      -4.146   3.764  24.577  0.00  0.00    +0.152 A 
ATOM     15  C   UNL     1      -4.142   3.643  23.761  0.00  0.00    +0.075 C 
ATOM     16  O   UNL     1      -4.811   3.913  25.041  0.00  0.00    -0.358 OA
ATOM     17  N   UNL     1      -4.562   3.998  25.823  0.00  0.00    -0.082 NA
ATOM     18  C   UNL     1      -3.743   3.902  25.842  0.00  0.00    +0.098 A 
ATOM     19  C   UNL     1      -3.265   3.944  26.513  0.00  0.00    +0.055 C 
ENDBRANCH  12  13
ENDBRANCH  11  12
TORSDOF 6
ENDMDL
MODEL 4
REMARK VINA RESULT:     -11.2      1.968      3.748
REMARK  Name = 
REMARK  6 active torsions:
REMARK  status: ('A' for Active; 'I' for Inactive)
REMARK    1  A    between atoms: C_2  and  C_4
REMARK    2  A    between atoms: C_4  and  C_5
REMARK    3  A    between atoms: C_7  and  C_26
REMARK    4  A    between atoms: N_11  and  C_12
REMARK    5  A    between atoms: C_12  and  C_13
REMARK    6  A    between atoms: N_28  and  C_29
REMARK                            x       y       z     vdW  Elec       q    Type
REMARK                         _______ _______ _______ _____ _____    ______ ____
ROOT
ATOM      5  C   UNL     1      -1.897   3.232  25.567  0.00  0.00    +0.095 C 
ATOM      6  N   UNL     1      -2.676   3.070  25.348  0.00  0.00    -0.207 NA
ATOM      7  C   UNL     1      -2.994   2.365  25.059  0.00  0.00    +0.155 C 
ATOM      8  C   UNL     1      -2.610   1.649  24.918  0.00  0.00    +0.055 C 
ATOM      9  C   UNL     1      -1.815   1.459  25.031  0.00  0.00    -0.002 A 
ATOM     10  C   UNL     1      -1.497   0.716  24.868  0.00  0.00    +0.072 A 
ATOM     11  N   UNL     1      -0.693   0.737  25.048  0.00  0.00    -0.322 N 
ATOM     20  C   UNL     1      -0.513   1.494  25.324  0.00  0.00    +0.060 A 
ATOM     21  C   UNL     1      -1.207   1.940  25.313  0.00  0.00    +0.011 A 
ATOM     22  C   UNL     1      -1.244   2.730  25.551  0.00  0.00    -0.005 A 
ATOM     23  C   UNL     1      -0.490   3.067  25.820  0.00  0.00    -0.003 A 
ATOM     24  C   UNL     1       0.204   2.621  25.831  0.00  0.00    +0.001 A 
ATOM     25  C   UNL     1       0.192   1.834  25.582  0.00  0.00    +0.017 A 
ENDROOT
BRANCH   7  26
ATOM     26  C   UNL     1      -3.801   2.380  24.889  0.00  0.00    +0.257 C 
ATOM     27  O   UNL     1      -4.062   2.633  24.148  0.00  0.00    -0.272 OA
ATOM     28  N   UNL     1      -4.347   2.142  25.459  0.00  0.00    -0.206 NA
BRANCH  28  29
ATOM     29  C   UNL     1      -5.154   2.157  25.288  0.00  0.00    +0.095 C 
ATOM     30  C   UNL     1      -5.679   2.764  25.480  0.00  0.00    +0.022 C 
ATOM     31  C   UNL     1      -6.427   2.550  25.206  0.00  0.00    +0.002 C 
ATOM     32  C   UNL     1      -6.365   1.810  24.845  0.00  0.00    +0.002 C 
ATOM     33  C   UNL     1      -5.578   1.568  24.896  0.00  0.00    +0.022 C 
ENDBRANCH  28  29
ENDBRANCH   7  26
BRANCH   5   4
ATOM      4  C   UNL     1      -1.754   3.998  25.837  0.00  0.00    +0.022 C 
BRANCH   4   2
ATOM      1  C   UNL     1      -1.823   4.939  24.763  0.00  0.00    +0.000 C 
ATOM      2  C   UNL     1      -2.122   4.640  25.471  0.00  0.00    +0.002 C 
ATOM      3  C   UNL     1      -2.790   4.983  25.815  0.00  0.00    +0.000 C 
ENDBRANCH   4   2
ENDBRANCH   5   4
BRANCH  11  12
ATOM     12  C   UNL     1      -0.160   0.112  24.968  0.00  0.00    +0.137 C 
BRANCH  12  13
ATOM     13  C   UNL     1      -0.396  -0.586  24.598  0.00  0.00    +0.050 A 
ATOM     14  C   UNL     1      -0.301  -0.767  23.798  0.00  0.00    +0.152 A 
ATOM     15  C   UNL     1       0.046  -0.281  23.229  0.00  0.00    +0.075 C 
ATOM     16  O   UNL     1      -0.614  -1.519  23.668  0.00  0.00    -0.358 OA
ATOM     17  N   UNL     1      -0.903  -1.803  24.387  0.00  0.00    -0.082 NA
ATOM     18  C   UNL     1      -0.768  -1.226  24.961  0.00  0.00    +0.098 A 
ATOM     19  C   UNL     1      -0.969  -1.281  25.760  0.00  0.00    +0.055 C 
ENDBRANCH  12  13
ENDBRANCH  11  12
TORSDOF 6
ENDMDL
MODEL 5
REMARK VINA RESULT:     -10.9      1.469      4.690
REMARK  Name = 
REMARK  6 active torsions:
REMARK  status: ('A' for Active; 'I' for Inactive)
REMARK    1  A    between atoms: C_2  and  C_4
REMARK    2  A    between atoms: C_4  and  C_5
REMARK    3  A    between atoms: C_7  and  C_26
REMARK    4  A    between atoms: N_11  and  C_12
REMARK    5  A    between atoms: C_12  and  C_13
REMARK    6  A    between atoms: N_28  and  C_29
REMARK                            x       y       z     vdW  Elec       q    Type
REMARK                         _______ _______ _______ _____ _____    ______ ____
ROOT
ATOM      5  C   UNL     1      -1.500   2.012  24.558  0.00  0.00    +0.095 C 
ATOM      6  N   UNL     1      -2.253   2.344  24.606  0.00  0.00    -0.207 NA
ATOM      7  C   UNL     1      -2.982   1.961  24.661  0.00  0.00    +0.155 C 
ATOM      8  C   UNL     1      -3.136   1.151  24.682  0.00  0.00    +0.055 C 
ATOM      9  C   UNL     1      -2.601   0.524  24.652  0.00  0.00    -0.002 A 
ATOM     10  C   UNL     1      -2.827  -0.269  24.678  0.00  0.00    +0.072 A 
ATOM     11  N   UNL     1      -2.145  -0.731  24.636  0.00  0.00    -0.322 N 
ATOM     20  C   UNL     1      -1.496  -0.223  24.585  0.00  0.00    +0.060 A 
ATOM     21  C   UNL     1      -1.778   0.553  24.595  0.00  0.00    +0.011 A 
ATOM     22  C   UNL     1      -1.288   1.216  24.553  0.00  0.00    -0.005 A 
ATOM     23  C   UNL     1      -0.439   1.041  24.496  0.00  0.00    -0.003 A 
ATOM     24  C   UNL     1      -0.157   0.266  24.486  0.00  0.00    +0.001 A 
ATOM     25  C   UNL     1      -0.686  -0.366  24.531  0.00  0.00    +0.017 A 
ENDROOT
BRANCH   7  26
ATOM     26  C   UNL     1      -3.643   2.453  24.701  0.00  0.00    +0.257 C 
ATOM     27  O   UNL     1      -3.941   2.800  24.013  0.00  0.00    -0.272 OA
ATOM     28  N   UNL     1      -4.005   2.599  25.427  0.00  0.00    -0.206 NA
BRANCH  28  29
ATOM     29  C   UNL     1      -4.667   3.091  25.466  0.00  0.00    +0.095 C 
ATOM     30  C   UNL     1      -5.453   2.844  25.509  0.00  0.00    +0.022 C 
ATOM     31  C   UNL     1      -5.930   3.516  25.538  0.00  0.00    +0.002 C 
ATOM     32  C   UNL     1      -5.439   4.179  25.513  0.00  0.00    +0.002 C 
ATOM     33  C   UNL     1      -4.658   3.916  25.469  0.00  0.00    +0.022 C 
ENDBRANCH  28  29
ENDBRANCH   7  26
BRANCH   5   4
ATOM      4  C   UNL     1      -0.875   2.549  24.508  0.00  0.00    +0.022 C 
BRANCH   4   2
ATOM      1  C   UNL     1      -0.995   3.969  24.607  0.00  0.00    +0.000 C 
ATOM      2  C   UNL     1      -0.884   3.235  24.966  0.00  0.00    +0.002 C 
ATOM      3  C   UNL     1      -0.781   3.186  25.784  0.00  0.00    +0.000 C 
ENDBRANCH   4   2
ENDBRANCH   5   4
BRANCH  11  12
ATOM     12  C   UNL     1      -2.115  -1.555  24.644  0.00  0.00    +0.137 C 
BRANCH  12  13
ATOM     13  C   UNL     1      -2.789  -1.991  24.834  0.00  0.00    +0.050 A 
ATOM     14  C   UNL     1      -3.057  -2.163  25.596  0.00  0.00    +0.152 A 
ATOM     15  C   UNL     1      -2.697  -1.930  26.300  0.00  0.00    +0.075 C 
ATOM     16  O   UNL     1      -3.746  -2.610  25.528  0.00  0.00    -0.358 OA
ATOM     17  N   UNL     1      -3.906  -2.713  24.725  0.00  0.00    -0.082 NA
ATOM     18  C   UNL     1      -3.314  -2.331  24.297  0.00  0.00    +0.098 A 
ATOM     19  C   UNL     1      -3.257  -2.295  23.474  0.00  0.00    +0.055 C 
ENDBRANCH  12  13
ENDBRANCH  11  12
TORSDOF 6
ENDMDL
MODEL 6
REMARK VINA RESULT:     -10.9      1.230      3.256
REMARK  Name = 
REMARK  6 active torsions:
REMARK  status: ('A' for Active; 'I' for Inactive)
REMARK    1  A    between atoms: C_2  and  C_4
REMARK    2  A    between atoms: C_4  and  C_5
REMARK    3  A    between atoms: C_7  and  C_26
REMARK    4  A    between atoms: N_11  and  C_12
REMARK    5  A    between atoms: C_12  and  C_13
REMARK    6  A    between atoms: N_28  and  C_29
REMARK                            x       y       z     vdW  Elec       q    Type
REMARK                         _______ _______ _______ _____ _____    ______ ____
ROOT
ATOM      5  C   UNL     1      -2.710  -0.870  24.561  0.00  0.00    +0.095 C 
ATOM      6  N   UNL     1      -3.391  -0.452  24.765  0.00  0.00    -0.207 NA
ATOM      7  C   UNL     1      -3.459   0.333  25.009  0.00  0.00    +0.155 C 
ATOM      8  C   UNL     1      -2.862   0.894  25.109  0.00  0.00    +0.055 C 
ATOM      9  C   UNL     1      -2.050   0.808  24.990  0.00  0.00    -0.002 A 
ATOM     10  C   UNL     1      -1.506   1.416  25.110  0.00  0.00    +0.072 A 
ATOM     11  N   UNL     1      -0.754   1.125  24.936  0.00  0.00    -0.322 N 
ATOM     20  C   UNL     1      -0.834   0.336  24.708  0.00  0.00    +0.060 A 
ATOM     21  C   UNL     1      -1.635   0.140  24.741  0.00  0.00    +0.011 A 
ATOM     22  C   UNL     1      -1.929  -0.607  24.550  0.00  0.00    -0.005 A 
ATOM     23  C   UNL     1      -1.329  -1.186  24.307  0.00  0.00    -0.003 A 
ATOM     24  C   UNL     1      -0.528  -0.991  24.273  0.00  0.00    +0.001 A 
ATOM     25  C   UNL     1      -0.281  -0.230  24.474  0.00  0.00    +0.017 A 
ENDROOT
BRANCH   7  26
ATOM     26  C   UNL     1      -4.225   0.592  25.175  0.00  0.00    +0.257 C 
ATOM     27  O   UNL     1      -4.678   0.200  25.744  0.00  0.00    -0.272 OA
ATOM     28  N   UNL     1      -4.537   1.240  24.773  0.00  0.00    -0.206 NA
BRANCH  28  29
ATOM     29  C   UNL     1      -5.303   1.498  24.940  0.00  0.00    +0.095 C 
ATOM     30  C   UNL     1      -5.512   2.071  25.495  0.00  0.00    +0.022 C 
ATOM     31  C   UNL     1      -6.332   2.156  25.479  0.00  0.00    +0.002 C 
ATOM     32  C   UNL     1      -6.631   1.634  24.914  0.00  0.00    +0.002 C 
ATOM     33  C   UNL     1      -5.996   1.228  24.581  0.00  0.00    +0.022 C 
ENDBRANCH  28  29
ENDBRANCH   7  26
BRANCH   5   4
ATOM      4  C   UNL     1      -2.827  -1.656  24.338  0.00  0.00    +0.022 C 
BRANCH   4   2
ATOM      1  C   UNL     1      -4.151  -2.074  24.003  0.00  0.00    +0.000 C 
ATOM      2  C   UNL     1      -3.527  -2.043  24.541  0.00  0.00    +0.002 C 
ATOM      3  C   UNL     1      -3.602  -2.397  25.283  0.00  0.00    +0.000 C 
ENDBRANCH   4   2
ENDBRANCH   5   4
BRANCH  11  12
ATOM     12  C   UNL     1      -0.047   1.547  24.981  0.00  0.00    +0.137 C 
BRANCH  12  13
ATOM     13  C   UNL     1      -0.057   2.352  25.159  0.00  0.00    +0.050 A 
ATOM     14  C   UNL     1       0.012   2.683  25.912  0.00  0.00    +0.152 A 
ATOM     15  C   UNL     1       0.105   2.267  26.618  0.00  0.00    +0.075 C 
ATOM     16  O   UNL     1      -0.026   3.503  25.834  0.00  0.00    -0.358 OA
ATOM     17  N   UNL     1      -0.120   3.679  25.033  0.00  0.00    -0.082 NA
ATOM     18  C   UNL     1      -0.139   2.967  24.617  0.00  0.00    +0.098 A 
ATOM     19  C   UNL     1      -0.225   2.886  23.800  0.00  0.00    +0.055 C 
ENDBRANCH  12  13
ENDBRANCH  11  12
TORSDOF 6
ENDMDL
MODEL 7
REMARK VINA RESULT:     -10.8      1.839      3.788
REMARK  Name = 
REMARK  6 active torsions:
REMARK  status: ('A' for Active; 'I' for Inactive)
REMARK    1  A    between atoms: C_2  and  C_4
REMARK    2  A    between atoms: C_4  and  C_5
REMARK    3  A    between atoms: C_7  and  C_26
REMARK    4  A    between atoms: N_11  and  C_12
REMARK    5  A    between atoms: C_12  and  C_13
REMARK    6  A    between atoms: N_28  and  C_29
REMARK                            x       y       z     vdW  Elec       q    Type
REMARK                         _______ _______ _______ _____ _____    ______ ____
ROOT
ATOM      5  C   UNL     1      -3.116  -0.457  24.533  0.00  0.00    +0.095 C 
ATOM      6  N   UNL     1      -2.300  -0.418  24.413  0.00  0.00    -0.207 NA
ATOM      7  C   UNL     1      -1.806   0.241  24.450  0.00  0.00    +0.155 C 
ATOM      8  C   UNL     1      -2.005   1.024  24.616  0.00  0.00    +0.055 C 
ATOM      9  C   UNL     1      -2.747   1.342  24.786  0.00  0.00    -0.002 A 
ATOM     10  C   UNL     1      -2.875   2.141  24.944  0.00  0.00    +0.072 A 
ATOM     11  N   UNL     1      -3.680   2.248  25.087  0.00  0.00    -0.322 N 
ATOM     20  C   UNL     1      -4.051   1.514  25.018  0.00  0.00    +0.060 A 
ATOM     21  C   UNL     1      -3.474   0.954  24.832  0.00  0.00    +0.011 A 
ATOM     22  C   UNL     1      -3.638   0.152  24.719  0.00  0.00    -0.005 A 
ATOM     23  C   UNL     1      -4.473  -0.067  24.811  0.00  0.00    -0.003 A 
ATOM     24  C   UNL     1      -5.050   0.492  24.997  0.00  0.00    +0.001 A 
ATOM     25  C   UNL     1      -4.838   1.283  25.101  0.00  0.00    +0.017 A 
ENDROOT
BRANCH   7  26
ATOM     26  C   UNL     1      -1.007   0.098  24.301  0.00  0.00    +0.257 C 
ATOM     27  O   UNL     1      -0.530  -0.231  24.889  0.00  0.00    -0.272 OA
ATOM     28  N   UNL     1      -0.685   0.285  23.565  0.00  0.00    -0.206 NA
BRANCH  28  29
ATOM     29  C   UNL     1       0.114   0.141  23.417  0.00  0.00    +0.095 C 
ATOM     30  C   UNL     1       0.728   0.687  23.499  0.00  0.00    +0.022 C 
ATOM     31  C   UNL     1       1.432   0.311  23.294  0.00  0.00    +0.002 C 
ATOM     32  C   UNL     1       1.255  -0.468  23.085  0.00  0.00    +0.002 C 
ATOM     33  C   UNL     1       0.441  -0.572  23.161  0.00  0.00    +0.022 C 
ENDBRANCH  28  29
ENDBRANCH   7  26
BRANCH   5   4
ATOM      4  C   UNL     1      -3.452  -1.206  24.456  0.00  0.00    +0.022 C 
BRANCH   4   2
ATOM      1  C   UNL     1      -3.110  -1.972  25.613  0.00  0.00    +0.000 C 
ATOM      2  C   UNL     1      -3.083  -1.862  24.796  0.00  0.00    +0.002 C 
ATOM      3  C   UNL     1      -2.687  -2.406  24.318  0.00  0.00    +0.000 C 
ENDBRANCH   4   2
ENDBRANCH   5   4
BRANCH  11  12
ATOM     12  C   UNL     1      -4.051   2.962  25.268  0.00  0.00    +0.137 C 
BRANCH  12  13
ATOM     13  C   UNL     1      -3.635   3.672  25.201  0.00  0.00    +0.050 A 
ATOM     14  C   UNL     1      -3.564   4.130  24.518  0.00  0.00    +0.152 A 
ATOM     15  C   UNL     1      -3.897   3.959  23.783  0.00  0.00    +0.075 C 
ATOM     16  O   UNL     1      -3.103   4.789  24.701  0.00  0.00    -0.358 OA
ATOM     17  N   UNL     1      -2.889   4.738  25.496  0.00  0.00    -0.082 NA
ATOM     18  C   UNL     1      -3.218   4.048  25.805  0.00  0.00    +0.098 A 
ATOM     19  C   UNL     1      -3.142   3.780  26.582  0.00  0.00    +0.055 C 
ENDBRANCH  12  13
ENDBRANCH  11  12
TORSDOF 6
ENDMDL
MODEL 8
REMARK VINA RESULT:     -10.8      1.179      4.412
REMARK  Name = 
REMARK  6 active torsions:
REMARK  status: ('A' for Active; 'I' for Inactive)
REMARK    1  A    between atoms: C_2  and  C_4
REMARK    2  A    between atoms: C_4  and  C_5
REMARK    3  A    between atoms: C_7  and  C_26
REMARK    4  A    between atoms: N_11  and  C_12
REMARK    5  A    between atoms: C_12  and  C_13
REMARK    6  A    between atoms: N_28  and  C_29
REMARK                            x       y       z     vdW  Elec       q    Type
REMARK                         _______ _______ _______ _____ _____    ______ ____
ROOT
ATOM      5  C   UNL     1      -3.989   2.444  24.609  0.00  0.00    +0.095 C 
ATOM      6  N   UNL     1      -3.193   2.523  24.405  0.00  0.00    -0.207 NA
ATOM      7  C   UNL     1      -2.628   1.931  24.297  0.00  0.00    +0.155 C 
ATOM      8  C   UNL     1      -2.720   1.114  24.365  0.00  0.00    +0.055 C 
ATOM      9  C   UNL     1      -3.399   0.687  24.558  0.00  0.00    -0.002 A 
ATOM     10  C   UNL     1      -3.420  -0.136  24.609  0.00  0.00    +0.072 A 
ATOM     11  N   UNL     1      -4.187  -0.360  24.814  0.00  0.00    -0.322 N 
ATOM     20  C   UNL     1      -4.641   0.324  24.889  0.00  0.00    +0.060 A 
ATOM     21  C   UNL     1      -4.154   0.972  24.732  0.00  0.00    +0.011 A 
ATOM     22  C   UNL     1      -4.416   1.755  24.754  0.00  0.00    -0.005 A 
ATOM     23  C   UNL     1      -5.254   1.855  24.958  0.00  0.00    -0.003 A 
ATOM     24  C   UNL     1      -5.741   1.208  25.115  0.00  0.00    +0.001 A 
ATOM     25  C   UNL     1      -5.434   0.442  25.081  0.00  0.00    +0.017 A 
ENDROOT
BRANCH   7  26
ATOM     26  C   UNL     1      -1.872   2.191  24.093  0.00  0.00    +0.257 C 
ATOM     27  O   UNL     1      -1.701   2.390  23.310  0.00  0.00    -0.272 OA
ATOM     28  N   UNL     1      -1.287   2.251  24.671  0.00  0.00    -0.206 NA
BRANCH  28  29
ATOM     29  C   UNL     1      -0.531   2.511  24.467  0.00  0.00    +0.095 C 
ATOM     30  C   UNL     1       0.126   2.031  24.333  0.00  0.00    +0.022 C 
ATOM     31  C   UNL     1       0.764   2.519  24.144  0.00  0.00    +0.002 C 
ATOM     32  C   UNL     1       0.501   3.301  24.161  0.00  0.00    +0.002 C 
ATOM     33  C   UNL     1      -0.300   3.296  24.361  0.00  0.00    +0.022 C 
ENDBRANCH  28  29
ENDBRANCH   7  26
BRANCH   5   4
ATOM      4  C   UNL     1      -4.412   3.149  24.675  0.00  0.00    +0.022 C 
BRANCH   4   2
ATOM      1  C   UNL     1      -3.887   3.892  25.777  0.00  0.00    +0.000 C 
ATOM      2  C   UNL     1      -4.042   3.826  24.970  0.00  0.00    +0.002 C 
ATOM      3  C   UNL     1      -3.828   4.435  24.456  0.00  0.00    +0.000 C 
ENDBRANCH   4   2
ENDBRANCH   5   4
BRANCH  11  12
ATOM     12  C   UNL     1      -4.454  -1.133  24.923  0.00  0.00    +0.137 C 
BRANCH  12  13
ATOM     13  C   UNL     1      -3.936  -1.767  24.825  0.00  0.00    +0.050 A 
ATOM     14  C   UNL     1      -3.408  -2.054  25.391  0.00  0.00    +0.152 A 
ATOM     15  C   UNL     1      -3.306  -1.757  26.154  0.00  0.00    +0.075 C 
ATOM     16  O   UNL     1      -3.000  -2.689  25.060  0.00  0.00    -0.358 OA
ATOM     17  N   UNL     1      -3.276  -2.796  24.290  0.00  0.00    -0.082 NA
ATOM     18  C   UNL     1      -3.854  -2.226  24.145  0.00  0.00    +0.098 A 
ATOM     19  C   UNL     1      -4.276  -2.131  23.442  0.00  0.00    +0.055 C 
ENDBRANCH  12  13
ENDBRANCH  11  12
TORSDOF 6
ENDMDL
