MODEL 1
REMARK VINA RESULT:     -14.7      0.000      0.000
REMARK  Name = 
REMARK  5 active torsions:
REMARK  status: ('A' for Active; 'I' for Inactive)
REMARK    1  A    between atoms: O_2  and  C_3
REMARK    2  A    between atoms: C_6  and  C_9
REMARK    3  A    between atoms: C_17  and  C_19
REMARK    4  A    between atoms: C_19  and  O_20
REMARK    5  A    between atoms: O_20  and  C_21
REMARK                            x       y       z     vdW  Elec       q    Type
REMARK                         _______ _______ _______ _____ _____    ______ ____
ROOT
ATOM      9  C   UNL     1      -3.467   0.692  24.526  0.00  0.00    +0.012 A 
ATOM     10  C   UNL     1      -4.041   1.218  24.799  0.00  0.00    +0.041 A 
ATOM     11  C   UNL     1      -4.899   1.229  25.129  0.00  0.00    +0.058 C 
ATOM     12  C   UNL     1      -5.433   0.803  25.291  0.00  0.00    +0.011 C 
ATOM     13  C   UNL     1      -5.273   1.602  25.310  0.00  0.00    +0.043 C 
ATOM     14  C   UNL     1      -5.270   2.585  25.410  0.00  0.00    +0.095 C 
ATOM     15  N   UNL     1      -4.500   2.752  25.132  0.00  0.00    -0.276 N 
ATOM     16  C   UNL     1      -4.912   2.179  25.231  0.00  0.00    +0.099 C 
ATOM     17  C   UNL     1      -3.837   3.196  24.922  0.00  0.00    +0.270 C 
ATOM     18  O   UNL     1      -3.846   4.016  25.009  0.00  0.00    -0.271 OA
ATOM     27  C   UNL     1      -4.376   1.599  24.967  0.00  0.00    +0.110 C 
ATOM     28  N   UNL     1      -3.883   2.027  24.821  0.00  0.00    -0.299 N 
ATOM     29  C   UNL     1      -3.150   2.311  24.569  0.00  0.00    +0.261 A 
ATOM     30  O   UNL     1      -2.579   2.883  24.409  0.00  0.00    -0.267 OA
ATOM     31  C   UNL     1      -2.576   1.786  24.296  0.00  0.00    +0.061 A 
ATOM     32  C   UNL     1      -2.735   0.976  24.274  0.00  0.00    +0.006 A 
ENDROOT
BRANCH   9   6
ATOM      3  C   UNL     1      -3.943  -1.736  24.461  0.00  0.00    +0.139 A 
ATOM      4  C   UNL     1      -4.128  -1.262  23.812  0.00  0.00    +0.037 A 
ATOM      5  C   UNL     1      -3.969  -0.453  23.834  0.00  0.00    +0.003 A 
ATOM      6  C   UNL     1      -3.626  -0.117  24.504  0.00  0.00    +0.001 A 
ATOM      7  C   UNL     1      -3.441  -0.591  25.154  0.00  0.00    +0.003 A 
ATOM      8  C   UNL     1      -3.600  -1.401  25.132  0.00  0.00    +0.037 A 
BRANCH   3   2
ATOM      1  C   UNL     1      -3.484  -3.089  24.505  0.00  0.00    +0.252 C 
ATOM      2  O   UNL     1      -4.102  -2.545  24.440  0.00  0.00    -0.471 OA
ENDBRANCH   3   2
ENDBRANCH   9   6
BRANCH  17  19
ATOM     19  C   UNL     1      -3.165   2.819  24.626  0.00  0.00    +0.290 C 
BRANCH  19  20
ATOM     20  O   UNL     1      -2.599   3.253  24.211  0.00  0.00    -0.466 OA
BRANCH  20  21
ATOM     21  C   UNL     1      -2.052   3.715  24.618  0.00  0.00    +0.139 A 
ATOM     22  C   UNL     1      -2.172   4.529  24.689  0.00  0.00    +0.037 A 
ATOM     23  C   UNL     1      -1.624   4.993  25.097  0.00  0.00    +0.003 A 
ATOM     24  C   UNL     1      -0.957   4.643  25.432  0.00  0.00    +0.000 A 
ATOM     25  C   UNL     1      -0.837   3.829  25.361  0.00  0.00    +0.003 A 
ATOM     26  C   UNL     1      -1.384   3.367  24.954  0.00  0.00    +0.037 A 
ENDBRANCH  20  21
ENDBRANCH  19  20
ENDBRANCH  17  19
TORSDOF 5
ENDMDL
MODEL 2
REMARK VINA RESULT:     -14.4      1.110      4.445
REMARK  Name = 
REMARK  5 active torsions:
REMARK  status: ('A' for Active; 'I' for Inactive)
REMARK    1  A    between atoms: O_2  and  C_3
REMARK    2  A    between atoms: C_6  and  C_9
REMARK    3  A    between atoms: C_17  and  C_19
REMARK    4  A    between atoms: C_19  and  O_20
REMARK    5  A    between atoms: O_20  and  C_21
REMARK                            x       y       z     vdW  Elec       q    Type
REMARK                         _______ _______ _______ _____ _____    ______ ____
ROOT
ATOM      9  C   UNL     1      -2.916   2.243  24.803  0.00  0.00    +0.012 A 
ATOM     10  C   UNL     1      -3.725   2.130  24.916  0.00  0.00    +0.041 A 
ATOM     11  C   UNL     1      -4.480   2.586  25.177  0.00  0.00    +0.058 C 
ATOM     12  C   UNL     1      -4.694   3.219  25.391  0.00  0.00    +0.011 C 
ATOM     13  C   UNL     1      -5.024   2.488  25.247  0.00  0.00    +0.043 C 
ATOM     14  C   UNL     1      -5.600   1.694  25.129  0.00  0.00    +0.095 C 
ATOM     15  N   UNL     1      -5.027   1.142  24.874  0.00  0.00    -0.276 N 
ATOM     16  C   UNL     1      -5.049   1.827  25.068  0.00  0.00    +0.099 C 
ATOM     17  C   UNL     1      -4.710   0.424  24.618  0.00  0.00    +0.270 C 
ATOM     18  O   UNL     1      -5.200  -0.233  24.524  0.00  0.00    -0.271 OA
ATOM     27  C   UNL     1      -4.241   2.004  24.973  0.00  0.00    +0.110 C 
ATOM     28  N   UNL     1      -4.063   1.391  24.771  0.00  0.00    -0.299 N 
ATOM     29  C   UNL     1      -3.591   0.765  24.514  0.00  0.00    +0.261 A 
ATOM     30  O   UNL     1      -3.429  -0.006  24.271  0.00  0.00    -0.267 OA
ATOM     31  C   UNL     1      -2.782   0.878  24.401  0.00  0.00    +0.061 A 
ATOM     32  C   UNL     1      -2.444   1.617  24.546  0.00  0.00    +0.006 A 
ENDROOT
BRANCH   9   6
ATOM      3  C   UNL     1      -1.903   4.460  25.237  0.00  0.00    +0.139 A 
ATOM      4  C   UNL     1      -2.242   4.298  24.503  0.00  0.00    +0.037 A 
ATOM      5  C   UNL     1      -2.580   3.559  24.359  0.00  0.00    +0.003 A 
ATOM      6  C   UNL     1      -2.578   2.982  24.948  0.00  0.00    +0.001 A 
ATOM      7  C   UNL     1      -2.239   3.144  25.682  0.00  0.00    +0.003 A 
ATOM      8  C   UNL     1      -1.901   3.883  25.827  0.00  0.00    +0.037 A 
BRANCH   3   2
ATOM      1  C   UNL     1      -0.916   5.449  24.939  0.00  0.00    +0.252 C 
ATOM      2  O   UNL     1      -1.566   5.198  25.382  0.00  0.00    -0.471 OA
ENDBRANCH   3   2
ENDBRANCH   9   6
BRANCH  17  19
ATOM     19  C   UNL     1      -3.902   0.363  24.458  0.00  0.00    +0.290 C 
BRANCH  19  20
ATOM     20  O   UNL     1      -3.624  -0.238  23.967  0.00  0.00    -0.466 OA
BRANCH  20  21
ATOM     21  C   UNL     1      -3.622  -1.020  24.232  0.00  0.00    +0.139 A 
ATOM     22  C   UNL     1      -4.064  -1.591  23.832  0.00  0.00    +0.037 A 
ATOM     23  C   UNL     1      -4.063  -2.373  24.096  0.00  0.00    +0.003 A 
ATOM     24  C   UNL     1      -3.620  -2.583  24.759  0.00  0.00    +0.000 A 
ATOM     25  C   UNL     1      -3.178  -2.012  25.159  0.00  0.00    +0.003 A 
ATOM     26  C   UNL     1      -3.180  -1.231  24.895  0.00  0.00    +0.037 A 
ENDBRANCH  20  21
ENDBRANCH  19  20
ENDBRANCH  17  19
TORSDOF 5
ENDMDL
MODEL 3
REMARK VINA RESULT:     -13.6      1.701      5.186
REMARK  Name = 
REMARK  5 active torsions:
REMARK  status: ('A' for Active; 'I' for Inactive)
REMARK    1  A    between atoms: O_2  and  C_3
REMARK    2  A    between atoms: C_6  and  C_9
REMARK    3  A    between atoms: C_17  and  C_19
REMARK    4  A    between atoms: C_19  and  O_20
REMARK    5  A    between atoms: O_20  and  C_21
REMARK                            x       y       z     vdW  Elec       q    Type
REMARK                         _______ _______ _______ _____ _____    ______ ____
ROOT
ATOM      9  C   UNL     1      -2.152   1.654  25.004  0.00  0.00    +0.012 A 
ATOM     10  C   UNL     1      -1.534   1.174  24.744  0.00  0.00    +0.041 A 
ATOM     11  C   UNL     1      -0.663   1.227  24.455  0.00  0.00    +0.058 C 
ATOM     12  C   UNL     1      -0.151   1.691  24.331  0.00  0.00    +0.011 C 
ATOM     13  C   UNL     1      -0.258   0.885  24.282  0.00  0.00    +0.043 C 
ATOM     14  C   UNL     1      -0.191  -0.093  24.157  0.00  0.00    +0.095 C 
ATOM     15  N   UNL     1      -0.961  -0.317  24.394  0.00  0.00    -0.276 N 
ATOM     16  C   UNL     1      -0.583   0.284  24.329  0.00  0.00    +0.099 C 
ATOM     17  C   UNL     1      -1.602  -0.809  24.559  0.00  0.00    +0.270 C 
ATOM     18  O   UNL     1      -1.536  -1.623  24.451  0.00  0.00    -0.271 OA
ATOM     27  C   UNL     1      -1.167   0.820  24.583  0.00  0.00    +0.110 C 
ATOM     28  N   UNL     1      -1.638   0.357  24.694  0.00  0.00    -0.299 N 
ATOM     29  C   UNL     1      -2.361   0.020  24.903  0.00  0.00    +0.261 A 
ATOM     30  O   UNL     1      -2.900  -0.593  25.021  0.00  0.00    -0.267 OA
ATOM     31  C   UNL     1      -2.980   0.499  25.162  0.00  0.00    +0.061 A 
ATOM     32  C   UNL     1      -2.876   1.316  25.213  0.00  0.00    +0.006 A 
ENDROOT
BRANCH   9   6
ATOM      3  C   UNL     1      -1.840   4.105  25.155  0.00  0.00    +0.139 A 
ATOM      4  C   UNL     1      -1.606   3.620  25.780  0.00  0.00    +0.037 A 
ATOM      5  C   UNL     1      -1.711   2.803  25.730  0.00  0.00    +0.003 A 
ATOM      6  C   UNL     1      -2.048   2.471  25.054  0.00  0.00    +0.001 A 
ATOM      7  C   UNL     1      -2.282   2.955  24.429  0.00  0.00    +0.003 A 
ATOM      8  C   UNL     1      -2.178   3.772  24.480  0.00  0.00    +0.037 A 
BRANCH   3   2
ATOM      1  C   UNL     1      -1.016   5.260  24.987  0.00  0.00    +0.252 C 
ATOM      2  O   UNL     1      -1.736   4.921  25.206  0.00  0.00    -0.471 OA
ENDBRANCH   3   2
ENDBRANCH   9   6
BRANCH  17  19
ATOM     19  C   UNL     1      -2.311  -0.485  24.833  0.00  0.00    +0.290 C 
BRANCH  19  20
ATOM     20  O   UNL     1      -2.861  -0.964  25.217  0.00  0.00    -0.466 OA
BRANCH  20  21
ATOM     21  C   UNL     1      -3.301  -1.514  24.789  0.00  0.00    +0.139 A 
ATOM     22  C   UNL     1      -3.183  -2.322  24.912  0.00  0.00    +0.037 A 
ATOM     23  C   UNL     1      -3.623  -2.873  24.484  0.00  0.00    +0.003 A 
ATOM     24  C   UNL     1      -4.180  -2.617  23.933  0.00  0.00    +0.000 A 
ATOM     25  C   UNL     1      -4.299  -1.809  23.810  0.00  0.00    +0.003 A 
ATOM     26  C   UNL     1      -3.859  -1.259  24.238  0.00  0.00    +0.037 A 
ENDBRANCH  20  21
ENDBRANCH  19  20
ENDBRANCH  17  19
TORSDOF 5
ENDMDL
MODEL 4
REMARK VINA RESULT:     -13.0      1.368      2.423
REMARK  Name = 
REMARK  5 active torsions:
REMARK  status: ('A' for Active; 'I' for Inactive)
REMARK    1  A    between atoms: O_2  and  C_3
REMARK    2  A    between atoms: C_6  and  C_9
REMARK    3  A    between atoms: C_17  and  C_19
REMARK    4  A    between atoms: C_19  and  O_20
REMARK    5  A    between atoms: O_20  and  C_21
REMARK                            x       y       z     vdW  Elec       q    Type
REMARK                         _______ _______ _______ _____ _____    ______ ____
ROOT
ATOM      9  C   UNL     1      -2.785   0.267  24.686  0.00  0.00    +0.012 A 
ATOM     10  C   UNL     1      -1.978   0.412  24.599  0.00  0.00    +0.041 A 
ATOM     11  C   UNL     1      -1.176  -0.033  24.537  0.00  0.00    +0.058 C 
ATOM     12  C   UNL     1      -0.904  -0.679  24.536  0.00  0.00    +0.011 C 
ATOM     13  C   UNL     1      -0.634   0.087  24.478  0.00  0.00    +0.043 C 
ATOM     14  C   UNL     1      -0.123   0.928  24.394  0.00  0.00    +0.095 C 
ATOM     15  N   UNL     1      -0.750   1.479  24.434  0.00  0.00    -0.276 N 
ATOM     16  C   UNL     1      -0.667   0.771  24.454  0.00  0.00    +0.099 C 
ATOM     17  C   UNL     1      -1.133   2.209  24.443  0.00  0.00    +0.270 C 
ATOM     18  O   UNL     1      -0.696   2.905  24.372  0.00  0.00    -0.271 OA
ATOM     27  C   UNL     1      -1.468   0.560  24.543  0.00  0.00    +0.110 C 
ATOM     28  N   UNL     1      -1.702   1.187  24.541  0.00  0.00    -0.299 N 
ATOM     29  C   UNL     1      -2.233   1.818  24.569  0.00  0.00    +0.261 A 
ATOM     30  O   UNL     1      -2.464   2.609  24.560  0.00  0.00    -0.267 OA
ATOM     31  C   UNL     1      -3.040   1.673  24.655  0.00  0.00    +0.061 A 
ATOM     32  C   UNL     1      -3.317   0.897  24.714  0.00  0.00    +0.006 A 
ENDROOT
BRANCH   9   6
ATOM      3  C   UNL     1      -3.614  -2.059  24.861  0.00  0.00    +0.139 A 
ATOM      4  C   UNL     1      -3.588  -1.685  24.127  0.00  0.00    +0.037 A 
ATOM      5  C   UNL     1      -3.312  -0.909  24.068  0.00  0.00    +0.003 A 
ATOM      6  C   UNL     1      -3.061  -0.509  24.744  0.00  0.00    +0.001 A 
ATOM      7  C   UNL     1      -3.086  -0.883  25.479  0.00  0.00    +0.003 A 
ATOM      8  C   UNL     1      -3.363  -1.659  25.537  0.00  0.00    +0.037 A 
BRANCH   3   2
ATOM      1  C   UNL     1      -3.514  -3.439  24.502  0.00  0.00    +0.252 C 
ATOM      2  O   UNL     1      -3.889  -2.834  24.919  0.00  0.00    -0.471 OA
ENDBRANCH   3   2
ENDBRANCH   9   6
BRANCH  17  19
ATOM     19  C   UNL     1      -1.954   2.244  24.524  0.00  0.00    +0.290 C 
BRANCH  19  20
ATOM     20  O   UNL     1      -2.356   2.943  24.349  0.00  0.00    -0.466 OA
BRANCH  20  21
ATOM     21  C   UNL     1      -2.313   3.584  24.866  0.00  0.00    +0.139 A 
ATOM     22  C   UNL     1      -1.806   4.214  24.700  0.00  0.00    +0.037 A 
ATOM     23  C   UNL     1      -1.763   4.856  25.216  0.00  0.00    +0.003 A 
ATOM     24  C   UNL     1      -2.227   4.869  25.898  0.00  0.00    +0.000 A 
ATOM     25  C   UNL     1      -2.735   4.239  26.064  0.00  0.00    +0.003 A 
ATOM     26  C   UNL     1      -2.777   3.597  25.547  0.00  0.00    +0.037 A 
ENDBRANCH  20  21
ENDBRANCH  19  20
ENDBRANCH  17  19
TORSDOF 5
ENDMDL
MODEL 5
REMARK VINA RESULT:     -12.3      1.932      3.518
REMARK  Name = 
REMARK  5 active torsions:
REMARK  status: ('A' for Active; 'I' for Inactive)
REMARK    1  A    between atoms: O_2  and  C_3
REMARK    2  A    between atoms: C_6  and  C_9
REMARK    3  A    between atoms: C_17  and  C_19
REMARK    4  A    between atoms: C_19  and  O_20
REMARK    5  A    between atoms: O_20  and  C_21
REMARK                            x       y       z     vdW  Elec       q    Type
REMARK                         _______ _______ _______ _____ _____    ______ ____
ROOT
ATOM      9  C   UNL     1      -1.699   1.440  24.261  0.00  0.00    +0.012 A 
ATOM     10  C   UNL     1      -1.606   2.064  24.792  0.00  0.00    +0.041 A 
ATOM     11  C   UNL     1      -0.962   2.474  25.305  0.00  0.00    +0.058 C 
ATOM     12  C   UNL     1      -0.280   2.437  25.465  0.00  0.00    +0.011 C 
ATOM     13  C   UNL     1      -0.921   2.901  25.662  0.00  0.00    +0.043 C 
ATOM     14  C   UNL     1      -1.562   3.562  26.019  0.00  0.00    +0.095 C 
ATOM     15  N   UNL     1      -2.254   3.314  25.624  0.00  0.00    -0.276 N 
ATOM     16  C   UNL     1      -1.570   3.121  25.659  0.00  0.00    +0.099 C 
ATOM     17  C   UNL     1      -3.047   3.302  25.393  0.00  0.00    +0.270 C 
ATOM     18  O   UNL     1      -3.573   3.859  25.698  0.00  0.00    -0.271 OA
ATOM     27  C   UNL     1      -1.599   2.478  25.130  0.00  0.00    +0.110 C 
ATOM     28  N   UNL     1      -2.252   2.535  24.994  0.00  0.00    -0.299 N 
ATOM     29  C   UNL     1      -2.993   2.383  24.664  0.00  0.00    +0.261 A 
ATOM     30  O   UNL     1      -3.798   2.501  24.534  0.00  0.00    -0.267 OA
ATOM     31  C   UNL     1      -3.087   1.760  24.132  0.00  0.00    +0.061 A 
ATOM     32  C   UNL     1      -2.440   1.288  23.931  0.00  0.00    +0.006 A 
ENDROOT
BRANCH   9   6
ATOM      3  C   UNL     1       0.241   0.027  23.656  0.00  0.00    +0.139 A 
ATOM      4  C   UNL     1       0.107   0.736  23.258  0.00  0.00    +0.037 A 
ATOM      5  C   UNL     1      -0.540   1.207  23.459  0.00  0.00    +0.003 A 
ATOM      6  C   UNL     1      -1.053   0.969  24.059  0.00  0.00    +0.001 A 
ATOM      7  C   UNL     1      -0.919   0.260  24.458  0.00  0.00    +0.003 A 
ATOM      8  C   UNL     1      -0.273  -0.212  24.257  0.00  0.00    +0.037 A 
BRANCH   3   2
ATOM      1  C   UNL     1       1.338  -0.263  22.789  0.00  0.00    +0.252 C 
ATOM      2  O   UNL     1       0.886  -0.444  23.455  0.00  0.00    -0.471 OA
ENDBRANCH   3   2
ENDBRANCH   9   6
BRANCH  17  19
ATOM     19  C   UNL     1      -3.312   2.732  24.858  0.00  0.00    +0.290 C 
BRANCH  19  20
ATOM     20  O   UNL     1      -4.050   2.816  24.500  0.00  0.00    -0.466 OA
BRANCH  20  21
ATOM     21  C   UNL     1      -4.737   2.653  24.926  0.00  0.00    +0.139 A 
ATOM     22  C   UNL     1      -5.162   3.268  25.276  0.00  0.00    +0.037 A 
ATOM     23  C   UNL     1      -5.850   3.105  25.702  0.00  0.00    +0.003 A 
ATOM     24  C   UNL     1      -6.112   2.327  25.779  0.00  0.00    +0.000 A 
ATOM     25  C   UNL     1      -5.687   1.711  25.430  0.00  0.00    +0.003 A 
ATOM     26  C   UNL     1      -5.000   1.875  25.004  0.00  0.00    +0.037 A 
ENDBRANCH  20  21
ENDBRANCH  19  20
ENDBRANCH  17  19
TORSDOF 5
ENDMDL
