REMARK  Name = 
REMARK  9 active torsions:
REMARK  status: ('A' for Active; 'I' for Inactive)
REMARK    1  A    between atoms: C_2  and  C_4
REMARK    2  A    between atoms: C_6  and  C_7
REMARK    3  A    between atoms: C_7  and  C_8
REMARK    4  A    between atoms: N_10  and  C_11
REMARK    5  A    between atoms: C_11  and  C_12
REMARK    6  A    between atoms: C_12  and  N_13
REMARK    7  A    between atoms: C_19  and  C_20
REMARK    8  A    between atoms: C_20  and  N_21
REMARK    9  A    between atoms: C_22  and  C_24
REMARK                            x       y       z     vdW  Elec       q    Type
REMARK                         _______ _______ _______ _____ _____    ______ ____
ROOT
ATOM      4  C   UNL     1       1.429  -4.950   0.000  0.00  0.00    +0.006 C 
ATOM      5  C   UNL     1       2.143  -4.537   0.000  0.00  0.00    +0.005 C 
ATOM      6  C   UNL     1       2.858  -4.950   0.000  0.00  0.00    +0.027 C 
ATOM     16  C   UNL     1       2.858  -5.775   0.000  0.00  0.00    -0.048 C 
ATOM     17  C   UNL     1       3.572  -6.188   0.000  0.00  0.00    +0.026 C 
ATOM     18  C   UNL     1       2.143  -6.188   0.000  0.00  0.00    -0.033 C 
ATOM     19  C   UNL     1       1.429  -5.775   0.000  0.00  0.00    +0.043 C 
ENDROOT
BRANCH   4   2
ATOM      1  C   UNL     1       0.000  -4.950   0.000  0.00  0.00    +0.000 C 
ATOM      2  C   UNL     1       0.715  -4.537   0.000  0.00  0.00    +0.000 C 
ATOM      3  C   UNL     1       0.715  -3.712   0.000  0.00  0.00    +0.000 C 
ENDBRANCH   4   2
BRANCH   6   7
ATOM      7  C   UNL     1       3.572  -4.537   0.000  0.00  0.00    +0.091 C 
BRANCH   7   8
ATOM      8  C   UNL     1       4.287  -4.950   0.000  0.00  0.00    +0.242 C 
ATOM      9  O   UNL     1       4.287  -5.775   0.000  0.00  0.00    -0.273 OA
ATOM     10  N   UNL     1       5.001  -4.537   0.000  0.00  0.00    -0.204 NA
BRANCH  10  11
ATOM     11  C   UNL     1       5.716  -4.950   0.000  0.00  0.00    +0.132 C 
BRANCH  11  12
ATOM     12  C   UNL     1       6.430  -4.537   0.000  0.00  0.00    +0.096 C 
BRANCH  12  13
ATOM     13  N   UNL     1       7.145  -4.950   0.000  0.00  0.00    -0.269 NA
ATOM     14  C   UNL     1       7.859  -4.537   0.000  0.00  0.00    +0.090 C 
ATOM     15  C   UNL     1       7.145  -5.775   0.000  0.00  0.00    +0.090 C 
ENDBRANCH  12  13
ENDBRANCH  11  12
ENDBRANCH  10  11
ENDBRANCH   7   8
ENDBRANCH   6   7
BRANCH  19  20
ATOM     20  C   UNL     1       0.715  -6.188   0.000  0.00  0.00    +0.120 C 
BRANCH  20  21
ATOM     21  N   UNL     1       0.000  -5.775   0.000  0.00  0.00    -0.201 NA
ATOM     22  C   UNL     1      -0.715  -6.188   0.000  0.00  0.00    +0.265 C 
ATOM     23  O   UNL     1      -0.715  -7.013   0.000  0.00  0.00    -0.268 OA
BRANCH  22  24
ATOM     24  C   UNL     1      -1.429  -5.775   0.000  0.00  0.00    +0.055 A 
ATOM     25  C   UNL     1      -2.143  -6.188   0.000  0.00  0.00    +0.005 A 
ATOM     26  C   UNL     1      -2.858  -5.775   0.000  0.00  0.00    +0.000 A 
ATOM     27  C   UNL     1      -2.858  -4.950   0.000  0.00  0.00    +0.000 A 
ATOM     28  C   UNL     1      -2.143  -4.537   0.000  0.00  0.00    +0.000 A 
ATOM     29  C   UNL     1      -1.429  -4.950   0.000  0.00  0.00    +0.005 A 
ENDBRANCH  22  24
ENDBRANCH  20  21
ENDBRANCH  19  20
TORSDOF 9
