REMARK  Name = 
REMARK  6 active torsions:
REMARK  status: ('A' for Active; 'I' for Inactive)
REMARK    1  A    between atoms: C_2  and  N_4
REMARK    2  A    between atoms: N_4  and  C_5
REMARK    3  A    between atoms: C_8  and  C_9
REMARK    4  A    between atoms: C_9  and  N_10
REMARK    5  A    between atoms: N_10  and  S_11
REMARK    6  A    between atoms: S_11  and  C_14
REMARK                            x       y       z     vdW  Elec       q    Type
REMARK                         _______ _______ _______ _____ _____    ______ ____
ROOT
ATOM      9  C   UNL     1       0.531  -5.237   0.000  0.00  0.00    +0.148 C 
ENDROOT
BRANCH   9   8
ATOM      5  C   UNL     1       1.429  -3.300   0.000  0.00  0.00    +0.135 C 
ATOM      6  C   UNL     1       2.096  -3.785   0.000  0.00  0.00    +0.162 C 
ATOM      7  O   UNL     1       1.841  -4.569   0.000  0.00  0.00    -0.350 OA
ATOM      8  C   UNL     1       1.016  -4.569   0.000  0.00  0.00    +0.166 C 
ATOM     20  C   UNL     1       0.761  -3.785   0.000  0.00  0.00    +0.199 C 
ATOM     21  O   UNL     1      -0.023  -3.530   0.000  0.00  0.00    -0.219 OA
BRANCH   5   4
ATOM      4  N   UNL     1       1.429  -2.475   0.000  0.00  0.00    -0.216 NA
BRANCH   4   2
ATOM      1  C   UNL     1       2.143  -1.238   0.000  0.00  0.00    +0.019 C 
ATOM      2  C   UNL     1       2.143  -2.062   0.000  0.00  0.00    +0.073 C 
ATOM      3  C   UNL     1       2.858  -2.475   0.000  0.00  0.00    +0.019 C 
ENDBRANCH   4   2
ENDBRANCH   5   4
ENDBRANCH   9   8
BRANCH   9  10
ATOM     10  N   UNL     1       0.867  -5.991   0.000  0.00  0.00    -0.075 NA
BRANCH  10  11
ATOM     11  S   UNL     1       0.382  -6.658   0.000  0.00  0.00    +0.077 S 
ATOM     12  O   UNL     1      -0.285  -6.173   0.000  0.00  0.00    -0.152 OA
ATOM     13  O   UNL     1       1.050  -7.143   0.000  0.00  0.00    -0.152 OA
BRANCH  11  14
ATOM     14  C   UNL     1      -0.103  -7.325   0.000  0.00  0.00    +0.124 A 
ATOM     15  C   UNL     1       0.233  -8.079   0.000  0.00  0.00    +0.020 A 
ATOM     16  C   UNL     1      -0.252  -8.747   0.000  0.00  0.00    +0.001 A 
ATOM     17  C   UNL     1      -1.073  -8.660   0.000  0.00  0.00    +0.000 A 
ATOM     18  C   UNL     1      -1.408  -7.907   0.000  0.00  0.00    +0.001 A 
ATOM     19  C   UNL     1      -0.923  -7.239   0.000  0.00  0.00    +0.020 A 
ENDBRANCH  11  14
ENDBRANCH  10  11
ENDBRANCH   9  10
TORSDOF 6
