MODEL 1
REMARK VINA RESULT:     -15.6      0.000      0.000
REMARK  Name = 
REMARK  4 active torsions:
REMARK  status: ('A' for Active; 'I' for Inactive)
REMARK    1  A    between atoms: C_5  and  N_8
REMARK    2  A    between atoms: C_15  and  N_16
REMARK    3  A    between atoms: N_16  and  S_17
REMARK    4  A    between atoms: S_17  and  C_20
REMARK                            x       y       z     vdW  Elec       q    Type
REMARK                         _______ _______ _______ _____ _____    ______ ____
ROOT
ATOM      8  N   UNL     1      -4.253   3.628  25.372  0.00  0.00    -0.273 NA
ATOM      9  C   UNL     1      -5.050   3.838  25.506  0.00  0.00    +0.074 C 
ATOM     10  C   UNL     1      -5.477   2.955  25.389  0.00  0.00    +0.039 C 
ATOM     11  C   UNL     1      -5.972   2.312  25.325  0.00  0.00    +0.011 C 
ATOM     12  C   UNL     1      -5.286   2.445  25.269  0.00  0.00    +0.056 C 
ATOM     13  C   UNL     1      -4.888   3.305  25.386  0.00  0.00    +0.078 C 
ATOM     14  C   UNL     1      -4.483   2.033  25.095  0.00  0.00    +0.057 A 
ATOM     15  C   UNL     1      -4.170   1.291  24.916  0.00  0.00    +0.103 A 
ATOM     27  C   UNL     1      -3.357   1.203  24.803  0.00  0.00    +0.024 A 
ATOM     28  C   UNL     1      -2.858   1.857  24.869  0.00  0.00    +0.062 A 
ATOM     29  C   UNL     1      -3.172   2.599  25.047  0.00  0.00    +0.261 A 
ATOM     30  O   UNL     1      -2.386   2.846  25.001  0.00  0.00    -0.267 OA
ATOM     31  N   UNL     1      -3.984   2.686  25.160  0.00  0.00    -0.298 N 
ATOM     32  C   UNL     1      -4.634   2.533  25.208  0.00  0.00    +0.110 C 
ENDROOT
BRANCH   8   5
ATOM      1  C   UNL     1      -0.987   3.983  25.052  0.00  0.00    +0.090 C 
ATOM      2  N   UNL     1      -1.803   3.894  25.133  0.00  0.00    -0.271 NA
ATOM      3  C   UNL     1      -2.131   3.735  25.872  0.00  0.00    +0.074 C 
ATOM      4  C   UNL     1      -2.947   3.646  25.953  0.00  0.00    +0.033 C 
ATOM      5  C   UNL     1      -3.436   3.716  25.292  0.00  0.00    +0.060 C 
ATOM      6  C   UNL     1      -3.109   3.875  24.552  0.00  0.00    +0.033 C 
ATOM      7  C   UNL     1      -2.293   3.964  24.472  0.00  0.00    +0.074 C 
ENDBRANCH   8   5
BRANCH  15  16
ATOM     16  N   UNL     1      -4.669   0.637  24.851  0.00  0.00    -0.095 NA
BRANCH  16  17
ATOM     17  S   UNL     1      -4.349  -0.122  24.798  0.00  0.00    +0.093 S 
ATOM     18  O   UNL     1      -4.368  -0.187  25.620  0.00  0.00    -0.148 OA
ATOM     19  O   UNL     1      -4.330  -0.056  23.976  0.00  0.00    -0.148 OA
BRANCH  17  20
ATOM     20  C   UNL     1      -4.030  -0.880  24.745  0.00  0.00    +0.127 A 
ATOM     21  C   UNL     1      -4.117  -1.318  24.050  0.00  0.00    +0.020 A 
ATOM     22  C   UNL     1      -3.798  -2.076  23.997  0.00  0.00    -0.003 A 
ATOM     23  C   UNL     1      -3.392  -2.399  24.639  0.00  0.00    -0.022 A 
ATOM     24  C   UNL     1      -3.073  -3.157  24.586  0.00  0.00    +0.031 C 
ATOM     25  C   UNL     1      -3.305  -1.962  25.334  0.00  0.00    -0.003 A 
ATOM     26  C   UNL     1      -3.624  -1.203  25.387  0.00  0.00    +0.020 A 
ENDBRANCH  17  20
ENDBRANCH  16  17
ENDBRANCH  15  16
TORSDOF 4
ENDMDL
MODEL 2
REMARK VINA RESULT:     -13.4      1.145      2.329
REMARK  Name = 
REMARK  4 active torsions:
REMARK  status: ('A' for Active; 'I' for Inactive)
REMARK    1  A    between atoms: C_5  and  N_8
REMARK    2  A    between atoms: C_15  and  N_16
REMARK    3  A    between atoms: N_16  and  S_17
REMARK    4  A    between atoms: S_17  and  C_20
REMARK                            x       y       z     vdW  Elec       q    Type
REMARK                         _______ _______ _______ _____ _____    ______ ____
ROOT
ATOM      8  N   UNL     1      -2.244   3.487  25.172  0.00  0.00    -0.273 NA
ATOM      9  C   UNL     1      -1.425   3.649  25.153  0.00  0.00    +0.074 C 
ATOM     10  C   UNL     1      -1.078   2.734  25.017  0.00  0.00    +0.039 C 
ATOM     11  C   UNL     1      -0.640   2.057  24.907  0.00  0.00    +0.011 C 
ATOM     12  C   UNL     1      -1.317   2.233  24.963  0.00  0.00    +0.056 C 
ATOM     13  C   UNL     1      -1.637   3.123  25.095  0.00  0.00    +0.078 C 
ATOM     14  C   UNL     1      -2.160   1.868  24.956  0.00  0.00    +0.057 A 
ATOM     15  C   UNL     1      -2.542   1.141  24.880  0.00  0.00    +0.103 A 
ATOM     27  C   UNL     1      -3.366   1.103  24.915  0.00  0.00    +0.024 A 
ATOM     28  C   UNL     1      -3.806   1.792  25.026  0.00  0.00    +0.062 A 
ATOM     29  C   UNL     1      -3.424   2.519  25.102  0.00  0.00    +0.261 A 
ATOM     30  O   UNL     1      -4.189   2.816  25.178  0.00  0.00    -0.267 OA
ATOM     31  N   UNL     1      -2.601   2.557  25.067  0.00  0.00    -0.298 N 
ATOM     32  C   UNL     1      -1.963   2.362  25.011  0.00  0.00    +0.110 C 
ENDROOT
BRANCH   8   5
ATOM      1  C   UNL     1      -5.489   4.046  25.402  0.00  0.00    +0.090 C 
ATOM      2  N   UNL     1      -4.678   3.906  25.345  0.00  0.00    -0.271 NA
ATOM      3  C   UNL     1      -4.235   3.759  26.025  0.00  0.00    +0.074 C 
ATOM      4  C   UNL     1      -3.424   3.619  25.968  0.00  0.00    +0.033 C 
ATOM      5  C   UNL     1      -3.056   3.627  25.229  0.00  0.00    +0.060 C 
ATOM      6  C   UNL     1      -3.498   3.774  24.549  0.00  0.00    +0.033 C 
ATOM      7  C   UNL     1      -4.309   3.914  24.607  0.00  0.00    +0.074 C 
ENDBRANCH   8   5
BRANCH  15  16
ATOM     16  N   UNL     1      -2.102   0.453  24.769  0.00  0.00    -0.095 NA
BRANCH  16  17
ATOM     17  S   UNL     1      -2.485  -0.271  24.672  0.00  0.00    +0.093 S 
ATOM     18  O   UNL     1      -2.449  -0.399  25.486  0.00  0.00    -0.148 OA
ATOM     19  O   UNL     1      -2.520  -0.144  23.858  0.00  0.00    -0.148 OA
BRANCH  17  20
ATOM     20  C   UNL     1      -2.868  -0.995  24.575  0.00  0.00    +0.127 A 
ATOM     21  C   UNL     1      -3.488  -1.065  24.034  0.00  0.00    +0.020 A 
ATOM     22  C   UNL     1      -3.871  -1.789  23.937  0.00  0.00    -0.003 A 
ATOM     23  C   UNL     1      -3.635  -2.443  24.382  0.00  0.00    -0.022 A 
ATOM     24  C   UNL     1      -4.019  -3.167  24.285  0.00  0.00    +0.031 C 
ATOM     25  C   UNL     1      -3.017  -2.374  24.923  0.00  0.00    -0.003 A 
ATOM     26  C   UNL     1      -2.633  -1.649  25.020  0.00  0.00    +0.020 A 
ENDBRANCH  17  20
ENDBRANCH  16  17
ENDBRANCH  15  16
TORSDOF 4
ENDMDL
