REMARK  Name = 
REMARK  6 active torsions:
REMARK  status: ('A' for Active; 'I' for Inactive)
REMARK    1  A    between atoms: O_2  and  C_3
REMARK    2  A    between atoms: C_4  and  C_9
REMARK    3  A    between atoms: C_13  and  C_15
REMARK    4  A    between atoms: C_22  and  C_23
REMARK    5  A    between atoms: C_23  and  N_24
REMARK    6  A    between atoms: N_24  and  S_25
REMARK                            x       y       z     vdW  Elec       q    Type
REMARK                         _______ _______ _______ _____ _____    ______ ____
ROOT
ATOM      9  C   UNL     1       3.043   0.285   0.000  0.00  0.00    +0.105 A 
ATOM     10  N   UNL     1       3.557  -0.360   0.000  0.00  0.00    -0.169 NA
ATOM     11  N   UNL     1       3.102  -1.048   0.000  0.00  0.00    -0.253 N 
ATOM     12  C   UNL     1       3.391  -1.821   0.000  0.00  0.00    +0.153 C 
ATOM     13  C   UNL     1       2.307  -0.828   0.000  0.00  0.00    +0.058 A 
ATOM     14  C   UNL     1       2.270  -0.004   0.000  0.00  0.00    +0.035 A 
ENDROOT
BRANCH  13  15
ATOM     15  C   UNL     1       1.661  -1.343   0.000  0.00  0.00    +0.056 C 
ATOM     16  C   UNL     1       1.814  -2.106   0.000  0.00  0.00    +0.078 C 
ATOM     17  N   UNL     1       1.065  -1.759   0.000  0.00  0.00    -0.272 NA
ATOM     18  C   UNL     1       1.205  -0.720   0.000  0.00  0.00    +0.072 C 
ATOM     19  C   UNL     1       0.961  -0.114   0.000  0.00  0.00    +0.018 C 
ATOM     20  C   UNL     1       0.923  -1.010   0.000  0.00  0.00    +0.010 C 
ATOM     21  C   UNL     1       0.119  -1.362   0.000  0.00  0.00    +0.018 C 
ATOM     22  C   UNL     1       0.226  -2.118   0.000  0.00  0.00    +0.077 C 
BRANCH  22  23
ATOM     23  C   UNL     1      -0.179  -2.836   0.000  0.00  0.00    +0.131 C 
BRANCH  23  24
ATOM     24  N   UNL     1      -1.004  -2.845   0.000  0.00  0.00    -0.081 NA
BRANCH  24  25
ATOM     25  S   UNL     1      -1.408  -3.564   0.000  0.00  0.00    +0.059 S 
ATOM     26  C   UNL     1      -1.813  -4.283   0.000  0.00  0.00    +0.197 C 
ATOM     27  O   UNL     1      -2.127  -3.159   0.000  0.00  0.00    -0.156 OA
ATOM     28  O   UNL     1      -0.690  -3.969   0.000  0.00  0.00    -0.156 OA
ENDBRANCH  24  25
ENDBRANCH  23  24
ENDBRANCH  22  23
ENDBRANCH  13  15
BRANCH   9   4
ATOM      3  C   UNL     1       4.061   1.288   0.000  0.00  0.00    +0.140 A 
ATOM      4  C   UNL     1       3.263   1.080   0.000  0.00  0.00    +0.053 A 
ATOM      5  C   UNL     1       2.684   1.668   0.000  0.00  0.00    +0.005 A 
ATOM      6  C   UNL     1       2.904   2.464   0.000  0.00  0.00    +0.000 A 
ATOM      7  C   UNL     1       3.702   2.671   0.000  0.00  0.00    +0.003 A 
ATOM      8  C   UNL     1       4.281   2.083   0.000  0.00  0.00    +0.037 A 
BRANCH   3   2
ATOM      1  C   UNL     1       5.438   0.907   0.000  0.00  0.00    +0.252 C 
ATOM      2  O   UNL     1       4.640   0.700   0.000  0.00  0.00    -0.471 OA
ENDBRANCH   3   2
ENDBRANCH   9   4
TORSDOF 6
