MODEL 1
REMARK VINA RESULT:     -12.4      0.000      0.000
REMARK  Name = 
REMARK  5 active torsions:
REMARK  status: ('A' for Active; 'I' for Inactive)
REMARK    1  A    between atoms: N_2  and  C_4
REMARK    2  A    between atoms: C_6  and  C_10
REMARK    3  A    between atoms: C_13  and  C_15
REMARK    4  A    between atoms: N_20  and  C_21
REMARK    5  A    between atoms: C_21  and  C_22
REMARK                            x       y       z     vdW  Elec       q    Type
REMARK                         _______ _______ _______ _____ _____    ______ ____
ROOT
ATOM     15  C   UNL     1      -3.962   1.849  24.646  0.00  0.00    +0.144 C 
ATOM     16  C   UNL     1      -4.748   2.040  24.808  0.00  0.00    +0.073 C 
ATOM     17  C   UNL     1      -4.932   2.756  25.173  0.00  0.00    +0.077 A 
ATOM     18  C   UNL     1      -4.330   3.282  25.377  0.00  0.00    +0.090 A 
ATOM     19  C   UNL     1      -3.543   3.091  25.215  0.00  0.00    +0.120 C 
ATOM     20  N   UNL     1      -3.360   2.375  24.850  0.00  0.00    -0.261 NA
ATOM     28  N   UNL     1      -4.676   3.943  25.728  0.00  0.00    -0.226 NA
ATOM     29  C   UNL     1      -5.492   3.825  25.743  0.00  0.00    +0.198 A 
ATOM     30  N   UNL     1      -5.650   3.092  25.399  0.00  0.00    -0.227 NA
ENDROOT
BRANCH  15  13
ATOM     10  C   UNL     1      -3.545  -0.166  24.079  0.00  0.00    +0.203 A 
ATOM     11  N   UNL     1      -3.445   0.225  23.361  0.00  0.00    -0.056 NA
ATOM     12  O   UNL     1      -3.589   1.029  23.485  0.00  0.00    -0.336 OA
ATOM     13  C   UNL     1      -3.778   1.133  24.282  0.00  0.00    +0.251 A 
ATOM     14  N   UNL     1      -3.751   0.395  24.648  0.00  0.00    -0.190 NA
BRANCH  10   6
ATOM      4  C   UNL     1      -2.617  -2.102  24.473  0.00  0.00    +0.143 A 
ATOM      5  C   UNL     1      -2.706  -1.292  24.345  0.00  0.00    +0.027 A 
ATOM      6  C   UNL     1      -3.455  -0.976  24.207  0.00  0.00    +0.041 A 
ATOM      7  C   UNL     1      -4.116  -1.471  24.197  0.00  0.00    +0.003 A 
ATOM      8  C   UNL     1      -4.027  -2.281  24.325  0.00  0.00    +0.002 A 
ATOM      9  C   UNL     1      -3.277  -2.596  24.463  0.00  0.00    +0.024 A 
BRANCH   4   2
ATOM      1  O   UNL     1      -1.527  -2.929  24.060  0.00  0.00    -0.126 OA
ATOM      2  N   UNL     1      -1.868  -2.418  24.611  0.00  0.00    +0.058 N 
ATOM      3  O   UNL     1      -1.458  -2.223  25.301  0.00  0.00    -0.126 OA
ENDBRANCH   4   2
ENDBRANCH  10   6
ENDBRANCH  15  13
BRANCH  20  21
ATOM     21  C   UNL     1      -2.574   2.184  24.689  0.00  0.00    +0.073 C 
BRANCH  21  22
ATOM     22  C   UNL     1      -1.967   2.682  24.944  0.00  0.00    +0.016 C 
ATOM     23  C   UNL     1      -1.614   2.557  25.678  0.00  0.00    +0.001 C 
ATOM     24  C   UNL     1      -1.007   3.055  25.934  0.00  0.00    +0.000 C 
ATOM     25  C   UNL     1      -0.755   3.677  25.456  0.00  0.00    +0.000 C 
ATOM     26  C   UNL     1      -1.110   3.802  24.721  0.00  0.00    +0.000 C 
ATOM     27  C   UNL     1      -1.716   3.305  24.465  0.00  0.00    +0.001 C 
ENDBRANCH  21  22
ENDBRANCH  20  21
TORSDOF 5
ENDMDL
MODEL 2
REMARK VINA RESULT:     -12.4      1.818      5.217
REMARK  Name = 
REMARK  5 active torsions:
REMARK  status: ('A' for Active; 'I' for Inactive)
REMARK    1  A    between atoms: N_2  and  C_4
REMARK    2  A    between atoms: C_6  and  C_10
REMARK    3  A    between atoms: C_13  and  C_15
REMARK    4  A    between atoms: N_20  and  C_21
REMARK    5  A    between atoms: C_21  and  C_22
REMARK                            x       y       z     vdW  Elec       q    Type
REMARK                         _______ _______ _______ _____ _____    ______ ____
ROOT
ATOM     15  C   UNL     1      -1.907   0.672  24.166  0.00  0.00    +0.144 C 
ATOM     16  C   UNL     1      -1.128   0.827  23.945  0.00  0.00    +0.073 C 
ATOM     17  C   UNL     1      -0.572   0.218  23.940  0.00  0.00    +0.077 A 
ATOM     18  C   UNL     1      -0.795  -0.546  24.155  0.00  0.00    +0.090 A 
ATOM     19  C   UNL     1      -1.575  -0.702  24.376  0.00  0.00    +0.120 C 
ATOM     20  N   UNL     1      -2.131  -0.092  24.381  0.00  0.00    -0.261 NA
ATOM     28  N   UNL     1      -0.131  -1.032  24.098  0.00  0.00    -0.226 NA
ATOM     29  C   UNL     1       0.503  -0.568  23.847  0.00  0.00    +0.198 A 
ATOM     30  N   UNL     1       0.230   0.204  23.749  0.00  0.00    -0.227 NA
ENDROOT
BRANCH  15  13
ATOM     10  C   UNL     1      -3.229   2.299  24.573  0.00  0.00    +0.203 A 
ATOM     11  N   UNL     1      -3.411   2.139  23.786  0.00  0.00    -0.056 NA
ATOM     12  O   UNL     1      -2.939   1.510  23.536  0.00  0.00    -0.336 OA
ATOM     13  C   UNL     1      -2.463   1.281  24.171  0.00  0.00    +0.251 A 
ATOM     14  N   UNL     1      -2.643   1.768  24.811  0.00  0.00    -0.190 NA
BRANCH  10   6
ATOM      4  C   UNL     1      -4.715   3.436  25.697  0.00  0.00    +0.143 A 
ATOM      5  C   UNL     1      -4.373   2.849  25.228  0.00  0.00    +0.027 A 
ATOM      6  C   UNL     1      -3.571   2.885  25.042  0.00  0.00    +0.041 A 
ATOM      7  C   UNL     1      -3.109   3.509  25.324  0.00  0.00    +0.003 A 
ATOM      8  C   UNL     1      -3.451   4.096  25.792  0.00  0.00    +0.002 A 
ATOM      9  C   UNL     1      -4.254   4.059  25.979  0.00  0.00    +0.024 A 
BRANCH   4   2
ATOM      1  O   UNL     1      -6.022   4.011  25.655  0.00  0.00    -0.126 OA
ATOM      2  N   UNL     1      -5.517   3.399  25.884  0.00  0.00    +0.058 N 
ATOM      3  O   UNL     1      -5.816   2.751  26.298  0.00  0.00    -0.126 OA
ENDBRANCH   4   2
ENDBRANCH  10   6
ENDBRANCH  15  13
BRANCH  20  21
ATOM     21  C   UNL     1      -2.910  -0.248  24.602  0.00  0.00    +0.073 C 
BRANCH  21  22
ATOM     22  C   UNL     1      -3.165  -1.027  24.695  0.00  0.00    +0.016 C 
ATOM     23  C   UNL     1      -3.110  -1.393  25.432  0.00  0.00    +0.001 C 
ATOM     24  C   UNL     1      -3.365  -2.172  25.526  0.00  0.00    +0.000 C 
ATOM     25  C   UNL     1      -3.675  -2.585  24.883  0.00  0.00    +0.000 C 
ATOM     26  C   UNL     1      -3.730  -2.218  24.145  0.00  0.00    +0.000 C 
ATOM     27  C   UNL     1      -3.475  -1.439  24.051  0.00  0.00    +0.001 C 
ENDBRANCH  21  22
ENDBRANCH  20  21
TORSDOF 5
ENDMDL
MODEL 3
REMARK VINA RESULT:     -11.6      1.812      4.212
REMARK  Name = 
REMARK  5 active torsions:
REMARK  status: ('A' for Active; 'I' for Inactive)
REMARK    1  A    between atoms: N_2  and  C_4
REMARK    2  A    between atoms: C_6  and  C_10
REMARK    3  A    between atoms: C_13  and  C_15
REMARK    4  A    between atoms: N_20  and  C_21
REMARK    5  A    between atoms: C_21  and  C_22
REMARK                            x       y       z     vdW  Elec       q    Type
REMARK                         _______ _______ _______ _____ _____    ______ ____
ROOT
ATOM     15  C   UNL     1      -4.106   1.988  24.645  0.00  0.00    +0.144 C 
ATOM     16  C   UNL     1      -4.721   2.497  24.852  0.00  0.00    +0.073 C 
ATOM     17  C   UNL     1      -5.457   2.190  25.067  0.00  0.00    +0.077 A 
ATOM     18  C   UNL     1      -5.577   1.374  25.075  0.00  0.00    +0.090 A 
ATOM     19  C   UNL     1      -4.961   0.864  24.868  0.00  0.00    +0.120 C 
ATOM     20  N   UNL     1      -4.227   1.172  24.653  0.00  0.00    -0.261 NA
ATOM     28  N   UNL     1      -6.354   1.233  25.309  0.00  0.00    -0.226 NA
ATOM     29  C   UNL     1      -6.715   1.962  25.446  0.00  0.00    +0.198 A 
ATOM     30  N   UNL     1      -6.160   2.553  25.297  0.00  0.00    -0.227 NA
ENDROOT
BRANCH  15  13
ATOM     10  C   UNL     1      -2.153   2.836  24.496  0.00  0.00    +0.203 A 
ATOM     11  N   UNL     1      -2.327   2.696  23.702  0.00  0.00    -0.056 NA
ATOM     12  O   UNL     1      -3.081   2.361  23.661  0.00  0.00    -0.336 OA
ATOM     13  C   UNL     1      -3.372   2.294  24.430  0.00  0.00    +0.251 A 
ATOM     14  N   UNL     1      -2.799   2.588  24.945  0.00  0.00    -0.190 NA
BRANCH  10   6
ATOM      4  C   UNL     1      -0.182   3.014  25.415  0.00  0.00    +0.143 A 
ATOM      5  C   UNL     1      -0.878   2.682  25.122  0.00  0.00    +0.027 A 
ATOM      6  C   UNL     1      -1.457   3.167  24.789  0.00  0.00    +0.041 A 
ATOM      7  C   UNL     1      -1.339   3.983  24.750  0.00  0.00    +0.003 A 
ATOM      8  C   UNL     1      -0.643   4.314  25.043  0.00  0.00    +0.002 A 
ATOM      9  C   UNL     1      -0.064   3.829  25.376  0.00  0.00    +0.024 A 
BRANCH   4   2
ATOM      1  O   UNL     1       0.572   2.589  26.552  0.00  0.00    -0.126 OA
ATOM      2  N   UNL     1       0.397   2.529  25.748  0.00  0.00    +0.058 N 
ATOM      3  O   UNL     1       0.800   1.984  25.277  0.00  0.00    -0.126 OA
ENDBRANCH   4   2
ENDBRANCH  10   6
ENDBRANCH  15  13
BRANCH  20  21
ATOM     21  C   UNL     1      -3.612   0.662  24.446  0.00  0.00    +0.073 C 
BRANCH  21  22
ATOM     22  C   UNL     1      -3.703  -0.153  24.536  0.00  0.00    +0.016 C 
ATOM     23  C   UNL     1      -3.996  -0.607  23.913  0.00  0.00    +0.001 C 
ATOM     24  C   UNL     1      -4.087  -1.422  24.004  0.00  0.00    +0.000 C 
ATOM     25  C   UNL     1      -3.885  -1.783  24.717  0.00  0.00    +0.000 C 
ATOM     26  C   UNL     1      -3.592  -1.328  25.341  0.00  0.00    +0.000 C 
ATOM     27  C   UNL     1      -3.501  -0.513  25.251  0.00  0.00    +0.001 C 
ENDBRANCH  21  22
ENDBRANCH  20  21
TORSDOF 5
ENDMDL
MODEL 4
REMARK VINA RESULT:     -11.2      1.740      4.701
REMARK  Name = 
REMARK  5 active torsions:
REMARK  status: ('A' for Active; 'I' for Inactive)
REMARK    1  A    between atoms: N_2  and  C_4
REMARK    2  A    between atoms: C_6  and  C_10
REMARK    3  A    between atoms: C_13  and  C_15
REMARK    4  A    between atoms: N_20  and  C_21
REMARK    5  A    between atoms: C_21  and  C_22
REMARK                            x       y       z     vdW  Elec       q    Type
REMARK                         _______ _______ _______ _____ _____    ______ ____
ROOT
ATOM     15  C   UNL     1      -3.592  -0.372  24.137  0.00  0.00    +0.144 C 
ATOM     16  C   UNL     1      -4.223  -0.839  23.885  0.00  0.00    +0.073 C 
ATOM     17  C   UNL     1      -4.179  -1.660  23.944  0.00  0.00    +0.077 A 
ATOM     18  C   UNL     1      -3.503  -2.015  24.256  0.00  0.00    +0.090 A 
ATOM     19  C   UNL     1      -2.870  -1.548  24.509  0.00  0.00    +0.120 C 
ATOM     20  N   UNL     1      -2.916  -0.726  24.449  0.00  0.00    -0.261 NA
ATOM     28  N   UNL     1      -3.616  -2.832  24.247  0.00  0.00    -0.226 NA
ATOM     29  C   UNL     1      -4.362  -2.982  23.930  0.00  0.00    +0.198 A 
ATOM     30  N   UNL     1      -4.709  -2.258  23.743  0.00  0.00    -0.227 NA
ENDROOT
BRANCH  15  13
ATOM     10  C   UNL     1      -3.855   1.734  24.369  0.00  0.00    +0.203 A 
ATOM     11  N   UNL     1      -3.555   1.694  23.602  0.00  0.00    -0.056 NA
ATOM     12  O   UNL     1      -3.420   0.900  23.421  0.00  0.00    -0.336 OA
ATOM     13  C   UNL     1      -3.636   0.449  24.077  0.00  0.00    +0.251 A 
ATOM     14  N   UNL     1      -3.905   0.964  24.662  0.00  0.00    -0.190 NA
BRANCH  10   6
ATOM      4  C   UNL     1      -3.699   3.596  25.497  0.00  0.00    +0.143 A 
ATOM      5  C   UNL     1      -3.485   2.908  25.093  0.00  0.00    +0.027 A 
ATOM      6  C   UNL     1      -4.068   2.421  24.772  0.00  0.00    +0.041 A 
ATOM      7  C   UNL     1      -4.865   2.621  24.854  0.00  0.00    +0.003 A 
ATOM      8  C   UNL     1      -5.077   3.309  25.257  0.00  0.00    +0.002 A 
ATOM      9  C   UNL     1      -4.494   3.796  25.578  0.00  0.00    +0.024 A 
BRANCH   4   2
ATOM      1  O   UNL     1      -3.048   4.160  26.637  0.00  0.00    -0.126 OA
ATOM      2  N   UNL     1      -3.116   4.083  25.818  0.00  0.00    +0.058 N 
ATOM      3  O   UNL     1      -2.600   4.494  25.321  0.00  0.00    -0.126 OA
ENDBRANCH   4   2
ENDBRANCH  10   6
ENDBRANCH  15  13
BRANCH  20  21
ATOM     21  C   UNL     1      -2.284  -0.260  24.701  0.00  0.00    +0.073 C 
BRANCH  21  22
ATOM     22  C   UNL     1      -1.574  -0.614  24.929  0.00  0.00    +0.016 C 
ATOM     23  C   UNL     1      -1.448  -0.814  25.719  0.00  0.00    +0.001 C 
ATOM     24  C   UNL     1      -0.738  -1.168  25.946  0.00  0.00    +0.000 C 
ATOM     25  C   UNL     1      -0.155  -1.322  25.384  0.00  0.00    +0.000 C 
ATOM     26  C   UNL     1      -0.282  -1.122  24.593  0.00  0.00    +0.000 C 
ATOM     27  C   UNL     1      -0.991  -0.768  24.365  0.00  0.00    +0.001 C 
ENDBRANCH  21  22
ENDBRANCH  20  21
TORSDOF 5
ENDMDL
MODEL 5
REMARK VINA RESULT:     -11.0      1.664      4.343
REMARK  Name = 
REMARK  5 active torsions:
REMARK  status: ('A' for Active; 'I' for Inactive)
REMARK    1  A    between atoms: N_2  and  C_4
REMARK    2  A    between atoms: C_6  and  C_10
REMARK    3  A    between atoms: C_13  and  C_15
REMARK    4  A    between atoms: N_20  and  C_21
REMARK    5  A    between atoms: C_21  and  C_22
REMARK                            x       y       z     vdW  Elec       q    Type
REMARK                         _______ _______ _______ _____ _____    ______ ____
ROOT
ATOM     15  C   UNL     1      -2.358   0.123  24.545  0.00  0.00    +0.144 C 
ATOM     16  C   UNL     1      -2.435  -0.697  24.588  0.00  0.00    +0.073 C 
ATOM     17  C   UNL     1      -1.776  -1.166  24.753  0.00  0.00    +0.077 A 
ATOM     18  C   UNL     1      -1.040  -0.814  24.875  0.00  0.00    +0.090 A 
ATOM     19  C   UNL     1      -0.963   0.007  24.833  0.00  0.00    +0.120 C 
ATOM     20  N   UNL     1      -1.622   0.475  24.668  0.00  0.00    -0.261 NA
ATOM     28  N   UNL     1      -0.493  -1.412  25.027  0.00  0.00    -0.226 NA
ATOM     29  C   UNL     1      -0.891  -2.134  24.998  0.00  0.00    +0.198 A 
ATOM     30  N   UNL     1      -1.683  -1.981  24.829  0.00  0.00    -0.227 NA
ENDROOT
BRANCH  15  13
ATOM     10  C   UNL     1      -4.112   1.339  24.530  0.00  0.00    +0.203 A 
ATOM     11  N   UNL     1      -3.949   1.285  23.724  0.00  0.00    -0.056 NA
ATOM     12  O   UNL     1      -3.271   0.822  23.631  0.00  0.00    -0.336 OA
ATOM     13  C   UNL     1      -3.016   0.591  24.381  0.00  0.00    +0.251 A 
ATOM     14  N   UNL     1      -3.536   0.910  24.936  0.00  0.00    -0.190 NA
BRANCH  10   6
ATOM      4  C   UNL     1      -5.279   2.950  25.427  0.00  0.00    +0.143 A 
ATOM      5  C   UNL     1      -4.650   2.540  25.086  0.00  0.00    +0.027 A 
ATOM      6  C   UNL     1      -4.741   1.749  24.872  0.00  0.00    +0.041 A 
ATOM      7  C   UNL     1      -5.462   1.367  24.999  0.00  0.00    +0.003 A 
ATOM      8  C   UNL     1      -6.091   1.778  25.341  0.00  0.00    +0.002 A 
ATOM      9  C   UNL     1      -5.999   2.569  25.555  0.00  0.00    +0.024 A 
BRANCH   4   2
ATOM      1  O   UNL     1      -5.853   4.219  25.749  0.00  0.00    -0.126 OA
ATOM      2  N   UNL     1      -5.188   3.742  25.642  0.00  0.00    +0.058 N 
ATOM      3  O   UNL     1      -4.432   4.056  25.749  0.00  0.00    -0.126 OA
ENDBRANCH   4   2
ENDBRANCH  10   6
ENDBRANCH  15  13
BRANCH  20  21
ATOM     21  C   UNL     1      -1.544   1.295  24.626  0.00  0.00    +0.073 C 
BRANCH  21  22
ATOM     22  C   UNL     1      -0.883   1.664  24.952  0.00  0.00    +0.016 C 
ATOM     23  C   UNL     1      -0.881   1.878  25.749  0.00  0.00    +0.001 C 
ATOM     24  C   UNL     1      -0.220   2.247  26.075  0.00  0.00    +0.000 C 
ATOM     25  C   UNL     1       0.440   2.404  25.605  0.00  0.00    +0.000 C 
ATOM     26  C   UNL     1       0.438   2.190  24.807  0.00  0.00    +0.000 C 
ATOM     27  C   UNL     1      -0.224   1.820  24.481  0.00  0.00    +0.001 C 
ENDBRANCH  21  22
ENDBRANCH  20  21
TORSDOF 5
ENDMDL
MODEL 6
REMARK VINA RESULT:     -11.0      2.669      5.681
REMARK  Name = 
REMARK  5 active torsions:
REMARK  status: ('A' for Active; 'I' for Inactive)
REMARK    1  A    between atoms: N_2  and  C_4
REMARK    2  A    between atoms: C_6  and  C_10
REMARK    3  A    between atoms: C_13  and  C_15
REMARK    4  A    between atoms: N_20  and  C_21
REMARK    5  A    between atoms: C_21  and  C_22
REMARK                            x       y       z     vdW  Elec       q    Type
REMARK                         _______ _______ _______ _____ _____    ______ ____
ROOT
ATOM     15  C   UNL     1      -0.056   1.175  24.481  0.00  0.00    +0.144 C 
ATOM     16  C   UNL     1       0.568   1.221  23.944  0.00  0.00    +0.073 C 
ATOM     17  C   UNL     1       0.764   0.567  23.482  0.00  0.00    +0.077 A 
ATOM     18  C   UNL     1       0.336  -0.135  23.557  0.00  0.00    +0.090 A 
ATOM     19  C   UNL     1      -0.289  -0.181  24.095  0.00  0.00    +0.120 C 
ATOM     20  N   UNL     1      -0.484   0.474  24.557  0.00  0.00    -0.261 NA
ATOM     28  N   UNL     1       0.653  -0.685  23.032  0.00  0.00    -0.226 NA
ATOM     29  C   UNL     1       1.278  -0.325  22.632  0.00  0.00    +0.198 A 
ATOM     30  N   UNL     1       1.346   0.449  22.910  0.00  0.00    -0.227 NA
ENDROOT
BRANCH  15  13
ATOM     10  C   UNL     1      -0.816   2.965  25.363  0.00  0.00    +0.203 A 
ATOM     11  N   UNL     1      -0.292   2.709  25.947  0.00  0.00    -0.056 NA
ATOM     12  O   UNL     1       0.057   2.007  25.688  0.00  0.00    -0.336 OA
ATOM     13  C   UNL     1      -0.252   1.829  24.943  0.00  0.00    +0.251 A 
ATOM     14  N   UNL     1      -0.791   2.421  24.743  0.00  0.00    -0.190 NA
BRANCH  10   6
ATOM      4  C   UNL     1      -2.517   4.285  25.719  0.00  0.00    +0.143 A 
ATOM      5  C   UNL     1      -2.051   3.604  25.689  0.00  0.00    +0.027 A 
ATOM      6  C   UNL     1      -1.282   3.644  25.393  0.00  0.00    +0.041 A 
ATOM      7  C   UNL     1      -0.979   4.364  25.126  0.00  0.00    +0.003 A 
ATOM      8  C   UNL     1      -1.446   5.044  25.156  0.00  0.00    +0.002 A 
ATOM      9  C   UNL     1      -2.215   5.004  25.452  0.00  0.00    +0.024 A 
BRANCH   4   2
ATOM      1  O   UNL     1      -3.917   4.097  25.504  0.00  0.00    -0.126 OA
ATOM      2  N   UNL     1      -3.286   4.244  26.015  0.00  0.00    +0.058 N 
ATOM      3  O   UNL     1      -3.424   4.352  26.822  0.00  0.00    -0.126 OA
ENDBRANCH   4   2
ENDBRANCH  10   6
ENDBRANCH  15  13
BRANCH  20  21
ATOM     21  C   UNL     1      -1.108   0.427  25.094  0.00  0.00    +0.073 C 
BRANCH  21  22
ATOM     22  C   UNL     1      -1.620  -0.220  25.077  0.00  0.00    +0.016 C 
ATOM     23  C   UNL     1      -1.460  -0.884  25.538  0.00  0.00    +0.001 C 
ATOM     24  C   UNL     1      -1.972  -1.531  25.521  0.00  0.00    +0.000 C 
ATOM     25  C   UNL     1      -2.644  -1.514  25.043  0.00  0.00    +0.000 C 
ATOM     26  C   UNL     1      -2.804  -0.848  24.582  0.00  0.00    +0.000 C 
ATOM     27  C   UNL     1      -2.292  -0.201  24.599  0.00  0.00    +0.001 C 
ENDBRANCH  21  22
ENDBRANCH  20  21
TORSDOF 5
ENDMDL
MODEL 7
REMARK VINA RESULT:     -10.9      0.876      2.477
REMARK  Name = 
REMARK  5 active torsions:
REMARK  status: ('A' for Active; 'I' for Inactive)
REMARK    1  A    between atoms: N_2  and  C_4
REMARK    2  A    between atoms: C_6  and  C_10
REMARK    3  A    between atoms: C_13  and  C_15
REMARK    4  A    between atoms: N_20  and  C_21
REMARK    5  A    between atoms: C_21  and  C_22
REMARK                            x       y       z     vdW  Elec       q    Type
REMARK                         _______ _______ _______ _____ _____    ______ ____
ROOT
ATOM     15  C   UNL     1      -2.555   2.100  24.459  0.00  0.00    +0.144 C 
ATOM     16  C   UNL     1      -1.758   2.293  24.545  0.00  0.00    +0.073 C 
ATOM     17  C   UNL     1      -1.542   3.035  24.833  0.00  0.00    +0.077 A 
ATOM     18  C   UNL     1      -2.123   3.585  25.033  0.00  0.00    +0.090 A 
ATOM     19  C   UNL     1      -2.922   3.392  24.946  0.00  0.00    +0.120 C 
ATOM     20  N   UNL     1      -3.137   2.649  24.659  0.00  0.00    -0.261 NA
ATOM     28  N   UNL     1      -1.747   4.268  25.300  0.00  0.00    -0.226 NA
ATOM     29  C   UNL     1      -0.933   4.141  25.265  0.00  0.00    +0.198 A 
ATOM     30  N   UNL     1      -0.807   3.379  24.976  0.00  0.00    -0.227 NA
ENDROOT
BRANCH  15  13
ATOM     10  C   UNL     1      -3.024   0.048  24.098  0.00  0.00    +0.203 A 
ATOM     11  N   UNL     1      -3.183   0.380  23.361  0.00  0.00    -0.056 NA
ATOM     12  O   UNL     1      -3.027   1.190  23.405  0.00  0.00    -0.336 OA
ATOM     13  C   UNL     1      -2.771   1.358  24.172  0.00  0.00    +0.251 A 
ATOM     14  N   UNL     1      -2.769   0.653  24.599  0.00  0.00    -0.190 NA
BRANCH  10   6
ATOM      4  C   UNL     1      -2.521  -2.030  24.537  0.00  0.00    +0.143 A 
ATOM      5  C   UNL     1      -2.439  -1.234  24.334  0.00  0.00    +0.027 A 
ATOM      6  C   UNL     1      -3.104  -0.748  24.301  0.00  0.00    +0.041 A 
ATOM      7  C   UNL     1      -3.851  -1.056  24.469  0.00  0.00    +0.003 A 
ATOM      8  C   UNL     1      -3.932  -1.852  24.672  0.00  0.00    +0.002 A 
ATOM      9  C   UNL     1      -3.267  -2.338  24.705  0.00  0.00    +0.024 A 
BRANCH   4   2
ATOM      1  O   UNL     1      -1.680  -3.019  23.939  0.00  0.00    -0.126 OA
ATOM      2  N   UNL     1      -1.856  -2.517  24.571  0.00  0.00    +0.058 N 
ATOM      3  O   UNL     1      -1.366  -2.502  25.235  0.00  0.00    -0.126 OA
ENDBRANCH   4   2
ENDBRANCH  10   6
ENDBRANCH  15  13
BRANCH  20  21
ATOM     21  C   UNL     1      -3.934   2.457  24.573  0.00  0.00    +0.073 C 
BRANCH  21  22
ATOM     22  C   UNL     1      -4.510   2.890  24.975  0.00  0.00    +0.016 C 
ATOM     23  C   UNL     1      -4.759   3.618  24.680  0.00  0.00    +0.001 C 
ATOM     24  C   UNL     1      -5.335   4.051  25.082  0.00  0.00    +0.000 C 
ATOM     25  C   UNL     1      -5.660   3.756  25.780  0.00  0.00    +0.000 C 
ATOM     26  C   UNL     1      -5.410   3.027  26.076  0.00  0.00    +0.000 C 
ATOM     27  C   UNL     1      -4.835   2.594  25.673  0.00  0.00    +0.001 C 
ENDBRANCH  21  22
ENDBRANCH  20  21
TORSDOF 5
ENDMDL
