MODEL 1
REMARK VINA RESULT:      -7.0      0.000      0.000
REMARK  Name = 
REMARK  6 active torsions:
REMARK  status: ('A' for Active; 'I' for Inactive)
REMARK    1  A    between atoms: N_3  and  C_4
REMARK    2  A    between atoms: C_8  and  N_12
REMARK    3  A    between atoms: C_15  and  C_19
REMARK    4  A    between atoms: N_24  and  C_25
REMARK    5  A    between atoms: C_28  and  O_29
REMARK    6  A    between atoms: O_29  and  C_30
REMARK                            x       y       z     vdW  Elec       q    Type
REMARK                         _______ _______ _______ _____ _____    ______ ____
ROOT
ATOM      4  C   UNL     1      -0.498  -0.248  23.485  0.00  0.00    +0.156 C 
ATOM      5  C   UNL     1      -0.263  -0.434  24.253  0.00  0.00    +0.166 C 
ATOM      6  O   UNL     1       0.554  -0.547  24.248  0.00  0.00    -0.350 OA
ATOM      7  C   UNL     1       0.824  -0.432  23.478  0.00  0.00    +0.166 C 
ATOM      8  C   UNL     1       1.495  -0.430  22.998  0.00  0.00    +0.154 C 
ATOM      9  C   UNL     1       1.259  -0.244  22.230  0.00  0.00    +0.166 C 
ATOM     10  O   UNL     1       0.442  -0.131  22.235  0.00  0.00    -0.350 OA
ATOM     11  C   UNL     1       0.173  -0.247  23.006  0.00  0.00    +0.166 C 
ENDROOT
BRANCH   8  12
ATOM     12  N   UNL     1       2.267  -0.587  23.244  0.00  0.00    -0.200 NA
ATOM     13  C   UNL     1       2.872  -0.052  23.072  0.00  0.00    +0.236 A 
ATOM     14  N   UNL     1       3.643  -0.209  23.318  0.00  0.00    -0.217 NA
ATOM     15  C   UNL     1       4.248   0.326  23.146  0.00  0.00    +0.063 A 
ATOM     16  C   UNL     1       4.080   1.017  22.728  0.00  0.00    +0.035 A 
ATOM     17  C   UNL     1       3.308   1.174  22.482  0.00  0.00    +0.103 A 
ATOM     18  N   UNL     1       2.704   0.639  22.655  0.00  0.00    -0.211 NA
BRANCH  15  19
ATOM     19  C   UNL     1       5.019   0.169  23.392  0.00  0.00    +0.040 C 
ATOM     20  C   UNL     1       5.587  -0.253  22.967  0.00  0.00    +0.006 C 
ATOM     21  C   UNL     1       6.277  -0.276  23.418  0.00  0.00    +0.000 C 
ATOM     22  C   UNL     1       6.136   0.132  24.121  0.00  0.00    +0.000 C 
ATOM     23  C   UNL     1       5.358   0.407  24.105  0.00  0.00    +0.006 C 
ENDBRANCH  15  19
ENDBRANCH   8  12
BRANCH   4   3
ATOM      1  O   UNL     1      -1.315   1.045  24.105  0.00  0.00    -0.249 OA
ATOM      2  C   UNL     1      -1.679   0.555  23.549  0.00  0.00    +0.344 C 
ATOM      3  N   UNL     1      -1.270  -0.091  23.239  0.00  0.00    -0.184 NA
ATOM     24  N   UNL     1      -2.450   0.712  23.303  0.00  0.00    -0.161 NA
BRANCH  24  25
ATOM     25  C   UNL     1      -2.859   1.359  23.613  0.00  0.00    +0.075 A 
ATOM     26  C   UNL     1      -2.782   2.101  23.263  0.00  0.00    +0.020 A 
ATOM     27  C   UNL     1      -3.191   2.748  23.573  0.00  0.00    +0.039 A 
ATOM     28  C   UNL     1      -3.677   2.651  24.232  0.00  0.00    +0.145 A 
ATOM     36  C   UNL     1      -3.754   1.907  24.582  0.00  0.00    +0.039 A 
ATOM     37  C   UNL     1      -3.345   1.262  24.272  0.00  0.00    +0.020 A 
BRANCH  28  29
ATOM     29  O   UNL     1      -4.086   3.297  24.543  0.00  0.00    -0.453 OA
BRANCH  29  30
ATOM     30  C   UNL     1      -3.781   3.703  25.193  0.00  0.00    +0.145 A 
ATOM     31  C   UNL     1      -3.111   4.176  25.107  0.00  0.00    +0.037 A 
ATOM     32  C   UNL     1      -2.807   4.583  25.758  0.00  0.00    +0.003 A 
ATOM     33  C   UNL     1      -3.174   4.516  26.494  0.00  0.00    +0.000 A 
ATOM     34  C   UNL     1      -3.844   4.043  26.580  0.00  0.00    +0.003 A 
ATOM     35  C   UNL     1      -4.148   3.636  25.929  0.00  0.00    +0.037 A 
ENDBRANCH  29  30
ENDBRANCH  28  29
ENDBRANCH  24  25
ENDBRANCH   4   3
TORSDOF 6
ENDMDL
MODEL 2
REMARK VINA RESULT:      -6.9      1.595      7.797
REMARK  Name = 
REMARK  6 active torsions:
REMARK  status: ('A' for Active; 'I' for Inactive)
REMARK    1  A    between atoms: N_3  and  C_4
REMARK    2  A    between atoms: C_8  and  N_12
REMARK    3  A    between atoms: C_15  and  C_19
REMARK    4  A    between atoms: N_24  and  C_25
REMARK    5  A    between atoms: C_28  and  O_29
REMARK    6  A    between atoms: O_29  and  C_30
REMARK                            x       y       z     vdW  Elec       q    Type
REMARK                         _______ _______ _______ _____ _____    ______ ____
ROOT
ATOM      4  C   UNL     1      -0.595   0.600  23.409  0.00  0.00    +0.156 C 
ATOM      5  C   UNL     1      -0.713   1.390  23.206  0.00  0.00    +0.166 C 
ATOM      6  O   UNL     1      -1.335   1.680  23.664  0.00  0.00    -0.350 OA
ATOM      7  C   UNL     1      -1.602   1.070  24.149  0.00  0.00    +0.166 C 
ATOM      8  C   UNL     1      -2.151   0.871  24.732  0.00  0.00    +0.154 C 
ATOM      9  C   UNL     1      -2.033   0.081  24.935  0.00  0.00    +0.166 C 
ATOM     10  O   UNL     1      -1.411  -0.210  24.478  0.00  0.00    -0.350 OA
ATOM     11  C   UNL     1      -1.144   0.402  23.992  0.00  0.00    +0.166 C 
ENDROOT
BRANCH   8  12
ATOM     12  N   UNL     1      -2.718   1.376  25.055  0.00  0.00    -0.200 NA
ATOM     13  C   UNL     1      -3.521   1.210  24.959  0.00  0.00    +0.236 A 
ATOM     14  N   UNL     1      -4.088   1.713  25.282  0.00  0.00    -0.217 NA
ATOM     15  C   UNL     1      -4.891   1.547  25.185  0.00  0.00    +0.063 A 
ATOM     16  C   UNL     1      -5.126   0.877  24.766  0.00  0.00    +0.035 A 
ATOM     17  C   UNL     1      -4.558   0.372  24.443  0.00  0.00    +0.103 A 
ATOM     18  N   UNL     1      -3.756   0.539  24.540  0.00  0.00    -0.211 NA
BRANCH  15  19
ATOM     19  C   UNL     1      -5.458   2.051  25.508  0.00  0.00    +0.040 C 
ATOM     20  C   UNL     1      -5.508   2.866  25.388  0.00  0.00    +0.006 C 
ATOM     21  C   UNL     1      -6.156   3.147  25.813  0.00  0.00    +0.000 C 
ATOM     22  C   UNL     1      -6.507   2.507  26.196  0.00  0.00    +0.000 C 
ATOM     23  C   UNL     1      -6.075   1.830  26.008  0.00  0.00    +0.006 C 
ENDBRANCH  15  19
ENDBRANCH   8  12
BRANCH   4   3
ATOM      1  O   UNL     1       0.985   1.069  23.347  0.00  0.00    -0.249 OA
ATOM      2  C   UNL     1       0.763   0.329  23.055  0.00  0.00    +0.344 C 
ATOM      3  N   UNL     1      -0.028   0.095  23.086  0.00  0.00    -0.184 NA
ATOM     24  N   UNL     1       1.330  -0.174  22.732  0.00  0.00    -0.161 NA
BRANCH  24  25
ATOM     25  C   UNL     1       2.121   0.060  22.701  0.00  0.00    +0.075 A 
ATOM     26  C   UNL     1       2.461   0.453  23.341  0.00  0.00    +0.020 A 
ATOM     27  C   UNL     1       3.251   0.687  23.310  0.00  0.00    +0.039 A 
ATOM     28  C   UNL     1       3.702   0.528  22.637  0.00  0.00    +0.145 A 
ATOM     36  C   UNL     1       3.362   0.135  21.996  0.00  0.00    +0.039 A 
ATOM     37  C   UNL     1       2.571  -0.099  22.028  0.00  0.00    +0.020 A 
BRANCH  28  29
ATOM     29  O   UNL     1       4.492   0.762  22.605  0.00  0.00    -0.453 OA
BRANCH  29  30
ATOM     30  C   UNL     1       5.046   0.415  23.109  0.00  0.00    +0.145 A 
ATOM     31  C   UNL     1       5.219   0.765  23.835  0.00  0.00    +0.037 A 
ATOM     32  C   UNL     1       5.772   0.418  24.340  0.00  0.00    +0.003 A 
ATOM     33  C   UNL     1       6.152  -0.280  24.117  0.00  0.00    +0.000 A 
ATOM     34  C   UNL     1       5.978  -0.630  23.391  0.00  0.00    +0.003 A 
ATOM     35  C   UNL     1       5.425  -0.283  22.886  0.00  0.00    +0.037 A 
ENDBRANCH  29  30
ENDBRANCH  28  29
ENDBRANCH  24  25
ENDBRANCH   4   3
TORSDOF 6
ENDMDL
MODEL 3
REMARK VINA RESULT:      -6.8     14.672     16.765
REMARK  Name = 
REMARK  6 active torsions:
REMARK  status: ('A' for Active; 'I' for Inactive)
REMARK    1  A    between atoms: N_3  and  C_4
REMARK    2  A    between atoms: C_8  and  N_12
REMARK    3  A    between atoms: C_15  and  C_19
REMARK    4  A    between atoms: N_24  and  C_25
REMARK    5  A    between atoms: C_28  and  O_29
REMARK    6  A    between atoms: O_29  and  C_30
REMARK                            x       y       z     vdW  Elec       q    Type
REMARK                         _______ _______ _______ _____ _____    ______ ____
ROOT
ATOM      4  C   UNL     1      12.537  -7.157  31.699  0.00  0.00    +0.156 C 
ATOM      5  C   UNL     1      12.293  -6.813  30.990  0.00  0.00    +0.166 C 
ATOM      6  O   UNL     1      12.688  -6.093  30.908  0.00  0.00    -0.350 OA
ATOM      7  C   UNL     1      13.175  -5.992  31.565  0.00  0.00    +0.166 C 
ATOM      8  C   UNL     1      13.721  -5.486  31.921  0.00  0.00    +0.154 C 
ATOM      9  C   UNL     1      13.964  -5.830  32.630  0.00  0.00    +0.166 C 
ATOM     10  O   UNL     1      13.570  -6.549  32.712  0.00  0.00    -0.350 OA
ATOM     11  C   UNL     1      13.082  -6.650  32.054  0.00  0.00    +0.166 C 
ENDROOT
BRANCH   8  12
ATOM     12  N   UNL     1      13.977  -4.762  31.620  0.00  0.00    -0.200 NA
ATOM     13  C   UNL     1      14.777  -4.560  31.655  0.00  0.00    +0.236 A 
ATOM     14  N   UNL     1      15.033  -3.836  31.355  0.00  0.00    -0.217 NA
ATOM     15  C   UNL     1      15.833  -3.635  31.390  0.00  0.00    +0.063 A 
ATOM     16  C   UNL     1      16.375  -4.157  31.726  0.00  0.00    +0.035 A 
ATOM     17  C   UNL     1      16.119  -4.882  32.027  0.00  0.00    +0.103 A 
ATOM     18  N   UNL     1      15.319  -5.083  31.991  0.00  0.00    -0.211 NA
BRANCH  15  19
ATOM     19  C   UNL     1      16.089  -2.911  31.089  0.00  0.00    +0.040 C 
ATOM     20  C   UNL     1      16.328  -2.766  30.312  0.00  0.00    +0.006 C 
ATOM     21  C   UNL     1      16.539  -1.971  30.255  0.00  0.00    +0.000 C 
ATOM     22  C   UNL     1      16.431  -1.624  30.996  0.00  0.00    +0.000 C 
ATOM     23  C   UNL     1      16.153  -2.206  31.511  0.00  0.00    +0.006 C 
ENDBRANCH  15  19
ENDBRANCH   8  12
BRANCH   4   3
ATOM      1  O   UNL     1      10.926  -7.513  31.729  0.00  0.00    -0.249 OA
ATOM      2  C   UNL     1      11.475  -8.060  32.015  0.00  0.00    +0.344 C 
ATOM      3  N   UNL     1      12.280  -7.881  32.000  0.00  0.00    -0.184 NA
ATOM     24  N   UNL     1      11.218  -8.783  32.316  0.00  0.00    -0.161 NA
BRANCH  24  25
ATOM     25  C   UNL     1      10.412  -8.962  32.331  0.00  0.00    +0.075 A 
ATOM     26  C   UNL     1       9.912  -8.570  32.857  0.00  0.00    +0.020 A 
ATOM     27  C   UNL     1       9.107  -8.749  32.872  0.00  0.00    +0.039 A 
ATOM     28  C   UNL     1       8.802  -9.320  32.361  0.00  0.00    +0.145 A 
ATOM     36  C   UNL     1       9.302  -9.712  31.834  0.00  0.00    +0.039 A 
ATOM     37  C   UNL     1      10.107  -9.533  31.820  0.00  0.00    +0.020 A 
BRANCH  28  29
ATOM     29  O   UNL     1       7.997  -9.499  32.375  0.00  0.00    -0.453 OA
BRANCH  29  30
ATOM     30  C   UNL     1       7.480  -9.115  31.860  0.00  0.00    +0.145 A 
ATOM     31  C   UNL     1       7.123  -8.406  32.086  0.00  0.00    +0.037 A 
ATOM     32  C   UNL     1       6.606  -8.022  31.571  0.00  0.00    +0.003 A 
ATOM     33  C   UNL     1       6.446  -8.346  30.829  0.00  0.00    +0.000 A 
ATOM     34  C   UNL     1       6.803  -9.054  30.603  0.00  0.00    +0.003 A 
ATOM     35  C   UNL     1       7.320  -9.439  31.118  0.00  0.00    +0.037 A 
ENDBRANCH  29  30
ENDBRANCH  28  29
ENDBRANCH  24  25
ENDBRANCH   4   3
TORSDOF 6
ENDMDL
MODEL 4
REMARK VINA RESULT:      -6.5     16.884     18.165
REMARK  Name = 
REMARK  6 active torsions:
REMARK  status: ('A' for Active; 'I' for Inactive)
REMARK    1  A    between atoms: N_3  and  C_4
REMARK    2  A    between atoms: C_8  and  N_12
REMARK    3  A    between atoms: C_15  and  C_19
REMARK    4  A    between atoms: N_24  and  C_25
REMARK    5  A    between atoms: C_28  and  O_29
REMARK    6  A    between atoms: O_29  and  C_30
REMARK                            x       y       z     vdW  Elec       q    Type
REMARK                         _______ _______ _______ _____ _____    ______ ____
ROOT
ATOM      4  C   UNL     1      -7.378  -9.768  11.033  0.00  0.00    +0.156 C 
ATOM      5  C   UNL     1      -7.196  -9.346  11.718  0.00  0.00    +0.166 C 
ATOM      6  O   UNL     1      -6.392  -9.444  11.871  0.00  0.00    -0.350 OA
ATOM      7  C   UNL     1      -6.077  -9.926  11.282  0.00  0.00    +0.166 C 
ATOM      8  C   UNL     1      -5.385 -10.285  11.011  0.00  0.00    +0.154 C 
ATOM      9  C   UNL     1      -5.567 -10.707  10.326  0.00  0.00    +0.166 C 
ATOM     10  O   UNL     1      -6.372 -10.609  10.173  0.00  0.00    -0.350 OA
ATOM     11  C   UNL     1      -6.687 -10.126  10.763  0.00  0.00    +0.166 C 
ENDROOT
BRANCH   8  12
ATOM     12  N   UNL     1      -4.641 -10.232  11.364  0.00  0.00    -0.200 NA
ATOM     13  C   UNL     1      -4.005  -9.918  10.941  0.00  0.00    +0.236 A 
ATOM     14  N   UNL     1      -3.262  -9.864  11.294  0.00  0.00    -0.217 NA
ATOM     15  C   UNL     1      -2.626  -9.550  10.872  0.00  0.00    +0.063 A 
ATOM     16  C   UNL     1      -2.735  -9.290  10.096  0.00  0.00    +0.035 A 
ATOM     17  C   UNL     1      -3.479  -9.344   9.743  0.00  0.00    +0.103 A 
ATOM     18  N   UNL     1      -4.114  -9.658  10.166  0.00  0.00    -0.211 NA
BRANCH  15  19
ATOM     19  C   UNL     1      -1.883  -9.496  11.224  0.00  0.00    +0.040 C 
ATOM     20  C   UNL     1      -1.632  -9.911  11.892  0.00  0.00    +0.006 C 
ATOM     21  C   UNL     1      -0.854  -9.689  12.052  0.00  0.00    +0.000 C 
ATOM     22  C   UNL     1      -0.624  -9.139  11.483  0.00  0.00    +0.000 C 
ATOM     23  C   UNL     1      -1.260  -9.020  10.971  0.00  0.00    +0.006 C 
ENDBRANCH  15  19
ENDBRANCH   8  12
BRANCH   4   3
ATOM      1  O   UNL     1      -8.006  -8.471  10.229  0.00  0.00    -0.249 OA
ATOM      2  C   UNL     1      -8.437  -9.173  10.278  0.00  0.00    +0.344 C 
ATOM      3  N   UNL     1      -8.123  -9.822  10.680  0.00  0.00    -0.184 NA
ATOM     24  N   UNL     1      -9.180  -9.227   9.925  0.00  0.00    -0.161 NA
BRANCH  24  25
ATOM     25  C   UNL     1      -9.494  -8.578   9.523  0.00  0.00    +0.075 A 
ATOM     26  C   UNL     1      -9.201  -8.371   8.781  0.00  0.00    +0.020 A 
ATOM     27  C   UNL     1      -9.515  -7.722   8.379  0.00  0.00    +0.039 A 
ATOM     28  C   UNL     1     -10.123  -7.281   8.720  0.00  0.00    +0.145 A 
ATOM     36  C   UNL     1     -10.417  -7.489   9.463  0.00  0.00    +0.039 A 
ATOM     37  C   UNL     1     -10.102  -8.137   9.864  0.00  0.00    +0.020 A 
BRANCH  28  29
ATOM     29  O   UNL     1     -10.438  -6.633   8.319  0.00  0.00    -0.453 OA
BRANCH  29  30
ATOM     30  C   UNL     1     -10.193  -5.869   8.514  0.00  0.00    +0.145 A 
ATOM     31  C   UNL     1     -10.705  -5.362   8.914  0.00  0.00    +0.037 A 
ATOM     32  C   UNL     1     -10.460  -4.598   9.110  0.00  0.00    +0.003 A 
ATOM     33  C   UNL     1      -9.703  -4.343   8.904  0.00  0.00    +0.000 A 
ATOM     34  C   UNL     1      -9.191  -4.850   8.503  0.00  0.00    +0.003 A 
ATOM     35  C   UNL     1      -9.436  -5.614   8.308  0.00  0.00    +0.037 A 
ENDBRANCH  29  30
ENDBRANCH  28  29
ENDBRANCH  24  25
ENDBRANCH   4   3
TORSDOF 6
ENDMDL
MODEL 5
REMARK VINA RESULT:      -6.2     16.378     17.725
REMARK  Name = 
REMARK  6 active torsions:
REMARK  status: ('A' for Active; 'I' for Inactive)
REMARK    1  A    between atoms: N_3  and  C_4
REMARK    2  A    between atoms: C_8  and  N_12
REMARK    3  A    between atoms: C_15  and  C_19
REMARK    4  A    between atoms: N_24  and  C_25
REMARK    5  A    between atoms: C_28  and  O_29
REMARK    6  A    between atoms: O_29  and  C_30
REMARK                            x       y       z     vdW  Elec       q    Type
REMARK                         _______ _______ _______ _____ _____    ______ ____
ROOT
ATOM      4  C   UNL     1      16.153  -6.831  27.197  0.00  0.00    +0.156 C 
ATOM      5  C   UNL     1      15.576  -6.967  26.624  0.00  0.00    +0.166 C 
ATOM      6  O   UNL     1      15.698  -6.432  26.008  0.00  0.00    -0.350 OA
ATOM      7  C   UNL     1      16.349  -5.966  26.200  0.00  0.00    +0.166 C 
ATOM      8  C   UNL     1      16.828  -5.346  25.939  0.00  0.00    +0.154 C 
ATOM      9  C   UNL     1      17.405  -5.210  26.512  0.00  0.00    +0.166 C 
ATOM     10  O   UNL     1      17.284  -5.745  27.128  0.00  0.00    -0.350 OA
ATOM     11  C   UNL     1      16.631  -6.212  26.935  0.00  0.00    +0.166 C 
ENDROOT
BRANCH   8  12
ATOM     12  N   UNL     1      16.743  -4.935  25.229  0.00  0.00    -0.200 NA
ATOM     13  C   UNL     1      16.934  -4.133  25.191  0.00  0.00    +0.236 A 
ATOM     14  N   UNL     1      16.850  -3.722  24.481  0.00  0.00    -0.217 NA
ATOM     15  C   UNL     1      17.040  -2.920  24.443  0.00  0.00    +0.063 A 
ATOM     16  C   UNL     1      17.315  -2.529  25.116  0.00  0.00    +0.035 A 
ATOM     17  C   UNL     1      17.400  -2.941  25.826  0.00  0.00    +0.103 A 
ATOM     18  N   UNL     1      17.209  -3.742  25.863  0.00  0.00    -0.211 NA
BRANCH  15  19
ATOM     19  C   UNL     1      16.956  -2.509  23.734  0.00  0.00    +0.040 C 
ATOM     20  C   UNL     1      16.719  -1.722  23.654  0.00  0.00    +0.006 C 
ATOM     21  C   UNL     1      16.710  -1.539  22.850  0.00  0.00    +0.000 C 
ATOM     22  C   UNL     1      16.941  -2.211  22.433  0.00  0.00    +0.000 C 
ATOM     23  C   UNL     1      17.093  -2.811  22.979  0.00  0.00    +0.006 C 
ENDBRANCH  15  19
ENDBRANCH   8  12
BRANCH   4   3
ATOM      1  O   UNL     1      14.992  -6.712  28.363  0.00  0.00    -0.249 OA
ATOM      2  C   UNL     1      15.657  -7.183  28.491  0.00  0.00    +0.344 C 
ATOM      3  N   UNL     1      16.238  -7.243  27.907  0.00  0.00    -0.184 NA
ATOM     24  N   UNL     1      15.742  -7.594  29.200  0.00  0.00    -0.161 NA
BRANCH  24  25
ATOM     25  C   UNL     1      15.161  -7.534  29.784  0.00  0.00    +0.075 A 
ATOM     26  C   UNL     1      14.458  -7.958  29.711  0.00  0.00    +0.020 A 
ATOM     27  C   UNL     1      13.877  -7.899  30.294  0.00  0.00    +0.039 A 
ATOM     28  C   UNL     1      14.000  -7.415  30.950  0.00  0.00    +0.145 A 
ATOM     36  C   UNL     1      14.704  -6.990  31.024  0.00  0.00    +0.039 A 
ATOM     37  C   UNL     1      15.284  -7.050  30.440  0.00  0.00    +0.020 A 
BRANCH  28  29
ATOM     29  O   UNL     1      13.420  -7.354  31.534  0.00  0.00    -0.453 OA
BRANCH  29  30
ATOM     30  C   UNL     1      12.971  -6.665  31.599  0.00  0.00    +0.145 A 
ATOM     31  C   UNL     1      12.279  -6.581  31.158  0.00  0.00    +0.037 A 
ATOM     32  C   UNL     1      11.829  -5.892  31.223  0.00  0.00    +0.003 A 
ATOM     33  C   UNL     1      12.073  -5.288  31.729  0.00  0.00    +0.000 A 
ATOM     34  C   UNL     1      12.765  -5.371  32.169  0.00  0.00    +0.003 A 
ATOM     35  C   UNL     1      13.215  -6.061  32.104  0.00  0.00    +0.037 A 
ENDBRANCH  29  30
ENDBRANCH  28  29
ENDBRANCH  24  25
ENDBRANCH   4   3
TORSDOF 6
ENDMDL
MODEL 6
REMARK VINA RESULT:      -6.1     15.353     16.638
REMARK  Name = 
REMARK  6 active torsions:
REMARK  status: ('A' for Active; 'I' for Inactive)
REMARK    1  A    between atoms: N_3  and  C_4
REMARK    2  A    between atoms: C_8  and  N_12
REMARK    3  A    between atoms: C_15  and  C_19
REMARK    4  A    between atoms: N_24  and  C_25
REMARK    5  A    between atoms: C_28  and  O_29
REMARK    6  A    between atoms: O_29  and  C_30
REMARK                            x       y       z     vdW  Elec       q    Type
REMARK                         _______ _______ _______ _____ _____    ______ ____
ROOT
ATOM      4  C   UNL     1      -6.434  -9.680  11.510  0.00  0.00    +0.156 C 
ATOM      5  C   UNL     1      -6.282  -8.884  11.665  0.00  0.00    +0.166 C 
ATOM      6  O   UNL     1      -5.492  -8.736  11.479  0.00  0.00    -0.350 OA
ATOM      7  C   UNL     1      -5.157  -9.439  11.209  0.00  0.00    +0.166 C 
ATOM      8  C   UNL     1      -4.462  -9.783  10.927  0.00  0.00    +0.154 C 
ATOM      9  C   UNL     1      -4.614 -10.578  10.772  0.00  0.00    +0.166 C 
ATOM     10  O   UNL     1      -5.404 -10.727  10.958  0.00  0.00    -0.350 OA
ATOM     11  C   UNL     1      -5.739 -10.023  11.228  0.00  0.00    +0.166 C 
ENDROOT
BRANCH   8  12
ATOM     12  N   UNL     1      -3.740  -9.398  10.819  0.00  0.00    -0.200 NA
ATOM     13  C   UNL     1      -3.062  -9.678  11.196  0.00  0.00    +0.236 A 
ATOM     14  N   UNL     1      -2.340  -9.293  11.088  0.00  0.00    -0.217 NA
ATOM     15  C   UNL     1      -1.662  -9.574  11.465  0.00  0.00    +0.063 A 
ATOM     16  C   UNL     1      -1.706 -10.239  11.950  0.00  0.00    +0.035 A 
ATOM     17  C   UNL     1      -2.428 -10.625  12.059  0.00  0.00    +0.103 A 
ATOM     18  N   UNL     1      -3.105 -10.344  11.681  0.00  0.00    -0.211 NA
BRANCH  15  19
ATOM     19  C   UNL     1      -0.941  -9.189  11.357  0.00  0.00    +0.040 C 
ATOM     20  C   UNL     1      -0.431  -9.285  10.716  0.00  0.00    +0.006 C 
ATOM     21  C   UNL     1       0.222  -8.796  10.834  0.00  0.00    +0.000 C 
ATOM     22  C   UNL     1       0.117  -8.398  11.548  0.00  0.00    +0.000 C 
ATOM     23  C   UNL     1      -0.602  -8.641  11.872  0.00  0.00    +0.006 C 
ENDBRANCH  15  19
ENDBRANCH   8  12
BRANCH   4   3
ATOM      1  O   UNL     1      -7.299  -9.439  12.895  0.00  0.00    -0.249 OA
ATOM      2  C   UNL     1      -7.589  -9.945  12.310  0.00  0.00    +0.344 C 
ATOM      3  N   UNL     1      -7.156 -10.065  11.618  0.00  0.00    -0.184 NA
ATOM     24  N   UNL     1      -8.310 -10.330  12.419  0.00  0.00    -0.161 NA
BRANCH  24  25
ATOM     25  C   UNL     1      -8.742 -10.210  13.111  0.00  0.00    +0.075 A 
ATOM     26  C   UNL     1      -9.373  -9.679  13.117  0.00  0.00    +0.020 A 
ATOM     27  C   UNL     1      -9.806  -9.558  13.809  0.00  0.00    +0.039 A 
ATOM     28  C   UNL     1      -9.607  -9.970  14.496  0.00  0.00    +0.145 A 
ATOM     36  C   UNL     1      -8.976 -10.502  14.490  0.00  0.00    +0.039 A 
ATOM     37  C   UNL     1      -8.544 -10.621  13.798  0.00  0.00    +0.020 A 
BRANCH  28  29
ATOM     29  O   UNL     1     -10.039  -9.850  15.188  0.00  0.00    -0.453 OA
BRANCH  29  30
ATOM     30  C   UNL     1      -9.803  -9.271  15.727  0.00  0.00    +0.145 A 
ATOM     31  C   UNL     1     -10.088  -8.501  15.655  0.00  0.00    +0.037 A 
ATOM     32  C   UNL     1      -9.852  -7.921  16.193  0.00  0.00    +0.003 A 
ATOM     33  C   UNL     1      -9.330  -8.113  16.803  0.00  0.00    +0.000 A 
ATOM     34  C   UNL     1      -9.044  -8.883  16.874  0.00  0.00    +0.003 A 
ATOM     35  C   UNL     1      -9.280  -9.463  16.336  0.00  0.00    +0.037 A 
ENDBRANCH  29  30
ENDBRANCH  28  29
ENDBRANCH  24  25
ENDBRANCH   4   3
TORSDOF 6
ENDMDL
MODEL 7
REMARK VINA RESULT:      -6.0     16.492     18.253
REMARK  Name = 
REMARK  6 active torsions:
REMARK  status: ('A' for Active; 'I' for Inactive)
REMARK    1  A    between atoms: N_3  and  C_4
REMARK    2  A    between atoms: C_8  and  N_12
REMARK    3  A    between atoms: C_15  and  C_19
REMARK    4  A    between atoms: N_24  and  C_25
REMARK    5  A    between atoms: C_28  and  O_29
REMARK    6  A    between atoms: O_29  and  C_30
REMARK                            x       y       z     vdW  Elec       q    Type
REMARK                         _______ _______ _______ _____ _____    ______ ____
ROOT
ATOM      4  C   UNL     1      16.007  -6.878  26.572  0.00  0.00    +0.156 C 
ATOM      5  C   UNL     1      15.196  -6.831  26.426  0.00  0.00    +0.166 C 
ATOM      6  O   UNL     1      14.803  -6.922  27.145  0.00  0.00    -0.350 OA
ATOM      7  C   UNL     1      15.369  -7.025  27.735  0.00  0.00    +0.166 C 
ATOM      8  C   UNL     1      15.477  -7.145  28.544  0.00  0.00    +0.154 C 
ATOM      9  C   UNL     1      16.287  -7.193  28.690  0.00  0.00    +0.166 C 
ATOM     10  O   UNL     1      16.681  -7.102  27.971  0.00  0.00    -0.350 OA
ATOM     11  C   UNL     1      16.113  -6.998  27.380  0.00  0.00    +0.166 C 
ENDROOT
BRANCH   8  12
ATOM     12  N   UNL     1      14.878  -7.207  29.109  0.00  0.00    -0.200 NA
ATOM     13  C   UNL     1      14.845  -6.672  29.735  0.00  0.00    +0.236 A 
ATOM     14  N   UNL     1      14.247  -6.733  30.299  0.00  0.00    -0.217 NA
ATOM     15  C   UNL     1      14.213  -6.198  30.926  0.00  0.00    +0.063 A 
ATOM     16  C   UNL     1      14.778  -5.600  30.988  0.00  0.00    +0.035 A 
ATOM     17  C   UNL     1      15.377  -5.538  30.424  0.00  0.00    +0.103 A 
ATOM     18  N   UNL     1      15.410  -6.074  29.797  0.00  0.00    -0.211 NA
BRANCH  15  19
ATOM     19  C   UNL     1      13.615  -6.259  31.490  0.00  0.00    +0.040 C 
ATOM     20  C   UNL     1      12.832  -6.015  31.396  0.00  0.00    +0.006 C 
ATOM     21  C   UNL     1      12.428  -6.181  32.096  0.00  0.00    +0.000 C 
ATOM     22  C   UNL     1      12.960  -6.527  32.622  0.00  0.00    +0.000 C 
ATOM     23  C   UNL     1      13.694  -6.575  32.248  0.00  0.00    +0.006 C 
ENDBRANCH  15  19
ENDBRANCH   8  12
BRANCH   4   3
ATOM      1  O   UNL     1      16.086  -5.550  25.596  0.00  0.00    -0.249 OA
ATOM      2  C   UNL     1      16.646  -6.152  25.519  0.00  0.00    +0.344 C 
ATOM      3  N   UNL     1      16.605  -6.816  26.007  0.00  0.00    -0.184 NA
ATOM     24  N   UNL     1      17.244  -6.090  24.955  0.00  0.00    -0.161 NA
BRANCH  24  25
ATOM     25  C   UNL     1      17.284  -5.426  24.467  0.00  0.00    +0.075 A 
ATOM     26  C   UNL     1      17.244  -5.512  23.648  0.00  0.00    +0.020 A 
ATOM     27  C   UNL     1      17.284  -4.848  23.160  0.00  0.00    +0.039 A 
ATOM     28  C   UNL     1      17.365  -4.097  23.492  0.00  0.00    +0.145 A 
ATOM     36  C   UNL     1      17.405  -4.010  24.312  0.00  0.00    +0.039 A 
ATOM     37  C   UNL     1      17.365  -4.675  24.799  0.00  0.00    +0.020 A 
BRANCH  28  29
ATOM     29  O   UNL     1      17.405  -3.432  23.005  0.00  0.00    -0.453 OA
BRANCH  29  30
ATOM     30  C   UNL     1      16.755  -2.929  22.941  0.00  0.00    +0.145 A 
ATOM     31  C   UNL     1      16.750  -2.207  23.341  0.00  0.00    +0.037 A 
ATOM     32  C   UNL     1      16.100  -1.703  23.276  0.00  0.00    +0.003 A 
ATOM     33  C   UNL     1      15.454  -1.922  22.811  0.00  0.00    +0.000 A 
ATOM     34  C   UNL     1      15.458  -2.643  22.411  0.00  0.00    +0.003 A 
ATOM     35  C   UNL     1      16.109  -3.147  22.476  0.00  0.00    +0.037 A 
ENDBRANCH  29  30
ENDBRANCH  28  29
ENDBRANCH  24  25
ENDBRANCH   4   3
TORSDOF 6
ENDMDL
MODEL 8
REMARK VINA RESULT:      -5.9     14.863     18.006
REMARK  Name = 
REMARK  6 active torsions:
REMARK  status: ('A' for Active; 'I' for Inactive)
REMARK    1  A    between atoms: N_3  and  C_4
REMARK    2  A    between atoms: C_8  and  N_12
REMARK    3  A    between atoms: C_15  and  C_19
REMARK    4  A    between atoms: N_24  and  C_25
REMARK    5  A    between atoms: C_28  and  O_29
REMARK    6  A    between atoms: O_29  and  C_30
REMARK                            x       y       z     vdW  Elec       q    Type
REMARK                         _______ _______ _______ _____ _____    ______ ____
ROOT
ATOM      4  C   UNL     1      13.069  -7.158  31.171  0.00  0.00    +0.156 C 
ATOM      5  C   UNL     1      12.643  -6.671  30.660  0.00  0.00    +0.166 C 
ATOM      6  O   UNL     1      11.845  -6.731  30.859  0.00  0.00    -0.350 OA
ATOM      7  C   UNL     1      11.777  -7.255  31.492  0.00  0.00    +0.166 C 
ATOM      8  C   UNL     1      11.243  -7.616  32.006  0.00  0.00    +0.154 C 
ATOM      9  C   UNL     1      11.670  -8.103  32.517  0.00  0.00    +0.166 C 
ATOM     10  O   UNL     1      12.468  -8.043  32.319  0.00  0.00    -0.350 OA
ATOM     11  C   UNL     1      12.535  -7.519  31.685  0.00  0.00    +0.166 C 
ENDROOT
BRANCH   8  12
ATOM     12  N   UNL     1      10.425  -7.509  32.009  0.00  0.00    -0.200 NA
ATOM     13  C   UNL     1       9.922  -8.163  32.010  0.00  0.00    +0.236 A 
ATOM     14  N   UNL     1       9.105  -8.056  32.013  0.00  0.00    -0.217 NA
ATOM     15  C   UNL     1       8.603  -8.711  32.014  0.00  0.00    +0.063 A 
ATOM     16  C   UNL     1       8.918  -9.473  32.013  0.00  0.00    +0.035 A 
ATOM     17  C   UNL     1       9.737  -9.580  32.011  0.00  0.00    +0.103 A 
ATOM     18  N   UNL     1      10.238  -8.925  32.009  0.00  0.00    -0.211 NA
BRANCH  15  19
ATOM     19  C   UNL     1       7.785  -8.604  32.017  0.00  0.00    +0.040 C 
ATOM     20  C   UNL     1       7.295  -8.591  31.353  0.00  0.00    +0.006 C 
ATOM     21  C   UNL     1       6.521  -8.470  31.609  0.00  0.00    +0.000 C 
ATOM     22  C   UNL     1       6.532  -8.408  32.431  0.00  0.00    +0.000 C 
ATOM     23  C   UNL     1       7.313  -8.490  32.683  0.00  0.00    +0.006 C 
ENDBRANCH  15  19
ENDBRANCH   8  12
BRANCH   4   3
ATOM      1  O   UNL     1      14.072  -5.854  31.042  0.00  0.00    -0.249 OA
ATOM      2  C   UNL     1      14.390  -6.614  31.104  0.00  0.00    +0.344 C 
ATOM      3  N   UNL     1      13.888  -7.266  31.169  0.00  0.00    -0.184 NA
ATOM     24  N   UNL     1      15.207  -6.721  31.102  0.00  0.00    -0.161 NA
BRANCH  24  25
ATOM     25  C   UNL     1      15.709  -6.069  31.037  0.00  0.00    +0.075 A 
ATOM     26  C   UNL     1      15.972  -5.822  30.296  0.00  0.00    +0.020 A 
ATOM     27  C   UNL     1      16.474  -5.171  30.232  0.00  0.00    +0.039 A 
ATOM     28  C   UNL     1      16.713  -4.766  30.910  0.00  0.00    +0.145 A 
ATOM     36  C   UNL     1      16.450  -5.013  31.652  0.00  0.00    +0.039 A 
ATOM     37  C   UNL     1      15.948  -5.665  31.715  0.00  0.00    +0.020 A 
BRANCH  28  29
ATOM     29  O   UNL     1      17.214  -4.114  30.846  0.00  0.00    -0.453 OA
BRANCH  29  30
ATOM     30  C   UNL     1      16.900  -3.364  30.703  0.00  0.00    +0.145 A 
ATOM     31  C   UNL     1      16.906  -3.054  29.939  0.00  0.00    +0.037 A 
ATOM     32  C   UNL     1      16.591  -2.304  29.797  0.00  0.00    +0.003 A 
ATOM     33  C   UNL     1      16.272  -1.866  30.418  0.00  0.00    +0.000 A 
ATOM     34  C   UNL     1      16.266  -2.177  31.182  0.00  0.00    +0.003 A 
ATOM     35  C   UNL     1      16.581  -2.926  31.325  0.00  0.00    +0.037 A 
ENDBRANCH  29  30
ENDBRANCH  28  29
ENDBRANCH  24  25
ENDBRANCH   4   3
TORSDOF 6
ENDMDL
MODEL 9
REMARK VINA RESULT:      -5.9     17.249     18.610
REMARK  Name = 
REMARK  6 active torsions:
REMARK  status: ('A' for Active; 'I' for Inactive)
REMARK    1  A    between atoms: N_3  and  C_4
REMARK    2  A    between atoms: C_8  and  N_12
REMARK    3  A    between atoms: C_15  and  C_19
REMARK    4  A    between atoms: N_24  and  C_25
REMARK    5  A    between atoms: C_28  and  O_29
REMARK    6  A    between atoms: O_29  and  C_30
REMARK                            x       y       z     vdW  Elec       q    Type
REMARK                         _______ _______ _______ _____ _____    ______ ____
ROOT
ATOM      4  C   UNL     1      16.015  -7.529  26.595  0.00  0.00    +0.156 C 
ATOM      5  C   UNL     1      15.395  -7.036  26.824  0.00  0.00    +0.166 C 
ATOM      6  O   UNL     1      15.543  -6.284  26.520  0.00  0.00    -0.350 OA
ATOM      7  C   UNL     1      16.254  -6.311  26.103  0.00  0.00    +0.166 C 
ATOM      8  C   UNL     1      16.785  -5.864  25.658  0.00  0.00    +0.154 C 
ATOM      9  C   UNL     1      17.405  -6.357  25.429  0.00  0.00    +0.166 C 
ATOM     10  O   UNL     1      17.258  -7.110  25.733  0.00  0.00    -0.350 OA
ATOM     11  C   UNL     1      16.546  -7.081  26.150  0.00  0.00    +0.166 C 
ENDROOT
BRANCH   8  12
ATOM     12  N   UNL     1      16.709  -5.063  25.473  0.00  0.00    -0.200 NA
ATOM     13  C   UNL     1      16.878  -4.797  24.711  0.00  0.00    +0.236 A 
ATOM     14  N   UNL     1      16.802  -3.998  24.526  0.00  0.00    -0.217 NA
ATOM     15  C   UNL     1      16.971  -3.731  23.764  0.00  0.00    +0.063 A 
ATOM     16  C   UNL     1      17.217  -4.266  23.186  0.00  0.00    +0.035 A 
ATOM     17  C   UNL     1      17.293  -5.067  23.370  0.00  0.00    +0.103 A 
ATOM     18  N   UNL     1      17.123  -5.332  24.133  0.00  0.00    -0.211 NA
BRANCH  15  19
ATOM     19  C   UNL     1      16.895  -2.932  23.579  0.00  0.00    +0.040 C 
ATOM     20  C   UNL     1      16.371  -2.608  23.030  0.00  0.00    +0.006 C 
ATOM     21  C   UNL     1      16.482  -1.791  23.023  0.00  0.00    +0.000 C 
ATOM     22  C   UNL     1      17.074  -1.609  23.567  0.00  0.00    +0.000 C 
ATOM     23  C   UNL     1      17.329  -2.314  23.911  0.00  0.00    +0.006 C 
ENDBRANCH  15  19
ENDBRANCH   8  12
BRANCH   4   3
ATOM      1  O   UNL     1      15.299  -8.134  27.953  0.00  0.00    -0.249 OA
ATOM      2  C   UNL     1      15.733  -8.633  27.458  0.00  0.00    +0.344 C 
ATOM      3  N   UNL     1      16.091  -8.330  26.779  0.00  0.00    -0.184 NA
ATOM     24  N   UNL     1      15.809  -9.433  27.643  0.00  0.00    -0.161 NA
BRANCH  24  25
ATOM     25  C   UNL     1      15.451  -9.736  28.321  0.00  0.00    +0.075 A 
ATOM     26  C   UNL     1      15.818  -9.650  29.055  0.00  0.00    +0.020 A 
ATOM     27  C   UNL     1      15.460  -9.953  29.734  0.00  0.00    +0.039 A 
ATOM     28  C   UNL     1      14.735 -10.343  29.678  0.00  0.00    +0.145 A 
ATOM     36  C   UNL     1      14.368 -10.430  28.944  0.00  0.00    +0.039 A 
ATOM     37  C   UNL     1      14.726 -10.126  28.266  0.00  0.00    +0.020 A 
BRANCH  28  29
ATOM     29  O   UNL     1      14.376 -10.647  30.356  0.00  0.00    -0.453 OA
BRANCH  29  30
ATOM     30  C   UNL     1      13.785 -10.215  30.738  0.00  0.00    +0.145 A 
ATOM     31  C   UNL     1      13.988  -9.617  31.268  0.00  0.00    +0.037 A 
ATOM     32  C   UNL     1      13.397  -9.185  31.650  0.00  0.00    +0.003 A 
ATOM     33  C   UNL     1      12.603  -9.354  31.501  0.00  0.00    +0.000 A 
ATOM     34  C   UNL     1      12.400  -9.952  30.971  0.00  0.00    +0.003 A 
ATOM     35  C   UNL     1      12.991 -10.383  30.589  0.00  0.00    +0.037 A 
ENDBRANCH  29  30
ENDBRANCH  28  29
ENDBRANCH  24  25
ENDBRANCH   4   3
TORSDOF 6
ENDMDL
MODEL 10
REMARK VINA RESULT:      -5.9      2.190      3.390
REMARK  Name = 
REMARK  6 active torsions:
REMARK  status: ('A' for Active; 'I' for Inactive)
REMARK    1  A    between atoms: N_3  and  C_4
REMARK    2  A    between atoms: C_8  and  N_12
REMARK    3  A    between atoms: C_15  and  C_19
REMARK    4  A    between atoms: N_24  and  C_25
REMARK    5  A    between atoms: C_28  and  O_29
REMARK    6  A    between atoms: O_29  and  C_30
REMARK                            x       y       z     vdW  Elec       q    Type
REMARK                         _______ _______ _______ _____ _____    ______ ____
ROOT
ATOM      4  C   UNL     1      -0.665   2.180  24.714  0.00  0.00    +0.156 C 
ATOM      5  C   UNL     1      -0.222   2.326  25.394  0.00  0.00    +0.166 C 
ATOM      6  O   UNL     1       0.570   2.174  25.220  0.00  0.00    -0.350 OA
ATOM      7  C   UNL     1       0.616   1.933  24.433  0.00  0.00    +0.166 C 
ATOM      8  C   UNL     1       1.133   1.689  23.838  0.00  0.00    +0.154 C 
ATOM      9  C   UNL     1       0.690   1.543  23.158  0.00  0.00    +0.166 C 
ATOM     10  O   UNL     1      -0.101   1.695  23.332  0.00  0.00    -0.350 OA
ATOM     11  C   UNL     1      -0.147   1.937  24.120  0.00  0.00    +0.166 C 
ENDROOT
BRANCH   8  12
ATOM     12  N   UNL     1       1.951   1.607  23.910  0.00  0.00    -0.200 NA
ATOM     13  C   UNL     1       2.345   1.011  23.497  0.00  0.00    +0.236 A 
ATOM     14  N   UNL     1       3.162   0.929  23.569  0.00  0.00    -0.217 NA
ATOM     15  C   UNL     1       3.555   0.333  23.156  0.00  0.00    +0.063 A 
ATOM     16  C   UNL     1       3.131  -0.180  22.669  0.00  0.00    +0.035 A 
ATOM     17  C   UNL     1       2.313  -0.098  22.597  0.00  0.00    +0.103 A 
ATOM     18  N   UNL     1       1.920   0.498  23.010  0.00  0.00    -0.211 NA
BRANCH  15  19
ATOM     19  C   UNL     1       4.373   0.251  23.228  0.00  0.00    +0.040 C 
ATOM     20  C   UNL     1       4.938   0.813  23.013  0.00  0.00    +0.006 C 
ATOM     21  C   UNL     1       5.683   0.501  23.181  0.00  0.00    +0.000 C 
ATOM     22  C   UNL     1       5.579  -0.252  23.499  0.00  0.00    +0.000 C 
ATOM     23  C   UNL     1       4.769  -0.407  23.529  0.00  0.00    +0.006 C 
ENDBRANCH  15  19
ENDBRANCH   8  12
BRANCH   4   3
ATOM      1  O   UNL     1      -1.629   0.841  24.689  0.00  0.00    -0.249 OA
ATOM      2  C   UNL     1      -1.966   1.593  24.628  0.00  0.00    +0.344 C 
ATOM      3  N   UNL     1      -1.483   2.262  24.641  0.00  0.00    -0.184 NA
ATOM     24  N   UNL     1      -2.783   1.675  24.556  0.00  0.00    -0.161 NA
BRANCH  24  25
ATOM     25  C   UNL     1      -3.265   1.006  24.543  0.00  0.00    +0.075 A 
ATOM     26  C   UNL     1      -3.535   0.678  25.250  0.00  0.00    +0.020 A 
ATOM     27  C   UNL     1      -4.018   0.009  25.237  0.00  0.00    +0.039 A 
ATOM     28  C   UNL     1      -4.231  -0.332  24.516  0.00  0.00    +0.145 A 
ATOM     36  C   UNL     1      -3.961  -0.004  23.809  0.00  0.00    +0.039 A 
ATOM     37  C   UNL     1      -3.478   0.665  23.823  0.00  0.00    +0.020 A 
BRANCH  28  29
ATOM     29  O   UNL     1      -4.713  -1.001  24.503  0.00  0.00    -0.453 OA
BRANCH  29  30
ATOM     30  C   UNL     1      -4.379  -1.749  24.402  0.00  0.00    +0.145 A 
ATOM     31  C   UNL     1      -3.942  -2.091  25.013  0.00  0.00    +0.037 A 
ATOM     32  C   UNL     1      -3.607  -2.838  24.913  0.00  0.00    +0.003 A 
ATOM     33  C   UNL     1      -3.710  -3.244  24.202  0.00  0.00    +0.000 A 
ATOM     34  C   UNL     1      -4.146  -2.902  23.591  0.00  0.00    +0.003 A 
ATOM     35  C   UNL     1      -4.481  -2.154  23.691  0.00  0.00    +0.037 A 
ENDBRANCH  29  30
ENDBRANCH  28  29
ENDBRANCH  24  25
ENDBRANCH   4   3
TORSDOF 6
ENDMDL
