MODEL 1
REMARK VINA RESULT:      -9.1      0.000      0.000
REMARK  Name = 
REMARK  5 active torsions:
REMARK  status: ('A' for Active; 'I' for Inactive)
REMARK    1  A    between atoms: C_2  and  N_4
REMARK    2  A    between atoms: N_7  and  C_8
REMARK    3  A    between atoms: C_8  and  C_9
REMARK    4  A    between atoms: C_12  and  N_13
REMARK    5  A    between atoms: N_13  and  C_14
REMARK                            x       y       z     vdW  Elec       q    Type
REMARK                         _______ _______ _______ _____ _____    ______ ____
ROOT
ATOM      9  C   UNL     1      -3.458   2.142  24.423  0.00  0.00    +0.169 C 
ATOM     10  O   UNL     1      -3.058   1.647  23.900  0.00  0.00    -0.350 OA
ATOM     11  C   UNL     1      -3.424   0.907  23.915  0.00  0.00    +0.162 C 
ATOM     12  C   UNL     1      -4.052   0.946  24.449  0.00  0.00    +0.135 C 
ATOM     23  C   UNL     1      -4.074   1.709  24.763  0.00  0.00    +0.199 C 
ATOM     24  O   UNL     1      -4.615   1.989  25.319  0.00  0.00    -0.219 OA
ENDROOT
BRANCH   9   8
ATOM      8  C   UNL     1      -3.277   2.931  24.581  0.00  0.00    +0.149 C 
BRANCH   8   7
ATOM      4  N   UNL     1      -1.516   4.128  25.063  0.00  0.00    -0.189 NA
ATOM      5  C   UNL     1      -2.273   3.923  24.804  0.00  0.00    +0.339 C 
ATOM      6  O   UNL     1      -2.780   4.503  24.510  0.00  0.00    -0.249 OA
ATOM      7  N   UNL     1      -2.521   3.137  24.840  0.00  0.00    -0.185 NA
BRANCH   4   2
ATOM      1  C   UNL     1      -0.541   5.101  24.687  0.00  0.00    +0.023 C 
ATOM      2  C   UNL     1      -1.268   4.914  25.028  0.00  0.00    +0.097 C 
ATOM      3  C   UNL     1      -1.747   5.512  25.333  0.00  0.00    +0.023 C 
ENDBRANCH   4   2
ENDBRANCH   8   7
ENDBRANCH   9   8
BRANCH  12  13
ATOM     13  N   UNL     1      -4.568   0.331  24.635  0.00  0.00    -0.216 NA
BRANCH  13  14
ATOM     14  C   UNL     1      -4.285  -0.443  24.685  0.00  0.00    +0.076 C 
ATOM     15  C   UNL     1      -4.356  -0.951  24.038  0.00  0.00    +0.039 C 
ATOM     16  C   UNL     1      -4.073  -1.725  24.089  0.00  0.00    +0.095 C 
ATOM     17  N   UNL     1      -3.721  -1.990  24.785  0.00  0.00    -0.279 N 
ATOM     18  C   UNL     1      -3.650  -1.483  25.431  0.00  0.00    +0.095 C 
ATOM     19  C   UNL     1      -3.933  -0.709  25.382  0.00  0.00    +0.039 C 
ATOM     20  C   UNL     1      -3.438  -2.764  24.835  0.00  0.00    +0.226 C 
ATOM     21  C   UNL     1      -3.509  -3.271  24.189  0.00  0.00    +0.095 C 
ATOM     22  O   UNL     1      -3.086  -3.030  25.531  0.00  0.00    -0.275 OA
ENDBRANCH  13  14
ENDBRANCH  12  13
TORSDOF 5
ENDMDL
MODEL 2
REMARK VINA RESULT:      -8.7      1.930      5.958
REMARK  Name = 
REMARK  5 active torsions:
REMARK  status: ('A' for Active; 'I' for Inactive)
REMARK    1  A    between atoms: C_2  and  N_4
REMARK    2  A    between atoms: N_7  and  C_8
REMARK    3  A    between atoms: C_8  and  C_9
REMARK    4  A    between atoms: C_12  and  N_13
REMARK    5  A    between atoms: N_13  and  C_14
REMARK                            x       y       z     vdW  Elec       q    Type
REMARK                         _______ _______ _______ _____ _____    ______ ____
ROOT
ATOM      9  C   UNL     1      -1.162   0.030  24.654  0.00  0.00    +0.169 C 
ATOM     10  O   UNL     1      -1.104   0.505  23.983  0.00  0.00    -0.350 OA
ATOM     11  C   UNL     1      -0.777   1.228  24.209  0.00  0.00    +0.162 C 
ATOM     12  C   UNL     1      -0.633   1.199  25.021  0.00  0.00    +0.135 C 
ATOM     23  C   UNL     1      -0.871   0.458  25.296  0.00  0.00    +0.199 C 
ATOM     24  O   UNL     1      -0.826   0.193  26.076  0.00  0.00    -0.219 OA
ENDROOT
BRANCH   9   8
ATOM      8  C   UNL     1      -1.459  -0.740  24.679  0.00  0.00    +0.149 C 
BRANCH   8   7
ATOM      4  N   UNL     1      -3.386  -1.754  24.521  0.00  0.00    -0.189 NA
ATOM      5  C   UNL     1      -2.571  -1.627  24.536  0.00  0.00    +0.339 C 
ATOM      6  O   UNL     1      -2.052  -2.258  24.424  0.00  0.00    -0.249 OA
ATOM      7  N   UNL     1      -2.275  -0.867  24.664  0.00  0.00    -0.185 NA
BRANCH   4   2
ATOM      1  C   UNL     1      -4.140  -2.670  23.725  0.00  0.00    +0.023 C 
ATOM      2  C   UNL     1      -3.682  -2.514  24.393  0.00  0.00    +0.097 C 
ATOM      3  C   UNL     1      -3.520  -3.116  24.933  0.00  0.00    +0.023 C 
ENDBRANCH   4   2
ENDBRANCH   8   7
ENDBRANCH   9   8
BRANCH  12  13
ATOM     13  N   UNL     1      -0.309   1.804  25.478  0.00  0.00    -0.216 NA
BRANCH  13  14
ATOM     14  C   UNL     1      -0.613   2.569  25.426  0.00  0.00    +0.076 C 
ATOM     15  C   UNL     1      -0.243   3.129  24.946  0.00  0.00    +0.039 C 
ATOM     16  C   UNL     1      -0.549   3.894  24.894  0.00  0.00    +0.095 C 
ATOM     17  N   UNL     1      -1.223   4.099  25.322  0.00  0.00    -0.279 N 
ATOM     18  C   UNL     1      -1.593   3.539  25.802  0.00  0.00    +0.095 C 
ATOM     19  C   UNL     1      -1.288   2.774  25.854  0.00  0.00    +0.039 C 
ATOM     20  C   UNL     1      -1.528   4.864  25.270  0.00  0.00    +0.226 C 
ATOM     21  C   UNL     1      -1.158   5.423  24.791  0.00  0.00    +0.095 C 
ATOM     22  O   UNL     1      -2.203   5.068  25.698  0.00  0.00    -0.275 OA
ENDBRANCH  13  14
ENDBRANCH  12  13
TORSDOF 5
ENDMDL
MODEL 3
REMARK VINA RESULT:      -8.2      2.071      2.424
REMARK  Name = 
REMARK  5 active torsions:
REMARK  status: ('A' for Active; 'I' for Inactive)
REMARK    1  A    between atoms: C_2  and  N_4
REMARK    2  A    between atoms: N_7  and  C_8
REMARK    3  A    between atoms: C_8  and  C_9
REMARK    4  A    between atoms: C_12  and  N_13
REMARK    5  A    between atoms: N_13  and  C_14
REMARK                            x       y       z     vdW  Elec       q    Type
REMARK                         _______ _______ _______ _____ _____    ______ ____
ROOT
ATOM      9  C   UNL     1      -0.567   1.185  24.927  0.00  0.00    +0.169 C 
ATOM     10  O   UNL     1      -0.565   0.853  24.172  0.00  0.00    -0.350 OA
ATOM     11  C   UNL     1      -0.736   0.049  24.245  0.00  0.00    +0.162 C 
ATOM     12  C   UNL     1      -0.843  -0.116  25.046  0.00  0.00    +0.135 C 
ATOM     23  C   UNL     1      -0.739   0.585  25.468  0.00  0.00    +0.199 C 
ATOM     24  O   UNL     1      -0.797   0.671  26.287  0.00  0.00    -0.219 OA
ENDROOT
BRANCH   9   8
ATOM      8  C   UNL     1      -0.422   1.975  25.111  0.00  0.00    +0.149 C 
BRANCH   8   7
ATOM      4  N   UNL     1      -1.240   3.938  24.615  0.00  0.00    -0.189 NA
ATOM      5  C   UNL     1      -0.831   3.341  25.013  0.00  0.00    +0.339 C 
ATOM      6  O   UNL     1      -0.422   3.514  25.708  0.00  0.00    -0.249 OA
ATOM      7  N   UNL     1      -0.832   2.572  24.714  0.00  0.00    -0.185 NA
BRANCH   4   2
ATOM      1  C   UNL     1      -1.855   4.959  25.402  0.00  0.00    +0.023 C 
ATOM      2  C   UNL     1      -1.240   4.707  24.914  0.00  0.00    +0.097 C 
ATOM      3  C   UNL     1      -0.624   5.223  24.725  0.00  0.00    +0.023 C 
ENDBRANCH   4   2
ENDBRANCH   8   7
ENDBRANCH   9   8
BRANCH  12  13
ATOM     13  N   UNL     1      -1.023  -0.854  25.368  0.00  0.00    -0.216 NA
BRANCH  13  14
ATOM     14  C   UNL     1      -1.654  -1.293  25.067  0.00  0.00    +0.076 C 
ATOM     15  C   UNL     1      -2.425  -1.008  25.135  0.00  0.00    +0.039 C 
ATOM     16  C   UNL     1      -3.055  -1.448  24.833  0.00  0.00    +0.095 C 
ATOM     17  N   UNL     1      -2.913  -2.171  24.464  0.00  0.00    -0.279 N 
ATOM     18  C   UNL     1      -2.142  -2.456  24.396  0.00  0.00    +0.095 C 
ATOM     19  C   UNL     1      -1.512  -2.017  24.697  0.00  0.00    +0.039 C 
ATOM     20  C   UNL     1      -3.544  -2.611  24.162  0.00  0.00    +0.226 C 
ATOM     21  C   UNL     1      -4.314  -2.326  24.230  0.00  0.00    +0.095 C 
ATOM     22  O   UNL     1      -3.402  -3.334  23.793  0.00  0.00    -0.275 OA
ENDBRANCH  13  14
ENDBRANCH  12  13
TORSDOF 5
ENDMDL
MODEL 4
REMARK VINA RESULT:      -8.1      1.031      5.602
REMARK  Name = 
REMARK  5 active torsions:
REMARK  status: ('A' for Active; 'I' for Inactive)
REMARK    1  A    between atoms: C_2  and  N_4
REMARK    2  A    between atoms: N_7  and  C_8
REMARK    3  A    between atoms: C_8  and  C_9
REMARK    4  A    between atoms: C_12  and  N_13
REMARK    5  A    between atoms: N_13  and  C_14
REMARK                            x       y       z     vdW  Elec       q    Type
REMARK                         _______ _______ _______ _____ _____    ______ ____
ROOT
ATOM      9  C   UNL     1      -3.986   0.903  24.255  0.00  0.00    +0.169 C 
ATOM     10  O   UNL     1      -3.550   1.271  23.661  0.00  0.00    -0.350 OA
ATOM     11  C   UNL     1      -3.430   2.058  23.880  0.00  0.00    +0.162 C 
ATOM     12  C   UNL     1      -3.793   2.175  24.612  0.00  0.00    +0.135 C 
ATOM     23  C   UNL     1      -4.137   1.462  24.844  0.00  0.00    +0.199 C 
ATOM     24  O   UNL     1      -4.558   1.331  25.541  0.00  0.00    -0.219 OA
ENDROOT
BRANCH   9   8
ATOM      8  C   UNL     1      -4.230   0.115  24.262  0.00  0.00    +0.149 C 
BRANCH   8   7
ATOM      4  N   UNL     1      -3.350  -1.883  24.250  0.00  0.00    -0.189 NA
ATOM      5  C   UNL     1      -3.912  -1.278  24.267  0.00  0.00    +0.339 C 
ATOM      6  O   UNL     1      -4.715  -1.461  24.305  0.00  0.00    -0.249 OA
ATOM      7  N   UNL     1      -3.669  -0.490  24.245  0.00  0.00    -0.185 NA
BRANCH   4   2
ATOM      1  C   UNL     1      -3.412  -3.140  24.926  0.00  0.00    +0.023 C 
ATOM      2  C   UNL     1      -3.594  -2.671  24.272  0.00  0.00    +0.097 C 
ATOM      3  C   UNL     1      -4.017  -2.990  23.640  0.00  0.00    +0.023 C 
ENDBRANCH   4   2
ENDBRANCH   8   7
ENDBRANCH   9   8
BRANCH  12  13
ATOM     13  N   UNL     1      -3.810   2.882  25.036  0.00  0.00    -0.216 NA
BRANCH  13  14
ATOM     14  C   UNL     1      -3.140   3.364  25.060  0.00  0.00    +0.076 C 
ATOM     15  C   UNL     1      -3.151   4.103  24.693  0.00  0.00    +0.039 C 
ATOM     16  C   UNL     1      -2.482   4.585  24.717  0.00  0.00    +0.095 C 
ATOM     17  N   UNL     1      -1.803   4.329  25.109  0.00  0.00    -0.279 N 
ATOM     18  C   UNL     1      -1.792   3.590  25.476  0.00  0.00    +0.095 C 
ATOM     19  C   UNL     1      -2.462   3.108  25.452  0.00  0.00    +0.039 C 
ATOM     20  C   UNL     1      -1.134   4.811  25.133  0.00  0.00    +0.226 C 
ATOM     21  C   UNL     1      -1.144   5.549  24.766  0.00  0.00    +0.095 C 
ATOM     22  O   UNL     1      -0.455   4.555  25.525  0.00  0.00    -0.275 OA
ENDBRANCH  13  14
ENDBRANCH  12  13
TORSDOF 5
ENDMDL
MODEL 5
REMARK VINA RESULT:      -7.5      3.979      5.258
REMARK  Name = 
REMARK  5 active torsions:
REMARK  status: ('A' for Active; 'I' for Inactive)
REMARK    1  A    between atoms: C_2  and  N_4
REMARK    2  A    between atoms: N_7  and  C_8
REMARK    3  A    between atoms: C_8  and  C_9
REMARK    4  A    between atoms: C_12  and  N_13
REMARK    5  A    between atoms: N_13  and  C_14
REMARK                            x       y       z     vdW  Elec       q    Type
REMARK                         _______ _______ _______ _____ _____    ______ ____
ROOT
ATOM      9  C   UNL     1       0.477   0.766  23.672  0.00  0.00    +0.169 C 
ATOM     10  O   UNL     1       0.365   1.549  23.902  0.00  0.00    -0.350 OA
ATOM     11  C   UNL     1      -0.405   1.624  24.191  0.00  0.00    +0.162 C 
ATOM     12  C   UNL     1      -0.768   0.884  24.139  0.00  0.00    +0.135 C 
ATOM     23  C   UNL     1      -0.223   0.354  23.818  0.00  0.00    +0.199 C 
ATOM     24  O   UNL     1      -0.356  -0.447  23.670  0.00  0.00    -0.219 OA
ENDROOT
BRANCH   9   8
ATOM      8  C   UNL     1       1.168   0.448  23.352  0.00  0.00    +0.149 C 
BRANCH   8   7
ATOM      4  N   UNL     1       3.263   0.997  23.077  0.00  0.00    -0.189 NA
ATOM      5  C   UNL     1       2.559   0.567  23.047  0.00  0.00    +0.339 C 
ATOM      6  O   UNL     1       2.543  -0.174  22.684  0.00  0.00    -0.249 OA
ATOM      7  N   UNL     1       1.872   0.878  23.382  0.00  0.00    -0.185 NA
BRANCH   4   2
ATOM      1  C   UNL     1       4.582   0.469  23.227  0.00  0.00    +0.023 C 
ATOM      2  C   UNL     1       3.950   0.686  22.742  0.00  0.00    +0.097 C 
ATOM      3  C   UNL     1       4.005   0.591  21.925  0.00  0.00    +0.023 C 
ENDBRANCH   4   2
ENDBRANCH   8   7
ENDBRANCH   9   8
BRANCH  12  13
ATOM     13  N   UNL     1      -1.540   0.707  24.367  0.00  0.00    -0.216 NA
BRANCH  13  14
ATOM     14  C   UNL     1      -2.125   1.288  24.329  0.00  0.00    +0.076 C 
ATOM     15  C   UNL     1      -2.298   1.744  24.995  0.00  0.00    +0.039 C 
ATOM     16  C   UNL     1      -2.883   2.325  24.956  0.00  0.00    +0.095 C 
ATOM     17  N   UNL     1      -3.295   2.449  24.253  0.00  0.00    -0.279 N 
ATOM     18  C   UNL     1      -3.122   1.994  23.587  0.00  0.00    +0.095 C 
ATOM     19  C   UNL     1      -2.537   1.413  23.625  0.00  0.00    +0.039 C 
ATOM     20  C   UNL     1      -3.880   3.030  24.214  0.00  0.00    +0.226 C 
ATOM     21  C   UNL     1      -4.053   3.486  24.880  0.00  0.00    +0.095 C 
ATOM     22  O   UNL     1      -4.291   3.155  23.511  0.00  0.00    -0.275 OA
ENDBRANCH  13  14
ENDBRANCH  12  13
TORSDOF 5
ENDMDL
MODEL 6
REMARK VINA RESULT:      -7.4      4.100      4.495
REMARK  Name = 
REMARK  5 active torsions:
REMARK  status: ('A' for Active; 'I' for Inactive)
REMARK    1  A    between atoms: C_2  and  N_4
REMARK    2  A    between atoms: N_7  and  C_8
REMARK    3  A    between atoms: C_8  and  C_9
REMARK    4  A    between atoms: C_12  and  N_13
REMARK    5  A    between atoms: N_13  and  C_14
REMARK                            x       y       z     vdW  Elec       q    Type
REMARK                         _______ _______ _______ _____ _____    ______ ____
ROOT
ATOM      9  C   UNL     1       0.499   0.177  23.683  0.00  0.00    +0.169 C 
ATOM     10  O   UNL     1       0.350  -0.627  23.581  0.00  0.00    -0.350 OA
ATOM     11  C   UNL     1      -0.340  -0.814  23.993  0.00  0.00    +0.162 C 
ATOM     12  C   UNL     1      -0.617  -0.124  24.351  0.00  0.00    +0.135 C 
ATOM     23  C   UNL     1      -0.099   0.489  24.159  0.00  0.00    +0.199 C 
ATOM     24  O   UNL     1      -0.167   1.274  24.402  0.00  0.00    -0.219 OA
ENDROOT
BRANCH   9   8
ATOM      8  C   UNL     1       1.133   0.598  23.365  0.00  0.00    +0.149 C 
BRANCH   8   7
ATOM      4  N   UNL     1       3.172   0.159  22.720  0.00  0.00    -0.189 NA
ATOM      5  C   UNL     1       2.521   0.564  23.025  0.00  0.00    +0.339 C 
ATOM      6  O   UNL     1       2.606   1.339  23.295  0.00  0.00    -0.249 OA
ATOM      7  N   UNL     1       1.785   0.193  23.060  0.00  0.00    -0.185 NA
BRANCH   4   2
ATOM      1  C   UNL     1       4.049   1.112  22.118  0.00  0.00    +0.023 C 
ATOM      2  C   UNL     1       3.908   0.530  22.685  0.00  0.00    +0.097 C 
ATOM      3  C   UNL     1       4.503   0.319  23.217  0.00  0.00    +0.023 C 
ENDBRANCH   4   2
ENDBRANCH   8   7
ENDBRANCH   9   8
BRANCH  12  13
ATOM     13  N   UNL     1      -1.293  -0.059  24.818  0.00  0.00    -0.216 NA
BRANCH  13  14
ATOM     14  C   UNL     1      -1.944  -0.547  24.673  0.00  0.00    +0.076 C 
ATOM     15  C   UNL     1      -1.919  -1.342  24.891  0.00  0.00    +0.039 C 
ATOM     16  C   UNL     1      -2.569  -1.829  24.746  0.00  0.00    +0.095 C 
ATOM     17  N   UNL     1      -3.243  -1.521  24.384  0.00  0.00    -0.279 N 
ATOM     18  C   UNL     1      -3.267  -0.726  24.166  0.00  0.00    +0.095 C 
ATOM     19  C   UNL     1      -2.617  -0.238  24.311  0.00  0.00    +0.039 C 
ATOM     20  C   UNL     1      -3.893  -2.008  24.239  0.00  0.00    +0.226 C 
ATOM     21  C   UNL     1      -3.869  -2.803  24.457  0.00  0.00    +0.095 C 
ATOM     22  O   UNL     1      -4.567  -1.700  23.877  0.00  0.00    -0.275 OA
ENDBRANCH  13  14
ENDBRANCH  12  13
TORSDOF 5
ENDMDL
MODEL 7
REMARK VINA RESULT:      -7.3      3.069      4.631
REMARK  Name = 
REMARK  5 active torsions:
REMARK  status: ('A' for Active; 'I' for Inactive)
REMARK    1  A    between atoms: C_2  and  N_4
REMARK    2  A    between atoms: N_7  and  C_8
REMARK    3  A    between atoms: C_8  and  C_9
REMARK    4  A    between atoms: C_12  and  N_13
REMARK    5  A    between atoms: N_13  and  C_14
REMARK                            x       y       z     vdW  Elec       q    Type
REMARK                         _______ _______ _______ _____ _____    ______ ____
ROOT
ATOM      9  C   UNL     1      -0.850   1.793  24.410  0.00  0.00    +0.169 C 
ATOM     10  O   UNL     1      -1.378   1.324  24.836  0.00  0.00    -0.350 OA
ATOM     11  C   UNL     1      -2.070   1.759  24.952  0.00  0.00    +0.162 C 
ATOM     12  C   UNL     1      -1.968   2.498  24.598  0.00  0.00    +0.135 C 
ATOM     23  C   UNL     1      -1.215   2.519  24.263  0.00  0.00    +0.199 C 
ATOM     24  O   UNL     1      -0.884   3.154  23.853  0.00  0.00    -0.219 OA
ENDROOT
BRANCH   9   8
ATOM      8  C   UNL     1      -0.090   1.576  24.173  0.00  0.00    +0.149 C 
BRANCH   8   7
ATOM      4  N   UNL     1       0.880  -0.035  23.063  0.00  0.00    -0.189 NA
ATOM      5  C   UNL     1       0.757   0.691  23.437  0.00  0.00    +0.339 C 
ATOM      6  O   UNL     1       1.359   1.256  23.451  0.00  0.00    -0.249 OA
ATOM      7  N   UNL     1       0.033   0.850  23.798  0.00  0.00    -0.185 NA
BRANCH   4   2
ATOM      1  C   UNL     1       1.652  -0.252  21.881  0.00  0.00    +0.023 C 
ATOM      2  C   UNL     1       1.605  -0.194  22.702  0.00  0.00    +0.097 C 
ATOM      3  C   UNL     1       2.282  -0.296  23.163  0.00  0.00    +0.023 C 
ENDBRANCH   4   2
ENDBRANCH   8   7
ENDBRANCH   9   8
BRANCH  12  13
ATOM     13  N   UNL     1      -2.523   3.107  24.582  0.00  0.00    -0.216 NA
BRANCH  13  14
ATOM     14  C   UNL     1      -3.297   2.967  24.831  0.00  0.00    +0.076 C 
ATOM     15  C   UNL     1      -3.815   2.541  24.351  0.00  0.00    +0.039 C 
ATOM     16  C   UNL     1      -4.589   2.401  24.601  0.00  0.00    +0.095 C 
ATOM     17  N   UNL     1      -4.845   2.688  25.331  0.00  0.00    -0.279 N 
ATOM     18  C   UNL     1      -4.327   3.114  25.811  0.00  0.00    +0.095 C 
ATOM     19  C   UNL     1      -3.553   3.254  25.561  0.00  0.00    +0.039 C 
ATOM     20  C   UNL     1      -5.619   2.548  25.580  0.00  0.00    +0.226 C 
ATOM     21  C   UNL     1      -6.136   2.122  25.100  0.00  0.00    +0.095 C 
ATOM     22  O   UNL     1      -5.875   2.835  26.310  0.00  0.00    -0.275 OA
ENDBRANCH  13  14
ENDBRANCH  12  13
TORSDOF 5
ENDMDL
MODEL 8
REMARK VINA RESULT:      -6.3     17.408     18.621
REMARK  Name = 
REMARK  5 active torsions:
REMARK  status: ('A' for Active; 'I' for Inactive)
REMARK    1  A    between atoms: C_2  and  N_4
REMARK    2  A    between atoms: N_7  and  C_8
REMARK    3  A    between atoms: C_8  and  C_9
REMARK    4  A    between atoms: C_12  and  N_13
REMARK    5  A    between atoms: N_13  and  C_14
REMARK                            x       y       z     vdW  Elec       q    Type
REMARK                         _______ _______ _______ _____ _____    ______ ____
ROOT
ATOM      9  C   UNL     1      -6.012  -8.812   9.261  0.00  0.00    +0.169 C 
ATOM     10  O   UNL     1      -5.692  -8.405   9.903  0.00  0.00    -0.350 OA
ATOM     11  C   UNL     1      -4.903  -8.633   9.983  0.00  0.00    +0.162 C 
ATOM     12  C   UNL     1      -4.736  -9.181   9.389  0.00  0.00    +0.135 C 
ATOM     23  C   UNL     1      -5.421  -9.293   8.943  0.00  0.00    +0.199 C 
ATOM     24  O   UNL     1      -5.500  -9.796   8.294  0.00  0.00    -0.219 OA
ENDROOT
BRANCH   9   8
ATOM      8  C   UNL     1      -6.787  -8.752   8.984  0.00  0.00    +0.149 C 
BRANCH   8   7
ATOM      4  N   UNL     1      -8.483  -7.384   9.119  0.00  0.00    -0.189 NA
ATOM      5  C   UNL     1      -8.019  -8.032   8.905  0.00  0.00    +0.339 C 
ATOM      6  O   UNL     1      -8.322  -8.606   8.396  0.00  0.00    -0.249 OA
ATOM      7  N   UNL     1      -7.252  -8.104   9.199  0.00  0.00    -0.185 NA
BRANCH   4   2
ATOM      1  C   UNL     1      -9.870  -7.716   9.189  0.00  0.00    +0.023 C 
ATOM      2  C   UNL     1      -9.251  -7.312   8.825  0.00  0.00    +0.097 C 
ATOM      3  C   UNL     1      -9.398  -6.836   8.167  0.00  0.00    +0.023 C 
ENDBRANCH   4   2
ENDBRANCH   8   7
ENDBRANCH   9   8
BRANCH  12  13
ATOM     13  N   UNL     1      -4.010  -9.553   9.265  0.00  0.00    -0.216 NA
BRANCH  13  14
ATOM     14  C   UNL     1      -3.503  -9.693   9.901  0.00  0.00    +0.076 C 
ATOM     15  C   UNL     1      -3.604 -10.365  10.370  0.00  0.00    +0.039 C 
ATOM     16  C   UNL     1      -3.097 -10.503  11.005  0.00  0.00    +0.095 C 
ATOM     17  N   UNL     1      -2.489  -9.971  11.172  0.00  0.00    -0.279 N 
ATOM     18  C   UNL     1      -2.389  -9.300  10.704  0.00  0.00    +0.095 C 
ATOM     19  C   UNL     1      -2.896  -9.160  10.068  0.00  0.00    +0.039 C 
ATOM     20  C   UNL     1      -1.982 -10.110  11.808  0.00  0.00    +0.226 C 
ATOM     21  C   UNL     1      -2.083 -10.781  12.277  0.00  0.00    +0.095 C 
ATOM     22  O   UNL     1      -1.375  -9.578  11.975  0.00  0.00    -0.275 OA
ENDBRANCH  13  14
ENDBRANCH  12  13
TORSDOF 5
ENDMDL
MODEL 9
REMARK VINA RESULT:      -5.9     13.937     16.178
REMARK  Name = 
REMARK  5 active torsions:
REMARK  status: ('A' for Active; 'I' for Inactive)
REMARK    1  A    between atoms: C_2  and  N_4
REMARK    2  A    between atoms: N_7  and  C_8
REMARK    3  A    between atoms: C_8  and  C_9
REMARK    4  A    between atoms: C_12  and  N_13
REMARK    5  A    between atoms: N_13  and  C_14
REMARK                            x       y       z     vdW  Elec       q    Type
REMARK                         _______ _______ _______ _____ _____    ______ ____
ROOT
ATOM      9  C   UNL     1      -4.900 -10.232  13.246  0.00  0.00    +0.169 C 
ATOM     10  O   UNL     1      -5.687  -9.993  13.299  0.00  0.00    -0.350 OA
ATOM     11  C   UNL     1      -5.919 -10.048  14.089  0.00  0.00    +0.162 C 
ATOM     12  C   UNL     1      -5.274 -10.323  14.524  0.00  0.00    +0.135 C 
ATOM     23  C   UNL     1      -4.644 -10.436  14.004  0.00  0.00    +0.199 C 
ATOM     24  O   UNL     1      -3.891 -10.707  14.206  0.00  0.00    -0.219 OA
ENDROOT
BRANCH   9   8
ATOM      8  C   UNL     1      -4.446 -10.263  12.558  0.00  0.00    +0.149 C 
BRANCH   8   7
ATOM      4  N   UNL     1      -4.518  -9.532  10.502  0.00  0.00    -0.189 NA
ATOM      5  C   UNL     1      -4.251  -9.906  11.188  0.00  0.00    +0.339 C 
ATOM      6  O   UNL     1      -3.523 -10.293  11.190  0.00  0.00    -0.249 OA
ATOM      7  N   UNL     1      -4.713  -9.890  11.871  0.00  0.00    -0.185 NA
BRANCH   4   2
ATOM      1  C   UNL     1      -3.496  -8.956   9.687  0.00  0.00    +0.023 C 
ATOM      2  C   UNL     1      -4.056  -9.548   9.818  0.00  0.00    +0.097 C 
ATOM      3  C   UNL     1      -4.154 -10.154   9.267  0.00  0.00    +0.023 C 
ENDBRANCH   4   2
ENDBRANCH   8   7
ENDBRANCH   9   8
BRANCH  12  13
ATOM     13  N   UNL     1      -5.262 -10.459  15.337  0.00  0.00    -0.216 NA
BRANCH  13  14
ATOM     14  C   UNL     1      -5.910 -10.244  15.802  0.00  0.00    +0.076 C 
ATOM     15  C   UNL     1      -6.551 -10.759  15.879  0.00  0.00    +0.039 C 
ATOM     16  C   UNL     1      -7.198 -10.544  16.343  0.00  0.00    +0.095 C 
ATOM     17  N   UNL     1      -7.205  -9.815  16.729  0.00  0.00    -0.279 N 
ATOM     18  C   UNL     1      -6.565  -9.301  16.652  0.00  0.00    +0.095 C 
ATOM     19  C   UNL     1      -5.917  -9.516  16.188  0.00  0.00    +0.039 C 
ATOM     20  C   UNL     1      -7.853  -9.601  17.194  0.00  0.00    +0.226 C 
ATOM     21  C   UNL     1      -8.493 -10.115  17.271  0.00  0.00    +0.095 C 
ATOM     22  O   UNL     1      -7.860  -8.872  17.579  0.00  0.00    -0.275 OA
ENDBRANCH  13  14
ENDBRANCH  12  13
TORSDOF 5
ENDMDL
MODEL 10
REMARK VINA RESULT:      -5.8     17.711     18.875
REMARK  Name = 
REMARK  5 active torsions:
REMARK  status: ('A' for Active; 'I' for Inactive)
REMARK    1  A    between atoms: C_2  and  N_4
REMARK    2  A    between atoms: N_7  and  C_8
REMARK    3  A    between atoms: C_8  and  C_9
REMARK    4  A    between atoms: C_12  and  N_13
REMARK    5  A    between atoms: N_13  and  C_14
REMARK                            x       y       z     vdW  Elec       q    Type
REMARK                         _______ _______ _______ _____ _____    ______ ____
ROOT
ATOM      9  C   UNL     1      -5.642  -8.837   9.302  0.00  0.00    +0.169 C 
ATOM     10  O   UNL     1      -5.870  -8.142   9.683  0.00  0.00    -0.350 OA
ATOM     11  C   UNL     1      -6.572  -7.880   9.339  0.00  0.00    +0.162 C 
ATOM     12  C   UNL     1      -6.779  -8.414   8.744  0.00  0.00    +0.135 C 
ATOM     23  C   UNL     1      -6.204  -9.005   8.721  0.00  0.00    +0.199 C 
ATOM     24  O   UNL     1      -6.194  -9.651   8.208  0.00  0.00    -0.219 OA
ENDROOT
BRANCH   9   8
ATOM      8  C   UNL     1      -4.971  -9.287   9.471  0.00  0.00    +0.149 C 
BRANCH   8   7
ATOM      4  N   UNL     1      -3.528  -9.552  11.087  0.00  0.00    -0.189 NA
ATOM      5  C   UNL     1      -3.905  -9.632  10.357  0.00  0.00    +0.339 C 
ATOM      6  O   UNL     1      -3.593 -10.138   9.785  0.00  0.00    -0.249 OA
ATOM      7  N   UNL     1      -4.594  -9.206  10.201  0.00  0.00    -0.185 NA
BRANCH   4   2
ATOM      1  C   UNL     1      -2.888 -10.740  11.555  0.00  0.00    +0.023 C 
ATOM      2  C   UNL     1      -2.839  -9.977  11.244  0.00  0.00    +0.097 C 
ATOM      3  C   UNL     1      -2.102  -9.641  11.090  0.00  0.00    +0.023 C 
ENDBRANCH   4   2
ENDBRANCH   8   7
ENDBRANCH   9   8
BRANCH  12  13
ATOM     13  N   UNL     1      -7.443  -8.364   8.259  0.00  0.00    -0.216 NA
BRANCH  13  14
ATOM     14  C   UNL     1      -8.013  -7.783   8.397  0.00  0.00    +0.076 C 
ATOM     15  C   UNL     1      -7.887  -7.010   8.135  0.00  0.00    +0.039 C 
ATOM     16  C   UNL     1      -8.458  -6.430   8.274  0.00  0.00    +0.095 C 
ATOM     17  N   UNL     1      -9.152  -6.622   8.674  0.00  0.00    -0.279 N 
ATOM     18  C   UNL     1      -9.278  -7.394   8.936  0.00  0.00    +0.095 C 
ATOM     19  C   UNL     1      -8.708  -7.975   8.798  0.00  0.00    +0.039 C 
ATOM     20  C   UNL     1      -9.722  -6.042   8.813  0.00  0.00    +0.226 C 
ATOM     21  C   UNL     1      -9.597  -5.270   8.551  0.00  0.00    +0.095 C 
ATOM     22  O   UNL     1     -10.417  -6.234   9.213  0.00  0.00    -0.275 OA
ENDBRANCH  13  14
ENDBRANCH  12  13
TORSDOF 5
ENDMDL
