REMARK  Name = 
REMARK  3 active torsions:
REMARK  status: ('A' for Active; 'I' for Inactive)
REMARK    1  A    between atoms: C_4  and  C_15
REMARK    2  A    between atoms: C_5  and  N_6
REMARK    3  A    between atoms: C_7  and  C_9
REMARK                            x       y       z     vdW  Elec       q    Type
REMARK                         _______ _______ _______ _____ _____    ______ ____
ROOT
ATOM      1  O   UNL     1       3.936   2.998   0.000  0.00  0.00    -0.220 OA
ATOM      2  C   UNL     1       4.421   2.331   0.000  0.00  0.00    +0.184 C 
ATOM      3  C   UNL     1       5.246   2.331   0.000  0.00  0.00    +0.042 C 
ATOM      4  C   UNL     1       5.501   1.546   0.000  0.00  0.00    +0.049 C 
ATOM      5  C   UNL     1       4.833   1.062   0.000  0.00  0.00    +0.132 C 
ATOM     13  C   UNL     1       4.166   1.546   0.000  0.00  0.00    +0.202 C 
ATOM     14  O   UNL     1       3.381   1.292   0.000  0.00  0.00    -0.219 OA
ENDROOT
BRANCH   4  15
ATOM     15  C   UNL     1       6.286   1.292   0.000  0.00  0.00    -0.002 A 
ATOM     16  C   UNL     1       6.899   1.844   0.000  0.00  0.00    -0.001 A 
ATOM     17  C   UNL     1       7.683   1.589   0.000  0.00  0.00    +0.020 A 
ATOM     18  C   UNL     1       7.855   0.782   0.000  0.00  0.00    +0.099 A 
ATOM     19  N   UNL     1       7.242   0.230   0.000  0.00  0.00    -0.243 NA
ATOM     20  C   UNL     1       6.457   0.485   0.000  0.00  0.00    +0.095 A 
ENDBRANCH   4  15
BRANCH   5   6
ATOM      6  N   UNL     1       4.833   0.237   0.000  0.00  0.00    -0.204 NA
ATOM      7  C   UNL     1       4.119  -0.176   0.000  0.00  0.00    +0.241 C 
ATOM      8  O   UNL     1       3.405   0.237   0.000  0.00  0.00    -0.273 OA
BRANCH   7   9
ATOM      9  C   UNL     1       4.119  -1.001   0.000  0.00  0.00    +0.078 C 
ATOM     10  C   UNL     1       4.702  -1.584   0.000  0.00  0.00    +0.009 C 
ATOM     11  C   UNL     1       4.119  -2.168   0.000  0.00  0.00    +0.001 C 
ATOM     12  C   UNL     1       3.536  -1.584   0.000  0.00  0.00    +0.009 C 
ENDBRANCH   7   9
ENDBRANCH   5   6
TORSDOF 3
