MODEL 1
REMARK VINA RESULT:      -9.3      0.000      0.000
REMARK  Name = 
REMARK  9 active torsions:
REMARK  status: ('A' for Active; 'I' for Inactive)
REMARK    1  A    between atoms: C_2  and  O_3
REMARK    2  A    between atoms: O_3  and  C_4
REMARK    3  A    between atoms: C_4  and  C_6
REMARK    4  A    between atoms: C_10  and  N_11
REMARK    5  A    between atoms: C_17  and  C_18
REMARK    6  A    between atoms: C_18  and  C_19
REMARK    7  A    between atoms: N_21  and  C_22
REMARK    8  A    between atoms: C_22  and  C_23
REMARK    9  A    between atoms: C_33  and  C_34
REMARK                            x       y       z     vdW  Elec       q    Type
REMARK                         _______ _______ _______ _____ _____    ______ ____
ROOT
ATOM     11  N   UNL     1       1.470  -0.059  23.128  0.00  0.00    -0.162 NA
ATOM     12  C   UNL     1       1.023   0.600  23.339  0.00  0.00    +0.327 C 
ATOM     13  O   UNL     1       1.288   1.357  23.144  0.00  0.00    -0.250 OA
ATOM     14  N   UNL     1       0.311   0.504  23.745  0.00  0.00    -0.263 N 
ATOM     15  C   UNL     1      -0.137   1.164  23.957  0.00  0.00    +0.095 C 
ATOM     16  C   UNL     1      -0.848   1.067  24.363  0.00  0.00    +0.022 C 
ATOM     17  C   UNL     1      -1.113   0.311  24.557  0.00  0.00    +0.012 C 
ATOM     33  C   UNL     1      -0.666  -0.349  24.346  0.00  0.00    +0.020 C 
ATOM     36  C   UNL     1       0.046  -0.253  23.940  0.00  0.00    +0.095 C 
ENDROOT
BRANCH  11  10
ATOM      6  C   UNL     1       3.591   0.274  22.734  0.00  0.00    +0.077 A 
ATOM      7  C   UNL     1       3.604   0.230  21.910  0.00  0.00    +0.007 A 
ATOM      8  C   UNL     1       2.908   0.090  21.493  0.00  0.00    +0.002 A 
ATOM      9  C   UNL     1       2.196  -0.007  21.899  0.00  0.00    +0.017 A 
ATOM     10  C   UNL     1       2.182   0.037  22.722  0.00  0.00    +0.075 A 
ATOM     37  C   UNL     1       2.879   0.177  23.140  0.00  0.00    +0.023 A 
BRANCH   6   4
ATOM      4  C   UNL     1       4.287   0.414  23.152  0.00  0.00    +0.341 C 
ATOM      5  O   UNL     1       4.550   1.187  23.270  0.00  0.00    -0.245 OA
BRANCH   4   3
ATOM      3  O   UNL     1       4.723  -0.220  23.452  0.00  0.00    -0.445 OA
BRANCH   3   2
ATOM      1  C   UNL     1       5.791  -0.706  24.268  0.00  0.00    +0.051 C 
ATOM      2  C   UNL     1       5.400  -0.078  23.902  0.00  0.00    +0.209 C 
ENDBRANCH   3   2
ENDBRANCH   4   3
ENDBRANCH   6   4
ENDBRANCH  11  10
BRANCH  33  34
ATOM     34  C   UNL     1      -0.930  -1.106  24.540  0.00  0.00    +0.002 C 
ATOM     35  C   UNL     1      -0.410  -1.652  24.873  0.00  0.00    +0.000 C 
ENDBRANCH  33  34
BRANCH  17  18
ATOM     18  C   UNL     1      -1.824   0.214  24.963  0.00  0.00    +0.087 C 
BRANCH  18  19
ATOM     19  C   UNL     1      -2.243   0.875  25.225  0.00  0.00    +0.242 C 
ATOM     20  O   UNL     1      -1.877   1.426  25.719  0.00  0.00    -0.273 OA
ATOM     21  N   UNL     1      -3.026   0.985  24.994  0.00  0.00    -0.201 NA
BRANCH  21  22
ATOM     22  C   UNL     1      -3.445   1.646  25.257  0.00  0.00    +0.141 C 
BRANCH  22  23
ATOM     23  C   UNL     1      -4.264   1.679  25.165  0.00  0.00    -0.001 A 
ATOM     24  C   UNL     1      -4.684   0.998  24.964  0.00  0.00    -0.003 A 
ATOM     25  C   UNL     1      -5.504   1.031  24.872  0.00  0.00    -0.000 A 
ATOM     26  C   UNL     1      -5.903   1.745  24.982  0.00  0.00    -0.000 A 
ATOM     27  C   UNL     1      -5.483   2.426  25.183  0.00  0.00    -0.000 A 
ATOM     28  C   UNL     1      -4.663   2.393  25.275  0.00  0.00    -0.002 A 
ATOM     29  C   UNL     1      -4.244   3.074  25.477  0.00  0.00    -0.000 A 
ATOM     30  C   UNL     1      -4.642   3.787  25.586  0.00  0.00    -0.000 A 
ATOM     31  C   UNL     1      -5.463   3.819  25.495  0.00  0.00    -0.000 A 
ATOM     32  C   UNL     1      -5.882   3.139  25.293  0.00  0.00    -0.000 A 
ENDBRANCH  22  23
ENDBRANCH  21  22
ENDBRANCH  18  19
ENDBRANCH  17  18
TORSDOF 9
ENDMDL
MODEL 2
REMARK VINA RESULT:      -9.2      3.735      5.549
REMARK  Name = 
REMARK  9 active torsions:
REMARK  status: ('A' for Active; 'I' for Inactive)
REMARK    1  A    between atoms: C_2  and  O_3
REMARK    2  A    between atoms: O_3  and  C_4
REMARK    3  A    between atoms: C_4  and  C_6
REMARK    4  A    between atoms: C_10  and  N_11
REMARK    5  A    between atoms: C_17  and  C_18
REMARK    6  A    between atoms: C_18  and  C_19
REMARK    7  A    between atoms: N_21  and  C_22
REMARK    8  A    between atoms: C_22  and  C_23
REMARK    9  A    between atoms: C_33  and  C_34
REMARK                            x       y       z     vdW  Elec       q    Type
REMARK                         _______ _______ _______ _____ _____    ______ ____
ROOT
ATOM     11  N   UNL     1      -3.912  -0.384  24.091  0.00  0.00    -0.162 NA
ATOM     12  C   UNL     1      -4.182   0.005  24.767  0.00  0.00    +0.327 C 
ATOM     13  O   UNL     1      -4.361  -0.426  25.446  0.00  0.00    -0.250 OA
ATOM     14  N   UNL     1      -4.272   0.825  24.762  0.00  0.00    -0.263 N 
ATOM     15  C   UNL     1      -4.541   1.215  25.438  0.00  0.00    +0.095 C 
ATOM     16  C   UNL     1      -4.632   2.035  25.433  0.00  0.00    +0.022 C 
ATOM     17  C   UNL     1      -4.452   2.465  24.754  0.00  0.00    +0.012 C 
ATOM     33  C   UNL     1      -4.183   2.077  24.078  0.00  0.00    +0.020 C 
ATOM     36  C   UNL     1      -4.092   1.257  24.083  0.00  0.00    +0.095 C 
ENDROOT
BRANCH  11  10
ATOM      6  C   UNL     1      -2.993  -2.357  24.259  0.00  0.00    +0.077 A 
ATOM      7  C   UNL     1      -3.641  -2.843  24.104  0.00  0.00    +0.007 A 
ATOM      8  C   UNL     1      -4.378  -2.511  23.945  0.00  0.00    +0.002 A 
ATOM      9  C   UNL     1      -4.469  -1.691  23.940  0.00  0.00    +0.017 A 
ATOM     10  C   UNL     1      -3.822  -1.204  24.096  0.00  0.00    +0.075 A 
ATOM     37  C   UNL     1      -3.083  -1.537  24.255  0.00  0.00    +0.023 A 
BRANCH   6   4
ATOM      4  C   UNL     1      -2.256  -2.689  24.419  0.00  0.00    +0.341 C 
ATOM      5  O   UNL     1      -2.022  -3.381  24.034  0.00  0.00    -0.245 OA
BRANCH   4   3
ATOM      3  O   UNL     1      -1.750  -2.330  24.964  0.00  0.00    -0.445 OA
BRANCH   3   2
ATOM      1  C   UNL     1      -0.416  -1.959  25.318  0.00  0.00    +0.051 C 
ATOM      2  C   UNL     1      -0.936  -2.461  24.920  0.00  0.00    +0.209 C 
ENDBRANCH   3   2
ENDBRANCH   4   3
ENDBRANCH   6   4
ENDBRANCH  11  10
BRANCH  33  34
ATOM     34  C   UNL     1      -4.003   2.508  23.398  0.00  0.00    +0.002 C 
ATOM     35  C   UNL     1      -3.506   2.186  22.825  0.00  0.00    +0.000 C 
ENDBRANCH  33  34
BRANCH  17  18
ATOM     18  C   UNL     1      -4.543   3.285  24.749  0.00  0.00    +0.087 C 
BRANCH  18  19
ATOM     19  C   UNL     1      -4.085   3.754  25.251  0.00  0.00    +0.242 C 
ATOM     20  O   UNL     1      -4.433   4.119  25.905  0.00  0.00    -0.273 OA
ATOM     21  N   UNL     1      -3.282   3.857  25.100  0.00  0.00    -0.201 NA
BRANCH  21  22
ATOM     22  C   UNL     1      -2.824   4.326  25.603  0.00  0.00    +0.141 C 
BRANCH  22  23
ATOM     23  C   UNL     1      -2.066   4.557  25.375  0.00  0.00    -0.001 A 
ATOM     24  C   UNL     1      -1.952   5.284  25.000  0.00  0.00    -0.003 A 
ATOM     25  C   UNL     1      -1.192   5.515  24.771  0.00  0.00    -0.000 A 
ATOM     26  C   UNL     1      -0.549   5.020  24.919  0.00  0.00    -0.000 A 
ATOM     27  C   UNL     1      -0.663   4.294  25.294  0.00  0.00    -0.000 A 
ATOM     28  C   UNL     1      -1.423   4.062  25.522  0.00  0.00    -0.002 A 
ATOM     29  C   UNL     1      -1.537   3.337  25.897  0.00  0.00    -0.000 A 
ATOM     30  C   UNL     1      -0.894   2.842  26.044  0.00  0.00    -0.000 A 
ATOM     31  C   UNL     1      -0.135   3.074  25.815  0.00  0.00    -0.000 A 
ATOM     32  C   UNL     1      -0.020   3.799  25.441  0.00  0.00    -0.000 A 
ENDBRANCH  22  23
ENDBRANCH  21  22
ENDBRANCH  18  19
ENDBRANCH  17  18
TORSDOF 9
ENDMDL
MODEL 3
REMARK VINA RESULT:      -8.4      1.427      7.542
REMARK  Name = 
REMARK  9 active torsions:
REMARK  status: ('A' for Active; 'I' for Inactive)
REMARK    1  A    between atoms: C_2  and  O_3
REMARK    2  A    between atoms: O_3  and  C_4
REMARK    3  A    between atoms: C_4  and  C_6
REMARK    4  A    between atoms: C_10  and  N_11
REMARK    5  A    between atoms: C_17  and  C_18
REMARK    6  A    between atoms: C_18  and  C_19
REMARK    7  A    between atoms: N_21  and  C_22
REMARK    8  A    between atoms: C_22  and  C_23
REMARK    9  A    between atoms: C_33  and  C_34
REMARK                            x       y       z     vdW  Elec       q    Type
REMARK                         _______ _______ _______ _____ _____    ______ ____
ROOT
ATOM     11  N   UNL     1      -1.587   2.028  24.968  0.00  0.00    -0.162 NA
ATOM     12  C   UNL     1      -0.958   2.159  24.451  0.00  0.00    +0.327 C 
ATOM     13  O   UNL     1      -0.761   2.928  24.229  0.00  0.00    -0.250 OA
ATOM     14  N   UNL     1      -0.526   1.520  24.157  0.00  0.00    -0.263 N 
ATOM     15  C   UNL     1       0.103   1.650  23.640  0.00  0.00    +0.095 C 
ATOM     16  C   UNL     1       0.535   1.012  23.346  0.00  0.00    +0.022 C 
ATOM     17  C   UNL     1       0.338   0.243  23.569  0.00  0.00    +0.012 C 
ATOM     33  C   UNL     1      -0.291   0.112  24.086  0.00  0.00    +0.020 C 
ATOM     36  C   UNL     1      -0.723   0.751  24.380  0.00  0.00    +0.095 C 
ENDROOT
BRANCH  11  10
ATOM      6  C   UNL     1      -3.257   3.368  25.392  0.00  0.00    +0.077 A 
ATOM      7  C   UNL     1      -2.882   3.943  25.850  0.00  0.00    +0.007 A 
ATOM      8  C   UNL     1      -2.077   3.880  26.014  0.00  0.00    +0.002 A 
ATOM      9  C   UNL     1      -1.645   3.241  25.720  0.00  0.00    +0.017 A 
ATOM     10  C   UNL     1      -2.019   2.667  25.262  0.00  0.00    +0.075 A 
ATOM     37  C   UNL     1      -2.825   2.730  25.098  0.00  0.00    +0.023 A 
BRANCH   6   4
ATOM      4  C   UNL     1      -4.063   3.431  25.228  0.00  0.00    +0.341 C 
ATOM      5  O   UNL     1      -4.320   3.890  24.592  0.00  0.00    -0.245 OA
BRANCH   4   3
ATOM      3  O   UNL     1      -4.612   3.035  25.700  0.00  0.00    -0.445 OA
BRANCH   3   2
ATOM      1  C   UNL     1      -5.902   2.432  25.823  0.00  0.00    +0.051 C 
ATOM      2  C   UNL     1      -5.396   2.968  25.452  0.00  0.00    +0.209 C 
ENDBRANCH   3   2
ENDBRANCH   4   3
ENDBRANCH   6   4
ENDBRANCH  11  10
BRANCH  33  34
ATOM     34  C   UNL     1      -0.489  -0.657  24.309  0.00  0.00    +0.002 C 
ATOM     35  C   UNL     1      -1.108  -0.787  24.838  0.00  0.00    +0.000 C 
ENDBRANCH  33  34
BRANCH  17  18
ATOM     18  C   UNL     1       0.770  -0.395  23.275  0.00  0.00    +0.087 C 
BRANCH  18  19
ATOM     19  C   UNL     1       1.501  -0.268  22.915  0.00  0.00    +0.242 C 
ATOM     20  O   UNL     1       1.536   0.057  22.157  0.00  0.00    -0.273 OA
ATOM     21  N   UNL     1       2.196  -0.466  23.312  0.00  0.00    -0.201 NA
BRANCH  21  22
ATOM     22  C   UNL     1       2.928  -0.339  22.951  0.00  0.00    +0.141 C 
BRANCH  22  23
ATOM     23  C   UNL     1       3.615  -0.637  23.296  0.00  0.00    -0.001 A 
ATOM     24  C   UNL     1       3.632  -1.413  23.576  0.00  0.00    -0.003 A 
ATOM     25  C   UNL     1       4.320  -1.712  23.921  0.00  0.00    -0.000 A 
ATOM     26  C   UNL     1       4.990  -1.235  23.986  0.00  0.00    -0.000 A 
ATOM     27  C   UNL     1       4.973  -0.458  23.706  0.00  0.00    -0.000 A 
ATOM     28  C   UNL     1       4.285  -0.160  23.360  0.00  0.00    -0.002 A 
ATOM     29  C   UNL     1       4.267   0.616  23.081  0.00  0.00    -0.000 A 
ATOM     30  C   UNL     1       4.936   1.093  23.145  0.00  0.00    -0.000 A 
ATOM     31  C   UNL     1       5.625   0.794  23.491  0.00  0.00    -0.000 A 
ATOM     32  C   UNL     1       5.642   0.019  23.770  0.00  0.00    -0.000 A 
ENDBRANCH  22  23
ENDBRANCH  21  22
ENDBRANCH  18  19
ENDBRANCH  17  18
TORSDOF 9
ENDMDL
MODEL 4
REMARK VINA RESULT:      -8.3      1.820      2.801
REMARK  Name = 
REMARK  9 active torsions:
REMARK  status: ('A' for Active; 'I' for Inactive)
REMARK    1  A    between atoms: C_2  and  O_3
REMARK    2  A    between atoms: O_3  and  C_4
REMARK    3  A    between atoms: C_4  and  C_6
REMARK    4  A    between atoms: C_10  and  N_11
REMARK    5  A    between atoms: C_17  and  C_18
REMARK    6  A    between atoms: C_18  and  C_19
REMARK    7  A    between atoms: N_21  and  C_22
REMARK    8  A    between atoms: C_22  and  C_23
REMARK    9  A    between atoms: C_33  and  C_34
REMARK                            x       y       z     vdW  Elec       q    Type
REMARK                         _______ _______ _______ _____ _____    ______ ____
ROOT
ATOM     11  N   UNL     1       2.217   1.032  23.314  0.00  0.00    -0.162 NA
ATOM     12  C   UNL     1       1.603   0.481  23.313  0.00  0.00    +0.327 C 
ATOM     13  O   UNL     1       1.705  -0.248  22.942  0.00  0.00    -0.250 OA
ATOM     14  N   UNL     1       0.888   0.659  23.684  0.00  0.00    -0.263 N 
ATOM     15  C   UNL     1       0.274   0.108  23.684  0.00  0.00    +0.095 C 
ATOM     16  C   UNL     1      -0.441   0.286  24.054  0.00  0.00    +0.022 C 
ATOM     17  C   UNL     1      -0.543   1.015  24.425  0.00  0.00    +0.012 C 
ATOM     33  C   UNL     1       0.070   1.566  24.426  0.00  0.00    +0.020 C 
ATOM     36  C   UNL     1       0.786   1.388  24.056  0.00  0.00    +0.095 C 
ENDROOT
BRANCH  11  10
ATOM      6  C   UNL     1       4.321   0.528  23.026  0.00  0.00    +0.077 A 
ATOM      7  C   UNL     1       4.362   0.498  22.202  0.00  0.00    +0.007 A 
ATOM      8  C   UNL     1       3.689   0.646  21.750  0.00  0.00    +0.002 A 
ATOM      9  C   UNL     1       2.973   0.824  22.121  0.00  0.00    +0.017 A 
ATOM     10  C   UNL     1       2.932   0.854  22.943  0.00  0.00    +0.075 A 
ATOM     37  C   UNL     1       3.606   0.706  23.397  0.00  0.00    +0.023 A 
BRANCH   6   4
ATOM      4  C   UNL     1       4.994   0.380  23.479  0.00  0.00    +0.341 C 
ATOM      5  O   UNL     1       5.447   1.008  23.762  0.00  0.00    -0.245 OA
BRANCH   4   3
ATOM      3  O   UNL     1       5.214  -0.398  23.649  0.00  0.00    -0.445 OA
BRANCH   3   2
ATOM      1  C   UNL     1       5.939  -1.325  24.458  0.00  0.00    +0.051 C 
ATOM      2  C   UNL     1       5.776  -0.548  24.233  0.00  0.00    +0.209 C 
ENDBRANCH   3   2
ENDBRANCH   4   3
ENDBRANCH   6   4
ENDBRANCH  11  10
BRANCH  33  34
ATOM     34  C   UNL     1      -0.031   2.296  24.798  0.00  0.00    +0.002 C 
ATOM     35  C   UNL     1       0.189   2.990  24.411  0.00  0.00    +0.000 C 
ENDBRANCH  33  34
BRANCH  17  18
ATOM     18  C   UNL     1      -1.258   1.193  24.796  0.00  0.00    +0.087 C 
BRANCH  18  19
ATOM     19  C   UNL     1      -1.701   0.593  25.149  0.00  0.00    +0.242 C 
ATOM     20  O   UNL     1      -1.471   0.287  25.881  0.00  0.00    -0.273 OA
ATOM     21  N   UNL     1      -2.372   0.300  24.772  0.00  0.00    -0.201 NA
BRANCH  21  22
ATOM     22  C   UNL     1      -2.815  -0.301  25.125  0.00  0.00    +0.141 C 
BRANCH  22  23
ATOM     23  C   UNL     1      -3.459  -0.628  24.726  0.00  0.00    -0.001 A 
ATOM     24  C   UNL     1      -4.055  -0.138  24.435  0.00  0.00    -0.003 A 
ATOM     25  C   UNL     1      -4.700  -0.466  24.036  0.00  0.00    -0.000 A 
ATOM     26  C   UNL     1      -4.746  -1.283  23.928  0.00  0.00    -0.000 A 
ATOM     27  C   UNL     1      -4.149  -1.773  24.220  0.00  0.00    -0.000 A 
ATOM     28  C   UNL     1      -3.504  -1.445  24.619  0.00  0.00    -0.002 A 
ATOM     29  C   UNL     1      -2.908  -1.934  24.910  0.00  0.00    -0.000 A 
ATOM     30  C   UNL     1      -2.954  -2.750  24.803  0.00  0.00    -0.000 A 
ATOM     31  C   UNL     1      -3.599  -3.078  24.403  0.00  0.00    -0.000 A 
ATOM     32  C   UNL     1      -4.195  -2.589  24.112  0.00  0.00    -0.000 A 
ENDBRANCH  22  23
ENDBRANCH  21  22
ENDBRANCH  18  19
ENDBRANCH  17  18
TORSDOF 9
ENDMDL
MODEL 5
REMARK VINA RESULT:      -7.8      1.388      7.802
REMARK  Name = 
REMARK  9 active torsions:
REMARK  status: ('A' for Active; 'I' for Inactive)
REMARK    1  A    between atoms: C_2  and  O_3
REMARK    2  A    between atoms: O_3  and  C_4
REMARK    3  A    between atoms: C_4  and  C_6
REMARK    4  A    between atoms: C_10  and  N_11
REMARK    5  A    between atoms: C_17  and  C_18
REMARK    6  A    between atoms: C_18  and  C_19
REMARK    7  A    between atoms: N_21  and  C_22
REMARK    8  A    between atoms: C_22  and  C_23
REMARK    9  A    between atoms: C_33  and  C_34
REMARK                            x       y       z     vdW  Elec       q    Type
REMARK                         _______ _______ _______ _____ _____    ______ ____
ROOT
ATOM     11  N   UNL     1      -1.849   0.263  24.847  0.00  0.00    -0.162 NA
ATOM     12  C   UNL     1      -1.362  -0.180  24.349  0.00  0.00    +0.327 C 
ATOM     13  O   UNL     1      -1.580  -0.946  24.135  0.00  0.00    -0.250 OA
ATOM     14  N   UNL     1      -0.658   0.144  24.066  0.00  0.00    -0.263 N 
ATOM     15  C   UNL     1      -0.171  -0.299  23.568  0.00  0.00    +0.095 C 
ATOM     16  C   UNL     1       0.533   0.025  23.285  0.00  0.00    +0.022 C 
ATOM     17  C   UNL     1       0.750   0.790  23.499  0.00  0.00    +0.012 C 
ATOM     33  C   UNL     1       0.264   1.233  23.996  0.00  0.00    +0.020 C 
ATOM     36  C   UNL     1      -0.440   0.910  24.280  0.00  0.00    +0.095 C 
ENDROOT
BRANCH  11  10
ATOM      6  C   UNL     1      -3.979  -0.037  25.216  0.00  0.00    +0.077 A 
ATOM      7  C   UNL     1      -3.960  -0.707  25.697  0.00  0.00    +0.007 A 
ATOM      8  C   UNL     1      -3.239  -1.054  25.894  0.00  0.00    +0.002 A 
ATOM      9  C   UNL     1      -2.535  -0.730  25.611  0.00  0.00    +0.017 A 
ATOM     10  C   UNL     1      -2.553  -0.061  25.130  0.00  0.00    +0.075 A 
ATOM     37  C   UNL     1      -3.275   0.287  24.932  0.00  0.00    +0.023 A 
BRANCH   6   4
ATOM      4  C   UNL     1      -4.700   0.310  25.018  0.00  0.00    +0.341 C 
ATOM      5  O   UNL     1      -5.169  -0.020  24.425  0.00  0.00    -0.245 OA
BRANCH   4   3
ATOM      3  O   UNL     1      -4.955   0.988  25.415  0.00  0.00    -0.445 OA
BRANCH   3   2
ATOM      1  C   UNL     1      -5.850   2.097  25.521  0.00  0.00    +0.051 C 
ATOM      2  C   UNL     1      -5.595   1.420  25.124  0.00  0.00    +0.209 C 
ENDBRANCH   3   2
ENDBRANCH   4   3
ENDBRANCH   6   4
ENDBRANCH  11  10
BRANCH  33  34
ATOM     34  C   UNL     1       0.481   2.000  24.211  0.00  0.00    +0.002 C 
ATOM     35  C   UNL     1      -0.063   2.494  24.583  0.00  0.00    +0.000 C 
ENDBRANCH  33  34
BRANCH  17  18
ATOM     18  C   UNL     1       1.454   1.114  23.215  0.00  0.00    +0.087 C 
BRANCH  18  19
ATOM     19  C   UNL     1       2.047   0.620  22.923  0.00  0.00    +0.242 C 
ATOM     20  O   UNL     1       1.870   0.066  22.337  0.00  0.00    -0.273 OA
ATOM     21  N   UNL     1       2.815   0.681  23.215  0.00  0.00    -0.201 NA
BRANCH  21  22
ATOM     22  C   UNL     1       3.408   0.187  22.922  0.00  0.00    +0.141 C 
BRANCH  22  23
ATOM     23  C   UNL     1       4.185   0.273  23.185  0.00  0.00    -0.001 A 
ATOM     24  C   UNL     1       4.565   1.003  23.117  0.00  0.00    -0.003 A 
ATOM     25  C   UNL     1       5.342   1.090  23.381  0.00  0.00    -0.000 A 
ATOM     26  C   UNL     1       5.739   0.447  23.712  0.00  0.00    -0.000 A 
ATOM     27  C   UNL     1       5.360  -0.283  23.781  0.00  0.00    -0.000 A 
ATOM     28  C   UNL     1       4.582  -0.370  23.517  0.00  0.00    -0.002 A 
ATOM     29  C   UNL     1       4.203  -1.098  23.585  0.00  0.00    -0.000 A 
ATOM     30  C   UNL     1       4.599  -1.741  23.917  0.00  0.00    -0.000 A 
ATOM     31  C   UNL     1       5.377  -1.654  24.181  0.00  0.00    -0.000 A 
ATOM     32  C   UNL     1       5.756  -0.925  24.112  0.00  0.00    -0.000 A 
ENDBRANCH  22  23
ENDBRANCH  21  22
ENDBRANCH  18  19
ENDBRANCH  17  18
TORSDOF 9
ENDMDL
MODEL 6
REMARK VINA RESULT:      -7.8      1.363      1.835
REMARK  Name = 
REMARK  9 active torsions:
REMARK  status: ('A' for Active; 'I' for Inactive)
REMARK    1  A    between atoms: C_2  and  O_3
REMARK    2  A    between atoms: O_3  and  C_4
REMARK    3  A    between atoms: C_4  and  C_6
REMARK    4  A    between atoms: C_10  and  N_11
REMARK    5  A    between atoms: C_17  and  C_18
REMARK    6  A    between atoms: C_18  and  C_19
REMARK    7  A    between atoms: N_21  and  C_22
REMARK    8  A    between atoms: C_22  and  C_23
REMARK    9  A    between atoms: C_33  and  C_34
REMARK                            x       y       z     vdW  Elec       q    Type
REMARK                         _______ _______ _______ _____ _____    ______ ____
ROOT
ATOM     11  N   UNL     1       1.099   1.114  23.928  0.00  0.00    -0.162 NA
ATOM     12  C   UNL     1       0.505   1.595  23.617  0.00  0.00    +0.327 C 
ATOM     13  O   UNL     1       0.404   1.647  22.800  0.00  0.00    -0.250 OA
ATOM     14  N   UNL     1       0.014   2.025  24.122  0.00  0.00    -0.263 N 
ATOM     15  C   UNL     1      -0.579   2.506  23.810  0.00  0.00    +0.095 C 
ATOM     16  C   UNL     1      -1.070   2.935  24.315  0.00  0.00    +0.022 C 
ATOM     17  C   UNL     1      -0.968   2.884  25.132  0.00  0.00    +0.012 C 
ATOM     33  C   UNL     1      -0.375   2.403  25.444  0.00  0.00    +0.020 C 
ATOM     36  C   UNL     1       0.116   1.973  24.939  0.00  0.00    +0.095 C 
ENDROOT
BRANCH  11  10
ATOM      6  C   UNL     1       2.885   0.435  22.875  0.00  0.00    +0.077 A 
ATOM      7  C   UNL     1       2.571  -0.174  22.414  0.00  0.00    +0.007 A 
ATOM      8  C   UNL     1       1.768  -0.353  22.458  0.00  0.00    +0.002 A 
ATOM      9  C   UNL     1       1.277   0.077  22.963  0.00  0.00    +0.017 A 
ATOM     10  C   UNL     1       1.590   0.685  23.423  0.00  0.00    +0.075 A 
ATOM     37  C   UNL     1       2.394   0.864  23.380  0.00  0.00    +0.023 A 
BRANCH   6   4
ATOM      4  C   UNL     1       3.689   0.614  22.831  0.00  0.00    +0.341 C 
ATOM      5  O   UNL     1       3.955   1.195  22.309  0.00  0.00    -0.245 OA
BRANCH   4   3
ATOM      3  O   UNL     1       4.228   0.211  23.309  0.00  0.00    -0.445 OA
BRANCH   3   2
ATOM      1  C   UNL     1       5.565   0.017  23.774  0.00  0.00    +0.051 C 
ATOM      2  C   UNL     1       5.024   0.429  23.307  0.00  0.00    +0.209 C 
ENDBRANCH   3   2
ENDBRANCH   4   3
ENDBRANCH   6   4
ENDBRANCH  11  10
BRANCH  33  34
ATOM     34  C   UNL     1      -0.273   2.351  26.261  0.00  0.00    +0.002 C 
ATOM     35  C   UNL     1       0.481   2.420  26.588  0.00  0.00    +0.000 C 
ENDBRANCH  33  34
BRANCH  17  18
ATOM     18  C   UNL     1      -1.459   3.313  25.637  0.00  0.00    +0.087 C 
BRANCH  18  19
ATOM     19  C   UNL     1      -2.245   3.453  25.428  0.00  0.00    +0.242 C 
ATOM     20  O   UNL     1      -2.481   4.209  25.195  0.00  0.00    -0.273 OA
ATOM     21  N   UNL     1      -2.794   2.839  25.452  0.00  0.00    -0.201 NA
BRANCH  21  22
ATOM     22  C   UNL     1      -3.580   2.979  25.243  0.00  0.00    +0.141 C 
BRANCH  22  23
ATOM     23  C   UNL     1      -4.102   2.347  25.153  0.00  0.00    -0.001 A 
ATOM     24  C   UNL     1      -3.822   1.613  24.901  0.00  0.00    -0.003 A 
ATOM     25  C   UNL     1      -4.344   0.980  24.811  0.00  0.00    -0.000 A 
ATOM     26  C   UNL     1      -5.147   1.083  24.973  0.00  0.00    -0.000 A 
ATOM     27  C   UNL     1      -5.428   1.817  25.225  0.00  0.00    -0.000 A 
ATOM     28  C   UNL     1      -4.905   2.450  25.315  0.00  0.00    -0.002 A 
ATOM     29  C   UNL     1      -5.185   3.183  25.567  0.00  0.00    -0.000 A 
ATOM     30  C   UNL     1      -5.987   3.285  25.729  0.00  0.00    -0.000 A 
ATOM     31  C   UNL     1      -6.510   2.652  25.639  0.00  0.00    -0.000 A 
ATOM     32  C   UNL     1      -6.230   1.918  25.387  0.00  0.00    -0.000 A 
ENDBRANCH  22  23
ENDBRANCH  21  22
ENDBRANCH  18  19
ENDBRANCH  17  18
TORSDOF 9
ENDMDL
