MODEL 1
REMARK VINA RESULT:     -11.8      0.000      0.000
REMARK  Name = 
REMARK  5 active torsions:
REMARK  status: ('A' for Active; 'I' for Inactive)
REMARK    1  A    between atoms: O_2  and  C_3
REMARK    2  A    between atoms: C_6  and  C_9
REMARK    3  A    between atoms: C_15  and  N_16
REMARK    4  A    between atoms: N_16  and  C_17
REMARK    5  A    between atoms: C_17  and  C_18
REMARK                            x       y       z     vdW  Elec       q    Type
REMARK                         _______ _______ _______ _____ _____    ______ ____
ROOT
ATOM      9  C   UNL     1      -3.866   2.525  24.813  0.00  0.00    +0.044 C 
ATOM     10  C   UNL     1      -4.301   3.185  25.049  0.00  0.00    +0.041 C 
ATOM     11  C   UNL     1      -5.071   2.938  25.212  0.00  0.00    +0.184 C 
ATOM     12  O   UNL     1      -5.691   3.419  25.465  0.00  0.00    -0.220 OA
ATOM     13  C   UNL     1      -5.112   2.125  25.077  0.00  0.00    +0.198 C 
ATOM     14  O   UNL     1      -5.780   1.651  25.172  0.00  0.00    -0.219 OA
ATOM     15  C   UNL     1      -4.367   1.870  24.830  0.00  0.00    +0.110 C 
ENDROOT
BRANCH   9   6
ATOM      3  C   UNL     1      -1.476   2.512  24.167  0.00  0.00    +0.139 A 
ATOM      4  C   UNL     1      -2.061   2.436  23.589  0.00  0.00    +0.037 A 
ATOM      5  C   UNL     1      -2.857   2.440  23.804  0.00  0.00    -0.001 A 
ATOM      6  C   UNL     1      -3.069   2.521  24.597  0.00  0.00    -0.021 A 
ATOM      7  C   UNL     1      -2.485   2.597  25.175  0.00  0.00    -0.001 A 
ATOM      8  C   UNL     1      -1.689   2.592  24.960  0.00  0.00    +0.037 A 
BRANCH   3   2
ATOM      1  C   UNL     1      -0.155   1.989  24.321  0.00  0.00    +0.252 C 
ATOM      2  O   UNL     1      -0.680   2.508  23.952  0.00  0.00    -0.471 OA
ENDBRANCH   3   2
ENDBRANCH   9   6
BRANCH  15  16
ATOM     16  N   UNL     1      -4.160   1.095  24.635  0.00  0.00    -0.208 NA
BRANCH  16  17
ATOM     17  C   UNL     1      -4.335   0.478  25.154  0.00  0.00    +0.152 C 
BRANCH  17  18
ATOM     18  C   UNL     1      -4.171  -0.301  24.939  0.00  0.00    +0.138 A 
ATOM     19  N   UNL     1      -4.377  -0.661  24.226  0.00  0.00    -0.229 NA
ATOM     20  C   UNL     1      -4.105  -1.439  24.245  0.00  0.00    +0.098 A 
ATOM     21  C   UNL     1      -3.731  -1.561  24.971  0.00  0.00    +0.079 A 
ATOM     22  C   UNL     1      -3.402  -2.297  25.146  0.00  0.00    +0.019 A 
ATOM     23  C   UNL     1      -3.447  -2.911  24.598  0.00  0.00    +0.002 A 
ATOM     24  C   UNL     1      -3.821  -2.789  23.872  0.00  0.00    +0.002 A 
ATOM     25  C   UNL     1      -4.150  -2.054  23.696  0.00  0.00    +0.021 A 
ATOM     26  N   UNL     1      -3.772  -0.858  25.399  0.00  0.00    -0.312 N 
ATOM     27  C   UNL     1      -3.467  -0.733  26.155  0.00  0.00    +0.132 C 
ENDBRANCH  17  18
ENDBRANCH  16  17
ENDBRANCH  15  16
TORSDOF 5
ENDMDL
MODEL 2
REMARK VINA RESULT:     -11.4      2.118      3.601
REMARK  Name = 
REMARK  5 active torsions:
REMARK  status: ('A' for Active; 'I' for Inactive)
REMARK    1  A    between atoms: O_2  and  C_3
REMARK    2  A    between atoms: C_6  and  C_9
REMARK    3  A    between atoms: C_15  and  N_16
REMARK    4  A    between atoms: N_16  and  C_17
REMARK    5  A    between atoms: C_17  and  C_18
REMARK                            x       y       z     vdW  Elec       q    Type
REMARK                         _______ _______ _______ _____ _____    ______ ____
ROOT
ATOM      9  C   UNL     1      -2.435   3.834  25.110  0.00  0.00    +0.044 C 
ATOM     10  C   UNL     1      -2.222   4.630  25.050  0.00  0.00    +0.041 C 
ATOM     11  C   UNL     1      -1.402   4.681  25.126  0.00  0.00    +0.184 C 
ATOM     12  O   UNL     1      -0.955   5.373  25.100  0.00  0.00    -0.220 OA
ATOM     13  C   UNL     1      -1.108   3.917  25.234  0.00  0.00    +0.198 C 
ATOM     14  O   UNL     1      -0.315   3.713  25.334  0.00  0.00    -0.219 OA
ATOM     15  C   UNL     1      -1.746   3.394  25.224  0.00  0.00    +0.110 C 
ENDROOT
BRANCH   9   6
ATOM      3  C   UNL     1      -4.734   2.929  24.973  0.00  0.00    +0.139 A 
ATOM      4  C   UNL     1      -4.270   2.982  24.293  0.00  0.00    +0.037 A 
ATOM      5  C   UNL     1      -3.504   3.283  24.338  0.00  0.00    -0.001 A 
ATOM      6  C   UNL     1      -3.202   3.532  25.064  0.00  0.00    -0.021 A 
ATOM      7  C   UNL     1      -3.665   3.480  25.745  0.00  0.00    -0.001 A 
ATOM      8  C   UNL     1      -4.432   3.178  25.699  0.00  0.00    +0.037 A 
BRANCH   3   2
ATOM      1  C   UNL     1      -5.627   1.813  24.973  0.00  0.00    +0.252 C 
ATOM      2  O   UNL     1      -5.500   2.627  24.928  0.00  0.00    -0.471 OA
ENDBRANCH   3   2
ENDBRANCH   9   6
BRANCH  15  16
ATOM     16  N   UNL     1      -1.703   2.575  25.312  0.00  0.00    -0.208 NA
BRANCH  16  17
ATOM     17  C   UNL     1      -1.093   2.153  24.952  0.00  0.00    +0.152 C 
BRANCH  17  18
ATOM     18  C   UNL     1      -1.068   1.330  25.013  0.00  0.00    +0.138 A 
ATOM     19  N   UNL     1      -1.311   0.885  25.663  0.00  0.00    -0.229 NA
ATOM     20  C   UNL     1      -1.188   0.089  25.486  0.00  0.00    +0.098 A 
ATOM     21  C   UNL     1      -0.869   0.042  24.727  0.00  0.00    +0.079 A 
ATOM     22  C   UNL     1      -0.688  -0.694  24.400  0.00  0.00    +0.019 A 
ATOM     23  C   UNL     1      -0.826  -1.382  24.833  0.00  0.00    +0.002 A 
ATOM     24  C   UNL     1      -1.145  -1.336  25.592  0.00  0.00    +0.002 A 
ATOM     25  C   UNL     1      -1.326  -0.601  25.919  0.00  0.00    +0.021 A 
ATOM     26  N   UNL     1      -0.795   0.809  24.434  0.00  0.00    -0.312 N 
ATOM     27  C   UNL     1      -0.499   1.019  23.693  0.00  0.00    +0.132 C 
ENDBRANCH  17  18
ENDBRANCH  16  17
ENDBRANCH  15  16
TORSDOF 5
ENDMDL
MODEL 3
REMARK VINA RESULT:     -11.3      1.102      2.934
REMARK  Name = 
REMARK  5 active torsions:
REMARK  status: ('A' for Active; 'I' for Inactive)
REMARK    1  A    between atoms: O_2  and  C_3
REMARK    2  A    between atoms: C_6  and  C_9
REMARK    3  A    between atoms: C_15  and  N_16
REMARK    4  A    between atoms: N_16  and  C_17
REMARK    5  A    between atoms: C_17  and  C_18
REMARK                            x       y       z     vdW  Elec       q    Type
REMARK                         _______ _______ _______ _____ _____    ______ ____
ROOT
ATOM      9  C   UNL     1      -2.180   2.970  24.607  0.00  0.00    +0.044 C 
ATOM     10  C   UNL     1      -1.548   3.499  24.574  0.00  0.00    +0.041 C 
ATOM     11  C   UNL     1      -0.878   3.081  24.335  0.00  0.00    +0.184 C 
ATOM     12  O   UNL     1      -0.123   3.395  24.229  0.00  0.00    -0.220 OA
ATOM     13  C   UNL     1      -1.096   2.293  24.222  0.00  0.00    +0.198 C 
ATOM     14  O   UNL     1      -0.596   1.682  23.982  0.00  0.00    -0.219 OA
ATOM     15  C   UNL     1      -1.900   2.224  24.390  0.00  0.00    +0.110 C 
ENDROOT
BRANCH   9   6
ATOM      3  C   UNL     1      -4.507   3.520  25.248  0.00  0.00    +0.139 A 
ATOM      4  C   UNL     1      -3.932   3.416  25.831  0.00  0.00    +0.037 A 
ATOM      5  C   UNL     1      -3.157   3.233  25.617  0.00  0.00    -0.001 A 
ATOM      6  C   UNL     1      -2.956   3.153  24.821  0.00  0.00    -0.021 A 
ATOM      7  C   UNL     1      -3.530   3.257  24.238  0.00  0.00    -0.001 A 
ATOM      8  C   UNL     1      -4.306   3.441  24.452  0.00  0.00    +0.037 A 
BRANCH   3   2
ATOM      1  C   UNL     1      -5.793   3.108  25.715  0.00  0.00    +0.252 C 
ATOM      2  O   UNL     1      -5.282   3.704  25.461  0.00  0.00    -0.471 OA
ENDBRANCH   3   2
ENDBRANCH   9   6
BRANCH  15  16
ATOM     16  N   UNL     1      -2.347   1.532  24.348  0.00  0.00    -0.208 NA
BRANCH  16  17
ATOM     17  C   UNL     1      -2.042   0.825  24.644  0.00  0.00    +0.152 C 
BRANCH  17  18
ATOM     18  C   UNL     1      -2.484   0.130  24.592  0.00  0.00    +0.138 A 
ATOM     19  N   UNL     1      -3.092  -0.019  24.055  0.00  0.00    -0.229 NA
ATOM     20  C   UNL     1      -3.379  -0.778  24.199  0.00  0.00    +0.098 A 
ATOM     21  C   UNL     1      -2.949  -1.098  24.826  0.00  0.00    +0.079 A 
ATOM     22  C   UNL     1      -3.117  -1.861  25.094  0.00  0.00    +0.019 A 
ATOM     23  C   UNL     1      -3.715  -2.302  24.735  0.00  0.00    +0.002 A 
ATOM     24  C   UNL     1      -4.145  -1.981  24.109  0.00  0.00    +0.002 A 
ATOM     25  C   UNL     1      -3.977  -1.219  23.840  0.00  0.00    +0.021 A 
ATOM     26  N   UNL     1      -2.396  -0.538  25.069  0.00  0.00    -0.312 N 
ATOM     27  C   UNL     1      -1.850  -0.628  25.681  0.00  0.00    +0.132 C 
ENDBRANCH  17  18
ENDBRANCH  16  17
ENDBRANCH  15  16
TORSDOF 5
ENDMDL
MODEL 4
REMARK VINA RESULT:     -11.1      1.386      3.929
REMARK  Name = 
REMARK  5 active torsions:
REMARK  status: ('A' for Active; 'I' for Inactive)
REMARK    1  A    between atoms: O_2  and  C_3
REMARK    2  A    between atoms: C_6  and  C_9
REMARK    3  A    between atoms: C_15  and  N_16
REMARK    4  A    between atoms: N_16  and  C_17
REMARK    5  A    between atoms: C_17  and  C_18
REMARK                            x       y       z     vdW  Elec       q    Type
REMARK                         _______ _______ _______ _____ _____    ______ ____
ROOT
ATOM      9  C   UNL     1      -4.609   0.661  24.837  0.00  0.00    +0.044 C 
ATOM     10  C   UNL     1      -5.390   0.858  25.016  0.00  0.00    +0.041 C 
ATOM     11  C   UNL     1      -5.474   1.674  24.928  0.00  0.00    +0.184 C 
ATOM     12  O   UNL     1      -6.166   2.107  25.052  0.00  0.00    -0.220 OA
ATOM     13  C   UNL     1      -4.745   1.982  24.694  0.00  0.00    +0.198 C 
ATOM     14  O   UNL     1      -4.580   2.776  24.544  0.00  0.00    -0.219 OA
ATOM     15  C   UNL     1      -4.211   1.356  24.638  0.00  0.00    +0.110 C 
ENDROOT
BRANCH   9   6
ATOM      3  C   UNL     1      -3.634  -1.613  24.886  0.00  0.00    +0.139 A 
ATOM      4  C   UNL     1      -3.638  -1.151  25.569  0.00  0.00    +0.037 A 
ATOM      5  C   UNL     1      -3.963  -0.393  25.553  0.00  0.00    -0.001 A 
ATOM      6  C   UNL     1      -4.284  -0.097  24.853  0.00  0.00    -0.021 A 
ATOM      7  C   UNL     1      -4.280  -0.559  24.169  0.00  0.00    -0.001 A 
ATOM      8  C   UNL     1      -3.954  -1.317  24.186  0.00  0.00    +0.037 A 
BRANCH   3   2
ATOM      1  C   UNL     1      -2.573  -2.512  24.557  0.00  0.00    +0.252 C 
ATOM      2  O   UNL     1      -3.309  -2.371  24.902  0.00  0.00    -0.471 OA
ENDBRANCH   3   2
ENDBRANCH   9   6
BRANCH  15  16
ATOM     16  N   UNL     1      -3.417   1.415  24.420  0.00  0.00    -0.208 NA
BRANCH  16  17
ATOM     17  C   UNL     1      -2.953   2.032  24.711  0.00  0.00    +0.152 C 
BRANCH  17  18
ATOM     18  C   UNL     1      -2.132   2.004  24.633  0.00  0.00    +0.138 A 
ATOM     19  N   UNL     1      -1.713   1.571  24.071  0.00  0.00    -0.229 NA
ATOM     20  C   UNL     1      -0.909   1.704  24.195  0.00  0.00    +0.098 A 
ATOM     21  C   UNL     1      -0.831   2.220  24.834  0.00  0.00    +0.079 A 
ATOM     22  C   UNL     1      -0.081   2.453  25.086  0.00  0.00    +0.019 A 
ATOM     23  C   UNL     1       0.591   2.172  24.699  0.00  0.00    +0.002 A 
ATOM     24  C   UNL     1       0.513   1.656  24.060  0.00  0.00    +0.002 A 
ATOM     25  C   UNL     1      -0.236   1.422  23.807  0.00  0.00    +0.021 A 
ATOM     26  N   UNL     1      -1.587   2.405  25.106  0.00  0.00    -0.312 N 
ATOM     27  C   UNL     1      -1.767   2.904  25.737  0.00  0.00    +0.132 C 
ENDBRANCH  17  18
ENDBRANCH  16  17
ENDBRANCH  15  16
TORSDOF 5
ENDMDL
MODEL 5
REMARK VINA RESULT:     -10.9      1.687      2.181
REMARK  Name = 
REMARK  5 active torsions:
REMARK  status: ('A' for Active; 'I' for Inactive)
REMARK    1  A    between atoms: O_2  and  C_3
REMARK    2  A    between atoms: C_6  and  C_9
REMARK    3  A    between atoms: C_15  and  N_16
REMARK    4  A    between atoms: N_16  and  C_17
REMARK    5  A    between atoms: C_17  and  C_18
REMARK                            x       y       z     vdW  Elec       q    Type
REMARK                         _______ _______ _______ _____ _____    ______ ____
ROOT
ATOM      9  C   UNL     1      -4.258   2.699  25.082  0.00  0.00    +0.044 C 
ATOM     10  C   UNL     1      -5.062   2.870  25.157  0.00  0.00    +0.041 C 
ATOM     11  C   UNL     1      -5.485   2.175  25.021  0.00  0.00    +0.184 C 
ATOM     12  O   UNL     1      -6.305   2.095  25.041  0.00  0.00    -0.220 OA
ATOM     13  C   UNL     1      -4.942   1.574  24.863  0.00  0.00    +0.198 C 
ATOM     14  O   UNL     1      -5.126   0.787  24.696  0.00  0.00    -0.219 OA
ATOM     15  C   UNL     1      -4.184   1.897  24.900  0.00  0.00    +0.110 C 
ENDROOT
BRANCH   9   6
ATOM      3  C   UNL     1      -2.395   4.306  25.356  0.00  0.00    +0.139 A 
ATOM      4  C   UNL     1      -2.729   3.944  26.018  0.00  0.00    +0.037 A 
ATOM      5  C   UNL     1      -3.350   3.409  25.927  0.00  0.00    -0.001 A 
ATOM      6  C   UNL     1      -3.637   3.234  25.174  0.00  0.00    -0.021 A 
ATOM      7  C   UNL     1      -3.303   3.595  24.511  0.00  0.00    -0.001 A 
ATOM      8  C   UNL     1      -2.682   4.131  24.602  0.00  0.00    +0.037 A 
BRANCH   3   2
ATOM      1  C   UNL     1      -1.052   4.703  25.073  0.00  0.00    +0.252 C 
ATOM      2  O   UNL     1      -1.775   4.841  25.447  0.00  0.00    -0.471 OA
ENDBRANCH   3   2
ENDBRANCH   9   6
BRANCH  15  16
ATOM     16  N   UNL     1      -3.477   1.490  24.778  0.00  0.00    -0.208 NA
BRANCH  16  17
ATOM     17  C   UNL     1      -3.414   0.697  24.993  0.00  0.00    +0.152 C 
BRANCH  17  18
ATOM     18  C   UNL     1      -2.695   0.302  24.909  0.00  0.00    +0.138 A 
ATOM     19  N   UNL     1      -2.068   0.533  24.426  0.00  0.00    -0.229 NA
ATOM     20  C   UNL     1      -1.462  -0.020  24.511  0.00  0.00    +0.098 A 
ATOM     21  C   UNL     1      -1.714  -0.593  25.048  0.00  0.00    +0.079 A 
ATOM     22  C   UNL     1      -1.217  -1.222  25.243  0.00  0.00    +0.019 A 
ATOM     23  C   UNL     1      -0.468  -1.278  24.902  0.00  0.00    +0.002 A 
ATOM     24  C   UNL     1      -0.216  -0.704  24.365  0.00  0.00    +0.002 A 
ATOM     25  C   UNL     1      -0.713  -0.075  24.169  0.00  0.00    +0.021 A 
ATOM     26  N   UNL     1      -2.476  -0.395  25.294  0.00  0.00    -0.312 N 
ATOM     27  C   UNL     1      -2.938  -0.818  25.830  0.00  0.00    +0.132 C 
ENDBRANCH  17  18
ENDBRANCH  16  17
ENDBRANCH  15  16
TORSDOF 5
ENDMDL
MODEL 6
REMARK VINA RESULT:     -10.8      2.001      4.582
REMARK  Name = 
REMARK  5 active torsions:
REMARK  status: ('A' for Active; 'I' for Inactive)
REMARK    1  A    between atoms: O_2  and  C_3
REMARK    2  A    between atoms: C_6  and  C_9
REMARK    3  A    between atoms: C_15  and  N_16
REMARK    4  A    between atoms: N_16  and  C_17
REMARK    5  A    between atoms: C_17  and  C_18
REMARK                            x       y       z     vdW  Elec       q    Type
REMARK                         _______ _______ _______ _____ _____    ______ ____
ROOT
ATOM      9  C   UNL     1      -3.611  -0.949  24.659  0.00  0.00    +0.044 C 
ATOM     10  C   UNL     1      -3.893  -1.679  24.396  0.00  0.00    +0.041 C 
ATOM     11  C   UNL     1      -3.275  -2.224  24.447  0.00  0.00    +0.184 C 
ATOM     12  O   UNL     1      -3.314  -3.021  24.241  0.00  0.00    -0.220 OA
ATOM     13  C   UNL     1      -2.612  -1.830  24.742  0.00  0.00    +0.198 C 
ATOM     14  O   UNL     1      -1.871  -2.166  24.881  0.00  0.00    -0.219 OA
ATOM     15  C   UNL     1      -2.819  -1.043  24.872  0.00  0.00    +0.110 C 
ENDROOT
BRANCH   9   6
ATOM      3  C   UNL     1      -4.913   1.153  24.783  0.00  0.00    +0.139 A 
ATOM      4  C   UNL     1      -4.863   0.658  25.442  0.00  0.00    +0.037 A 
ATOM      5  C   UNL     1      -4.429  -0.042  25.401  0.00  0.00    -0.001 A 
ATOM      6  C   UNL     1      -4.045  -0.248  24.700  0.00  0.00    -0.021 A 
ATOM      7  C   UNL     1      -4.095   0.245  24.041  0.00  0.00    -0.001 A 
ATOM      8  C   UNL     1      -4.529   0.946  24.083  0.00  0.00    +0.037 A 
BRANCH   3   2
ATOM      1  C   UNL     1      -4.991   2.543  25.104  0.00  0.00    +0.252 C 
ATOM      2  O   UNL     1      -5.346   1.853  24.825  0.00  0.00    -0.471 OA
ENDBRANCH   3   2
ENDBRANCH   9   6
BRANCH  15  16
ATOM     16  N   UNL     1      -2.323  -0.453  25.165  0.00  0.00    -0.208 NA
BRANCH  16  17
ATOM     17  C   UNL     1      -1.575  -0.341  24.835  0.00  0.00    +0.152 C 
BRANCH  17  18
ATOM     18  C   UNL     1      -1.152   0.349  24.994  0.00  0.00    +0.138 A 
ATOM     19  N   UNL     1      -1.178   0.783  25.695  0.00  0.00    -0.229 NA
ATOM     20  C   UNL     1      -0.671   1.428  25.615  0.00  0.00    +0.098 A 
ATOM     21  C   UNL     1      -0.332   1.394  24.863  0.00  0.00    +0.079 A 
ATOM     22  C   UNL     1       0.204   1.975  24.626  0.00  0.00    +0.019 A 
ATOM     23  C   UNL     1       0.400   2.589  25.139  0.00  0.00    +0.002 A 
ATOM     24  C   UNL     1       0.061   2.624  25.891  0.00  0.00    +0.002 A 
ATOM     25  C   UNL     1      -0.475   2.044  26.129  0.00  0.00    +0.021 A 
ATOM     26  N   UNL     1      -0.629   0.727  24.480  0.00  0.00    -0.312 N 
ATOM     27  C   UNL     1      -0.438   0.482  23.716  0.00  0.00    +0.132 C 
ENDBRANCH  17  18
ENDBRANCH  16  17
ENDBRANCH  15  16
TORSDOF 5
ENDMDL
