MODEL 1
REMARK VINA RESULT:     -10.9      0.000      0.000
REMARK  Name = 
REMARK  4 active torsions:
REMARK  status: ('A' for Active; 'I' for Inactive)
REMARK    1  A    between atoms: C_2  and  C_5
REMARK    2  A    between atoms: N_10  and  C_11
REMARK    3  A    between atoms: C_15  and  N_19
REMARK    4  A    between atoms: C_20  and  C_22
REMARK                            x       y       z     vdW  Elec       q    Type
REMARK                         _______ _______ _______ _____ _____    ______ ____
ROOT
ATOM     11  C   UNL     1      -2.539   2.052  23.839  0.00  0.00    +0.154 C 
ATOM     12  C   UNL     1      -1.930   1.596  23.521  0.00  0.00    +0.166 C 
ATOM     13  O   UNL     1      -2.169   0.807  23.534  0.00  0.00    -0.350 OA
ATOM     14  C   UNL     1      -2.925   0.775  23.860  0.00  0.00    +0.166 C 
ATOM     15  C   UNL     1      -3.542   0.268  24.069  0.00  0.00    +0.155 C 
ATOM     16  C   UNL     1      -4.151   0.723  24.388  0.00  0.00    +0.166 C 
ATOM     17  O   UNL     1      -3.912   1.512  24.375  0.00  0.00    -0.350 OA
ATOM     18  C   UNL     1      -3.154   1.544  24.049  0.00  0.00    +0.166 C 
ENDROOT
BRANCH  11  10
ATOM      5  C   UNL     1      -1.373   4.409  24.959  0.00  0.00    +0.063 A 
ATOM      6  C   UNL     1      -0.800   3.948  25.333  0.00  0.00    +0.035 A 
ATOM      7  C   UNL     1      -0.806   3.128  25.241  0.00  0.00    +0.103 A 
ATOM      8  N   UNL     1      -1.383   2.769  24.774  0.00  0.00    -0.211 NA
ATOM      9  C   UNL     1      -1.956   3.231  24.399  0.00  0.00    +0.236 A 
ATOM     10  N   UNL     1      -2.534   2.872  23.932  0.00  0.00    -0.200 NA
ATOM     28  N   UNL     1      -1.951   4.050  24.492  0.00  0.00    -0.217 NA
BRANCH   5   2
ATOM      1  C   UNL     1      -1.362   6.049  25.145  0.00  0.00    +0.006 C 
ATOM      2  C   UNL     1      -1.367   5.229  25.052  0.00  0.00    +0.036 C 
ATOM      3  C   UNL     1      -0.654   5.270  24.640  0.00  0.00    +0.006 C 
ATOM      4  C   UNL     1      -2.081   5.187  25.464  0.00  0.00    +0.006 C 
ENDBRANCH   5   2
ENDBRANCH  11  10
BRANCH  15  19
ATOM     19  N   UNL     1      -3.547  -0.552  23.977  0.00  0.00    -0.198 NA
ATOM     20  C   UNL     1      -3.786  -1.036  24.600  0.00  0.00    +0.265 C 
ATOM     21  O   UNL     1      -4.020  -0.701  25.317  0.00  0.00    -0.268 OA
BRANCH  20  22
ATOM     22  C   UNL     1      -3.791  -1.857  24.508  0.00  0.00    +0.055 A 
ATOM     23  C   UNL     1      -4.248  -2.202  23.914  0.00  0.00    +0.005 A 
ATOM     24  C   UNL     1      -4.254  -3.021  23.820  0.00  0.00    +0.000 A 
ATOM     25  C   UNL     1      -3.802  -3.496  24.323  0.00  0.00    +0.000 A 
ATOM     26  C   UNL     1      -3.345  -3.151  24.916  0.00  0.00    +0.000 A 
ATOM     27  C   UNL     1      -3.339  -2.331  25.009  0.00  0.00    +0.005 A 
ENDBRANCH  20  22
ENDBRANCH  15  19
TORSDOF 4
ENDMDL
MODEL 2
REMARK VINA RESULT:     -10.5      1.092      6.080
REMARK  Name = 
REMARK  4 active torsions:
REMARK  status: ('A' for Active; 'I' for Inactive)
REMARK    1  A    between atoms: C_2  and  C_5
REMARK    2  A    between atoms: N_10  and  C_11
REMARK    3  A    between atoms: C_15  and  N_19
REMARK    4  A    between atoms: C_20  and  C_22
REMARK                            x       y       z     vdW  Elec       q    Type
REMARK                         _______ _______ _______ _____ _____    ______ ____
ROOT
ATOM     11  C   UNL     1      -1.938   0.400  24.215  0.00  0.00    +0.154 C 
ATOM     12  C   UNL     1      -2.247   0.803  23.565  0.00  0.00    +0.166 C 
ATOM     13  O   UNL     1      -2.060   1.602  23.649  0.00  0.00    -0.350 OA
ATOM     14  C   UNL     1      -1.635   1.693  24.349  0.00  0.00    +0.166 C 
ATOM     15  C   UNL     1      -1.256   2.242  24.835  0.00  0.00    +0.155 C 
ATOM     16  C   UNL     1      -0.947   1.839  25.484  0.00  0.00    +0.166 C 
ATOM     17  O   UNL     1      -1.134   1.040  25.401  0.00  0.00    -0.350 OA
ATOM     18  C   UNL     1      -1.559   0.950  24.699  0.00  0.00    +0.166 C 
ENDROOT
BRANCH  11  10
ATOM      5  C   UNL     1      -3.531  -1.959  24.473  0.00  0.00    +0.063 A 
ATOM      6  C   UNL     1      -4.210  -1.517  24.321  0.00  0.00    +0.035 A 
ATOM      7  C   UNL     1      -4.152  -0.706  24.181  0.00  0.00    +0.103 A 
ATOM      8  N   UNL     1      -3.414  -0.337  24.192  0.00  0.00    -0.211 NA
ATOM      9  C   UNL     1      -2.734  -0.780  24.344  0.00  0.00    +0.236 A 
ATOM     10  N   UNL     1      -1.996  -0.411  24.355  0.00  0.00    -0.200 NA
ATOM     28  N   UNL     1      -2.793  -1.591  24.484  0.00  0.00    -0.217 NA
BRANCH   5   2
ATOM      1  C   UNL     1      -3.648  -3.581  24.754  0.00  0.00    +0.006 C 
ATOM      2  C   UNL     1      -3.589  -2.770  24.613  0.00  0.00    +0.036 C 
ATOM      3  C   UNL     1      -3.321  -2.656  25.384  0.00  0.00    +0.006 C 
ATOM      4  C   UNL     1      -3.858  -2.884  23.841  0.00  0.00    +0.006 C 
ENDBRANCH   5   2
ENDBRANCH  11  10
BRANCH  15  19
ATOM     19  N   UNL     1      -1.198   3.053  24.694  0.00  0.00    -0.198 NA
ATOM     20  C   UNL     1      -1.360   3.589  25.300  0.00  0.00    +0.265 C 
ATOM     21  O   UNL     1      -1.580   3.315  26.046  0.00  0.00    -0.268 OA
BRANCH  20  22
ATOM     22  C   UNL     1      -1.301   4.401  25.160  0.00  0.00    +0.055 A 
ATOM     23  C   UNL     1      -1.937   4.896  25.334  0.00  0.00    +0.005 A 
ATOM     24  C   UNL     1      -1.879   5.707  25.195  0.00  0.00    +0.000 A 
ATOM     25  C   UNL     1      -1.184   6.022  24.879  0.00  0.00    +0.000 A 
ATOM     26  C   UNL     1      -0.549   5.526  24.705  0.00  0.00    +0.000 A 
ATOM     27  C   UNL     1      -0.607   4.715  24.845  0.00  0.00    +0.005 A 
ENDBRANCH  20  22
ENDBRANCH  15  19
TORSDOF 4
ENDMDL
MODEL 3
REMARK VINA RESULT:      -9.5      2.816      4.596
REMARK  Name = 
REMARK  4 active torsions:
REMARK  status: ('A' for Active; 'I' for Inactive)
REMARK    1  A    between atoms: C_2  and  C_5
REMARK    2  A    between atoms: N_10  and  C_11
REMARK    3  A    between atoms: C_15  and  N_19
REMARK    4  A    between atoms: C_20  and  C_22
REMARK                            x       y       z     vdW  Elec       q    Type
REMARK                         _______ _______ _______ _____ _____    ______ ____
ROOT
ATOM     11  C   UNL     1      -1.827   1.801  24.681  0.00  0.00    +0.154 C 
ATOM     12  C   UNL     1      -1.481   2.470  24.347  0.00  0.00    +0.166 C 
ATOM     13  O   UNL     1      -0.774   2.239  23.989  0.00  0.00    -0.350 OA
ATOM     14  C   UNL     1      -0.684   1.428  24.102  0.00  0.00    +0.166 C 
ATOM     15  C   UNL     1      -0.193   0.782  23.951  0.00  0.00    +0.155 C 
ATOM     16  C   UNL     1      -0.539   0.113  24.286  0.00  0.00    +0.166 C 
ATOM     17  O   UNL     1      -1.245   0.344  24.643  0.00  0.00    -0.350 OA
ATOM     18  C   UNL     1      -1.335   1.156  24.530  0.00  0.00    +0.166 C 
ENDROOT
BRANCH  11  10
ATOM      5  C   UNL     1      -4.604   2.453  24.861  0.00  0.00    +0.063 A 
ATOM      6  C   UNL     1      -4.565   2.822  24.124  0.00  0.00    +0.035 A 
ATOM      7  C   UNL     1      -3.851   2.843  23.711  0.00  0.00    +0.103 A 
ATOM      8  N   UNL     1      -3.176   2.495  24.034  0.00  0.00    -0.211 NA
ATOM      9  C   UNL     1      -3.216   2.127  24.771  0.00  0.00    +0.236 A 
ATOM     10  N   UNL     1      -2.541   1.779  25.095  0.00  0.00    -0.200 NA
ATOM     28  N   UNL     1      -3.929   2.106  25.184  0.00  0.00    -0.217 NA
BRANCH   5   2
ATOM      1  C   UNL     1      -6.032   2.411  25.687  0.00  0.00    +0.006 C 
ATOM      2  C   UNL     1      -5.317   2.432  25.274  0.00  0.00    +0.036 C 
ATOM      3  C   UNL     1      -5.505   1.714  24.914  0.00  0.00    +0.006 C 
ATOM      4  C   UNL     1      -5.130   3.150  25.635  0.00  0.00    +0.006 C 
ENDBRANCH   5   2
ENDBRANCH  11  10
BRANCH  15  19
ATOM     19  N   UNL     1       0.521   0.803  23.537  0.00  0.00    -0.198 NA
ATOM     20  C   UNL     1       0.877   0.101  23.292  0.00  0.00    +0.265 C 
ATOM     21  O   UNL     1       0.519  -0.624  23.460  0.00  0.00    -0.268 OA
BRANCH  20  22
ATOM     22  C   UNL     1       1.591   0.122  22.878  0.00  0.00    +0.055 A 
ATOM     23  C   UNL     1       2.257   0.466  23.223  0.00  0.00    +0.005 A 
ATOM     24  C   UNL     1       2.971   0.488  22.810  0.00  0.00    +0.000 A 
ATOM     25  C   UNL     1       3.018   0.164  22.051  0.00  0.00    +0.000 A 
ATOM     26  C   UNL     1       2.352  -0.180  21.708  0.00  0.00    +0.000 A 
ATOM     27  C   UNL     1       1.638  -0.201  22.121  0.00  0.00    +0.005 A 
ENDBRANCH  20  22
ENDBRANCH  15  19
TORSDOF 4
ENDMDL
MODEL 4
REMARK VINA RESULT:      -9.2      2.903      4.570
REMARK  Name = 
REMARK  4 active torsions:
REMARK  status: ('A' for Active; 'I' for Inactive)
REMARK    1  A    between atoms: C_2  and  C_5
REMARK    2  A    between atoms: N_10  and  C_11
REMARK    3  A    between atoms: C_15  and  N_19
REMARK    4  A    between atoms: C_20  and  C_22
REMARK                            x       y       z     vdW  Elec       q    Type
REMARK                         _______ _______ _______ _____ _____    ______ ____
ROOT
ATOM     11  C   UNL     1      -0.624   1.585  24.448  0.00  0.00    +0.154 C 
ATOM     12  C   UNL     1      -0.826   1.118  25.097  0.00  0.00    +0.166 C 
ATOM     13  O   UNL     1      -1.605   1.294  25.304  0.00  0.00    -0.350 OA
ATOM     14  C   UNL     1      -1.883   1.870  24.784  0.00  0.00    +0.166 C 
ATOM     15  C   UNL     1      -2.536   2.335  24.590  0.00  0.00    +0.155 C 
ATOM     16  C   UNL     1      -2.334   2.802  23.941  0.00  0.00    +0.166 C 
ATOM     17  O   UNL     1      -1.556   2.626  23.734  0.00  0.00    -0.350 OA
ATOM     18  C   UNL     1      -1.277   2.049  24.255  0.00  0.00    +0.166 C 
ENDROOT
BRANCH  11  10
ATOM      5  C   UNL     1       1.426   0.190  23.026  0.00  0.00    +0.063 A 
ATOM      6  C   UNL     1       0.995  -0.510  23.091  0.00  0.00    +0.035 A 
ATOM      7  C   UNL     1       0.267  -0.512  23.479  0.00  0.00    +0.103 A 
ATOM      8  N   UNL     1      -0.030   0.187  23.802  0.00  0.00    -0.211 NA
ATOM      9  C   UNL     1       0.402   0.887  23.736  0.00  0.00    +0.236 A 
ATOM     10  N   UNL     1       0.104   1.586  24.059  0.00  0.00    -0.200 NA
ATOM     28  N   UNL     1       1.129   0.889  23.349  0.00  0.00    -0.217 NA
BRANCH   5   2
ATOM      1  C   UNL     1       2.882   0.192  22.249  0.00  0.00    +0.006 C 
ATOM      2  C   UNL     1       2.154   0.191  22.638  0.00  0.00    +0.036 C 
ATOM      3  C   UNL     1       1.808  -0.179  21.988  0.00  0.00    +0.006 C 
ATOM      4  C   UNL     1       2.501   0.562  23.289  0.00  0.00    +0.006 C 
ENDBRANCH   5   2
ENDBRANCH  11  10
BRANCH  15  19
ATOM     19  N   UNL     1      -3.265   2.334  24.978  0.00  0.00    -0.198 NA
ATOM     20  C   UNL     1      -3.957   2.492  24.558  0.00  0.00    +0.265 C 
ATOM     21  O   UNL     1      -3.921   2.652  23.749  0.00  0.00    -0.268 OA
BRANCH  20  22
ATOM     22  C   UNL     1      -4.685   2.490  24.946  0.00  0.00    +0.055 A 
ATOM     23  C   UNL     1      -4.931   3.158  25.364  0.00  0.00    +0.005 A 
ATOM     24  C   UNL     1      -5.659   3.157  25.752  0.00  0.00    +0.000 A 
ATOM     25  C   UNL     1      -6.141   2.487  25.721  0.00  0.00    +0.000 A 
ATOM     26  C   UNL     1      -5.895   1.821  25.304  0.00  0.00    +0.000 A 
ATOM     27  C   UNL     1      -5.167   1.821  24.915  0.00  0.00    +0.005 A 
ENDBRANCH  20  22
ENDBRANCH  15  19
TORSDOF 4
ENDMDL
