MODEL 1
REMARK VINA RESULT:      -9.9      0.000      0.000
REMARK  Name = 
REMARK  7 active torsions:
REMARK  status: ('A' for Active; 'I' for Inactive)
REMARK    1  A    between atoms: O_2  and  C_3
REMARK    2  A    between atoms: C_8  and  C_10
REMARK    3  A    between atoms: N_13  and  C_14
REMARK    4  A    between atoms: C_14  and  C_15
REMARK    5  A    between atoms: C_17  and  O_18
REMARK    6  A    between atoms: C_20  and  O_21
REMARK    7  A    between atoms: C_23  and  O_24
REMARK                            x       y       z     vdW  Elec       q    Type
REMARK                         _______ _______ _______ _____ _____    ______ ____
ROOT
ATOM     10  C   UNL     1      -4.461   0.811  24.668  0.00  0.00    +0.076 C 
ATOM     11  C   UNL     1      -5.103   1.103  25.095  0.00  0.00    +0.026 C 
ATOM     12  C   UNL     1      -5.108   1.925  25.019  0.00  0.00    +0.073 C 
ATOM     13  N   UNL     1      -4.468   2.140  24.545  0.00  0.00    -0.269 NA
ATOM     27  C   UNL     1      -4.068   1.451  24.328  0.00  0.00    +0.080 C 
ENDROOT
BRANCH  10   8
ATOM      3  C   UNL     1      -3.257  -2.526  24.635  0.00  0.00    +0.140 A 
ATOM      4  C   UNL     1      -3.143  -1.785  24.979  0.00  0.00    +0.058 A 
ATOM      5  C   UNL     1      -3.624  -1.151  24.762  0.00  0.00    +0.103 A 
ATOM      6  C   UNL     1      -4.220  -1.258  24.201  0.00  0.00    +0.100 A 
ATOM      7  N   UNL     1      -4.605  -0.537  24.098  0.00  0.00    -0.229 NA
ATOM      8  C   UNL     1      -4.249   0.017  24.595  0.00  0.00    +0.140 A 
ATOM      9  N   UNL     1      -3.643  -0.363  25.005  0.00  0.00    -0.229 NA
ATOM     28  C   UNL     1      -4.334  -1.999  23.856  0.00  0.00    +0.024 A 
ATOM     29  C   UNL     1      -3.852  -2.633  24.074  0.00  0.00    +0.039 A 
BRANCH   3   2
ATOM      1  C   UNL     1      -2.008  -3.216  24.555  0.00  0.00    +0.252 C 
ATOM      2  O   UNL     1      -2.776  -3.159  24.852  0.00  0.00    -0.471 OA
ENDBRANCH   3   2
ENDBRANCH  10   8
BRANCH  13  14
ATOM     14  C   UNL     1      -4.263   2.908  24.325  0.00  0.00    +0.099 C 
BRANCH  14  15
ATOM     15  C   UNL     1      -3.570   3.250  24.615  0.00  0.00    +0.000 A 
ATOM     16  C   UNL     1      -3.590   3.706  25.302  0.00  0.00    +0.037 A 
ATOM     17  C   UNL     1      -2.897   4.047  25.590  0.00  0.00    +0.175 A 
ATOM     20  C   UNL     1      -2.183   3.932  25.193  0.00  0.00    +0.206 A 
ATOM     23  C   UNL     1      -2.163   3.475  24.506  0.00  0.00    +0.175 A 
ATOM     26  C   UNL     1      -2.856   3.134  24.216  0.00  0.00    +0.037 A 
BRANCH  17  18
ATOM     18  O   UNL     1      -2.917   4.504  26.277  0.00  0.00    -0.468 OA
ATOM     19  C   UNL     1      -3.458   4.326  26.875  0.00  0.00    +0.253 C 
ENDBRANCH  17  18
BRANCH  20  21
ATOM     21  O   UNL     1      -1.490   4.273  25.482  0.00  0.00    -0.465 OA
ATOM     22  C   UNL     1      -1.235   5.000  25.188  0.00  0.00    +0.253 C 
ENDBRANCH  20  21
BRANCH  23  24
ATOM     24  O   UNL     1      -1.450   3.360  24.108  0.00  0.00    -0.468 OA
ATOM     25  C   UNL     1      -1.232   2.603  23.862  0.00  0.00    +0.253 C 
ENDBRANCH  23  24
ENDBRANCH  14  15
ENDBRANCH  13  14
TORSDOF 7
ENDMDL
MODEL 2
REMARK VINA RESULT:      -9.3      1.106      5.489
REMARK  Name = 
REMARK  7 active torsions:
REMARK  status: ('A' for Active; 'I' for Inactive)
REMARK    1  A    between atoms: O_2  and  C_3
REMARK    2  A    between atoms: C_8  and  C_10
REMARK    3  A    between atoms: N_13  and  C_14
REMARK    4  A    between atoms: C_14  and  C_15
REMARK    5  A    between atoms: C_17  and  O_18
REMARK    6  A    between atoms: C_20  and  O_21
REMARK    7  A    between atoms: C_23  and  O_24
REMARK                            x       y       z     vdW  Elec       q    Type
REMARK                         _______ _______ _______ _____ _____    ______ ____
ROOT
ATOM     10  C   UNL     1      -3.566   1.758  24.870  0.00  0.00    +0.076 C 
ATOM     11  C   UNL     1      -4.133   1.616  24.289  0.00  0.00    +0.026 C 
ATOM     12  C   UNL     1      -4.427   0.853  24.398  0.00  0.00    +0.073 C 
ATOM     13  N   UNL     1      -4.040   0.522  25.047  0.00  0.00    -0.269 NA
ATOM     27  C   UNL     1      -3.508   1.082  25.339  0.00  0.00    +0.080 C 
ENDROOT
BRANCH  10   8
ATOM      3  C   UNL     1      -1.389   4.549  25.100  0.00  0.00    +0.140 A 
ATOM      4  C   UNL     1      -1.438   3.768  24.839  0.00  0.00    +0.058 A 
ATOM      5  C   UNL     1      -2.139   3.344  24.934  0.00  0.00    +0.103 A 
ATOM      6  C   UNL     1      -2.791   3.701  25.292  0.00  0.00    +0.100 A 
ATOM      7  N   UNL     1      -3.405   3.151  25.312  0.00  0.00    -0.229 NA
ATOM      8  C   UNL     1      -3.132   2.453  24.966  0.00  0.00    +0.140 A 
ATOM      9  N   UNL     1      -2.350   2.573  24.733  0.00  0.00    -0.229 NA
ATOM     28  C   UNL     1      -2.742   4.483  25.554  0.00  0.00    +0.024 A 
ATOM     29  C   UNL     1      -2.041   4.906  25.458  0.00  0.00    +0.039 A 
BRANCH   3   2
ATOM      1  C   UNL     1      -0.698   5.710  24.635  0.00  0.00    +0.252 C 
ATOM      2  O   UNL     1      -0.688   4.972  25.005  0.00  0.00    -0.471 OA
ENDBRANCH   3   2
ENDBRANCH  10   8
BRANCH  13  14
ATOM     14  C   UNL     1      -4.163  -0.234  25.352  0.00  0.00    +0.099 C 
BRANCH  14  15
ATOM     15  C   UNL     1      -3.650  -0.849  25.150  0.00  0.00    +0.000 A 
ATOM     16  C   UNL     1      -2.889  -0.872  25.468  0.00  0.00    +0.037 A 
ATOM     17  C   UNL     1      -2.377  -1.487  25.266  0.00  0.00    +0.175 A 
ATOM     20  C   UNL     1      -2.626  -2.078  24.748  0.00  0.00    +0.206 A 
ATOM     23  C   UNL     1      -3.387  -2.055  24.430  0.00  0.00    +0.175 A 
ATOM     26  C   UNL     1      -3.900  -1.440  24.632  0.00  0.00    +0.037 A 
BRANCH  17  18
ATOM     18  O   UNL     1      -1.616  -1.510  25.584  0.00  0.00    -0.468 OA
ATOM     19  C   UNL     1      -1.411  -1.004  26.203  0.00  0.00    +0.253 C 
ENDBRANCH  17  18
BRANCH  20  21
ATOM     21  O   UNL     1      -2.114  -2.693  24.547  0.00  0.00    -0.465 OA
ATOM     22  C   UNL     1      -1.512  -2.565  23.998  0.00  0.00    +0.253 C 
ENDBRANCH  20  21
BRANCH  23  24
ATOM     24  O   UNL     1      -3.636  -2.646  23.912  0.00  0.00    -0.468 OA
ATOM     25  C   UNL     1      -4.426  -2.681  23.675  0.00  0.00    +0.253 C 
ENDBRANCH  23  24
ENDBRANCH  14  15
ENDBRANCH  13  14
TORSDOF 7
ENDMDL
MODEL 3
REMARK VINA RESULT:      -8.9      1.514      2.691
REMARK  Name = 
REMARK  7 active torsions:
REMARK  status: ('A' for Active; 'I' for Inactive)
REMARK    1  A    between atoms: O_2  and  C_3
REMARK    2  A    between atoms: C_8  and  C_10
REMARK    3  A    between atoms: N_13  and  C_14
REMARK    4  A    between atoms: C_14  and  C_15
REMARK    5  A    between atoms: C_17  and  O_18
REMARK    6  A    between atoms: C_20  and  O_21
REMARK    7  A    between atoms: C_23  and  O_24
REMARK                            x       y       z     vdW  Elec       q    Type
REMARK                         _______ _______ _______ _____ _____    ______ ____
ROOT
ATOM     10  C   UNL     1      -1.407   0.697  25.012  0.00  0.00    +0.076 C 
ATOM     11  C   UNL     1      -0.775   0.958  25.473  0.00  0.00    +0.026 C 
ATOM     12  C   UNL     1      -0.735   1.780  25.411  0.00  0.00    +0.073 C 
ATOM     13  N   UNL     1      -1.344   2.026  24.911  0.00  0.00    -0.269 NA
ATOM     27  C   UNL     1      -1.758   1.357  24.664  0.00  0.00    +0.080 C 
ENDROOT
BRANCH  10   8
ATOM      3  C   UNL     1      -2.817  -2.538  24.653  0.00  0.00    +0.140 A 
ATOM      4  C   UNL     1      -3.004  -1.747  24.794  0.00  0.00    +0.058 A 
ATOM      5  C   UNL     1      -2.405  -1.180  24.822  0.00  0.00    +0.103 A 
ATOM      6  C   UNL     1      -1.619  -1.405  24.709  0.00  0.00    +0.100 A 
ATOM      7  N   UNL     1      -1.150  -0.730  24.766  0.00  0.00    -0.229 NA
ATOM      8  C   UNL     1      -1.645  -0.087  24.914  0.00  0.00    +0.140 A 
ATOM      9  N   UNL     1      -2.420  -0.366  24.949  0.00  0.00    -0.229 NA
ATOM     28  C   UNL     1      -1.432  -2.197  24.568  0.00  0.00    +0.024 A 
ATOM     29  C   UNL     1      -2.032  -2.763  24.541  0.00  0.00    +0.039 A 
BRANCH   3   2
ATOM      1  C   UNL     1      -4.033  -3.027  24.083  0.00  0.00    +0.252 C 
ATOM      2  O   UNL     1      -3.416  -3.104  24.626  0.00  0.00    -0.471 OA
ENDBRANCH   3   2
ENDBRANCH  10   8
BRANCH  13  14
ATOM     14  C   UNL     1      -1.508   2.805  24.696  0.00  0.00    +0.099 C 
BRANCH  14  15
ATOM     15  C   UNL     1      -2.270   3.109  24.793  0.00  0.00    +0.000 A 
ATOM     16  C   UNL     1      -2.812   3.069  24.172  0.00  0.00    +0.037 A 
ATOM     17  C   UNL     1      -3.573   3.372  24.270  0.00  0.00    +0.175 A 
ATOM     20  C   UNL     1      -3.792   3.715  24.988  0.00  0.00    +0.206 A 
ATOM     23  C   UNL     1      -3.250   3.755  25.609  0.00  0.00    +0.175 A 
ATOM     26  C   UNL     1      -2.488   3.451  25.511  0.00  0.00    +0.037 A 
BRANCH  17  18
ATOM     18  O   UNL     1      -4.115   3.332  23.649  0.00  0.00    -0.468 OA
ATOM     19  C   UNL     1      -3.851   3.202  22.878  0.00  0.00    +0.253 C 
ENDBRANCH  17  18
BRANCH  20  21
ATOM     21  O   UNL     1      -4.553   4.018  25.085  0.00  0.00    -0.465 OA
ATOM     22  C   UNL     1      -5.154   3.537  25.381  0.00  0.00    +0.253 C 
ENDBRANCH  20  21
BRANCH  23  24
ATOM     24  O   UNL     1      -3.468   4.097  26.326  0.00  0.00    -0.468 OA
ATOM     25  C   UNL     1      -2.893   4.427  26.818  0.00  0.00    +0.253 C 
ENDBRANCH  23  24
ENDBRANCH  14  15
ENDBRANCH  13  14
TORSDOF 7
ENDMDL
MODEL 4
REMARK VINA RESULT:      -8.4      1.823      5.855
REMARK  Name = 
REMARK  7 active torsions:
REMARK  status: ('A' for Active; 'I' for Inactive)
REMARK    1  A    between atoms: O_2  and  C_3
REMARK    2  A    between atoms: C_8  and  C_10
REMARK    3  A    between atoms: N_13  and  C_14
REMARK    4  A    between atoms: C_14  and  C_15
REMARK    5  A    between atoms: C_17  and  O_18
REMARK    6  A    between atoms: C_20  and  O_21
REMARK    7  A    between atoms: C_23  and  O_24
REMARK                            x       y       z     vdW  Elec       q    Type
REMARK                         _______ _______ _______ _____ _____    ______ ____
ROOT
ATOM     10  C   UNL     1      -0.832   1.265  25.009  0.00  0.00    +0.076 C 
ATOM     11  C   UNL     1      -0.353   0.751  24.577  0.00  0.00    +0.026 C 
ATOM     12  C   UNL     1      -0.534  -0.021  24.805  0.00  0.00    +0.073 C 
ATOM     13  N   UNL     1      -1.127   0.016  25.377  0.00  0.00    -0.269 NA
ATOM     27  C   UNL     1      -1.311   0.810  25.503  0.00  0.00    +0.080 C 
ENDROOT
BRANCH  10   8
ATOM      3  C   UNL     1      -1.124   4.799  25.076  0.00  0.00    +0.140 A 
ATOM      4  C   UNL     1      -1.411   4.106  25.417  0.00  0.00    +0.058 A 
ATOM      5  C   UNL     1      -1.123   3.373  25.169  0.00  0.00    +0.103 A 
ATOM      6  C   UNL     1      -0.547   3.336  24.579  0.00  0.00    +0.100 A 
ATOM      7  N   UNL     1      -0.369   2.542  24.447  0.00  0.00    -0.229 NA
ATOM      8  C   UNL     1      -0.833   2.088  24.956  0.00  0.00    +0.140 A 
ATOM      9  N   UNL     1      -1.299   2.603  25.401  0.00  0.00    -0.229 NA
ATOM     28  C   UNL     1      -0.260   4.030  24.237  0.00  0.00    +0.024 A 
ATOM     29  C   UNL     1      -0.549   4.762  24.486  0.00  0.00    +0.039 A 
BRANCH   3   2
ATOM      1  C   UNL     1      -2.130   5.814  25.031  0.00  0.00    +0.252 C 
ATOM      2  O   UNL     1      -1.413   5.531  25.325  0.00  0.00    -0.471 OA
ENDBRANCH   3   2
ENDBRANCH  10   8
BRANCH  13  14
ATOM     14  C   UNL     1      -1.475  -0.628  25.757  0.00  0.00    +0.099 C 
BRANCH  14  15
ATOM     15  C   UNL     1      -2.126  -1.006  25.418  0.00  0.00    +0.000 A 
ATOM     16  C   UNL     1      -2.880  -0.679  25.498  0.00  0.00    +0.037 A 
ATOM     17  C   UNL     1      -3.530  -1.056  25.159  0.00  0.00    +0.175 A 
ATOM     20  C   UNL     1      -3.428  -1.760  24.741  0.00  0.00    +0.206 A 
ATOM     23  C   UNL     1      -2.674  -2.087  24.661  0.00  0.00    +0.175 A 
ATOM     26  C   UNL     1      -2.023  -1.710  25.000  0.00  0.00    +0.037 A 
BRANCH  17  18
ATOM     18  O   UNL     1      -4.284  -0.730  25.238  0.00  0.00    -0.468 OA
ATOM     19  C   UNL     1      -4.374   0.027  25.555  0.00  0.00    +0.253 C 
ENDBRANCH  17  18
BRANCH  20  21
ATOM     21  O   UNL     1      -4.078  -2.137  24.402  0.00  0.00    -0.465 OA
ATOM     22  C   UNL     1      -4.302  -1.959  23.629  0.00  0.00    +0.253 C 
ENDBRANCH  20  21
BRANCH  23  24
ATOM     24  O   UNL     1      -2.571  -2.790  24.244  0.00  0.00    -0.468 OA
ATOM     25  C   UNL     1      -1.822  -3.134  24.192  0.00  0.00    +0.253 C 
ENDBRANCH  23  24
ENDBRANCH  14  15
ENDBRANCH  13  14
TORSDOF 7
ENDMDL
MODEL 5
REMARK VINA RESULT:      -8.4      2.245      3.589
REMARK  Name = 
REMARK  7 active torsions:
REMARK  status: ('A' for Active; 'I' for Inactive)
REMARK    1  A    between atoms: O_2  and  C_3
REMARK    2  A    between atoms: C_8  and  C_10
REMARK    3  A    between atoms: N_13  and  C_14
REMARK    4  A    between atoms: C_14  and  C_15
REMARK    5  A    between atoms: C_17  and  O_18
REMARK    6  A    between atoms: C_20  and  O_21
REMARK    7  A    between atoms: C_23  and  O_24
REMARK                            x       y       z     vdW  Elec       q    Type
REMARK                         _______ _______ _______ _____ _____    ______ ____
ROOT
ATOM     10  C   UNL     1      -2.717  -0.089  24.697  0.00  0.00    +0.076 C 
ATOM     11  C   UNL     1      -3.065  -0.482  25.333  0.00  0.00    +0.026 C 
ATOM     12  C   UNL     1      -3.858  -0.259  25.369  0.00  0.00    +0.073 C 
ATOM     13  N   UNL     1      -4.000   0.273  24.754  0.00  0.00    -0.269 NA
ATOM     27  C   UNL     1      -3.295   0.377  24.339  0.00  0.00    +0.080 C 
ENDROOT
BRANCH  10   8
ATOM      3  C   UNL     1       0.636   0.029  23.545  0.00  0.00    +0.140 A 
ATOM      4  C   UNL     1      -0.057   0.471  23.608  0.00  0.00    +0.058 A 
ATOM      5  C   UNL     1      -0.729   0.138  23.955  0.00  0.00    +0.103 A 
ATOM      6  C   UNL     1      -0.705  -0.636  24.238  0.00  0.00    +0.100 A 
ATOM      7  N   UNL     1      -1.447  -0.816  24.551  0.00  0.00    -0.229 NA
ATOM      8  C   UNL     1      -1.929  -0.152  24.461  0.00  0.00    +0.140 A 
ATOM      9  N   UNL     1      -1.484   0.437  24.092  0.00  0.00    -0.229 NA
ATOM     28  C   UNL     1      -0.011  -1.078  24.175  0.00  0.00    +0.024 A 
ATOM     29  C   UNL     1       0.659  -0.745  23.828  0.00  0.00    +0.039 A 
BRANCH   3   2
ATOM      1  C   UNL     1       1.708  -0.044  22.603  0.00  0.00    +0.252 C 
ATOM      2  O   UNL     1       1.306   0.362  23.199  0.00  0.00    -0.471 OA
ENDBRANCH   3   2
ENDBRANCH  10   8
BRANCH  13  14
ATOM     14  C   UNL     1      -4.721   0.636  24.584  0.00  0.00    +0.099 C 
BRANCH  14  15
ATOM     15  C   UNL     1      -4.854   1.418  24.814  0.00  0.00    +0.000 A 
ATOM     16  C   UNL     1      -4.525   2.038  24.379  0.00  0.00    +0.037 A 
ATOM     17  C   UNL     1      -4.658   2.818  24.609  0.00  0.00    +0.175 A 
ATOM     20  C   UNL     1      -5.120   2.980  25.273  0.00  0.00    +0.206 A 
ATOM     23  C   UNL     1      -5.448   2.361  25.708  0.00  0.00    +0.175 A 
ATOM     26  C   UNL     1      -5.316   1.579  25.479  0.00  0.00    +0.037 A 
BRANCH  17  18
ATOM     18  O   UNL     1      -4.330   3.438  24.174  0.00  0.00    -0.468 OA
ATOM     19  C   UNL     1      -4.037   3.299  23.415  0.00  0.00    +0.253 C 
ENDBRANCH  17  18
BRANCH  20  21
ATOM     21  O   UNL     1      -5.252   3.761  25.503  0.00  0.00    -0.465 OA
ATOM     22  C   UNL     1      -4.683   4.165  25.942  0.00  0.00    +0.253 C 
ENDBRANCH  20  21
BRANCH  23  24
ATOM     24  O   UNL     1      -5.910   2.522  26.372  0.00  0.00    -0.468 OA
ATOM     25  C   UNL     1      -6.479   1.979  26.622  0.00  0.00    +0.253 C 
ENDBRANCH  23  24
ENDBRANCH  14  15
ENDBRANCH  13  14
TORSDOF 7
ENDMDL
