MODEL 1
REMARK VINA RESULT:      -9.5      0.000      0.000
REMARK  Name = 
REMARK  6 active torsions:
REMARK  status: ('A' for Active; 'I' for Inactive)
REMARK    1  A    between atoms: C_3  and  N_18
REMARK    2  A    between atoms: C_6  and  C_7
REMARK    3  A    between atoms: C_7  and  N_8
REMARK    4  A    between atoms: C_9  and  C_11
REMARK    5  A    between atoms: N_18  and  C_19
REMARK    6  A    between atoms: C_19  and  C_20
REMARK                            x       y       z     vdW  Elec       q    Type
REMARK                         _______ _______ _______ _____ _____    ______ ____
ROOT
ATOM      1  O   UNL     1      -3.907   2.592  24.420  0.00  0.00    -0.219 OA
ATOM      2  C   UNL     1      -3.234   2.181  24.662  0.00  0.00    +0.199 C 
ATOM      3  C   UNL     1      -2.503   2.515  24.847  0.00  0.00    +0.135 C 
ATOM      4  C   UNL     1      -1.991   1.905  25.060  0.00  0.00    +0.162 C 
ATOM      5  O   UNL     1      -2.405   1.194  25.006  0.00  0.00    -0.350 OA
ATOM      6  C   UNL     1      -3.173   1.364  24.760  0.00  0.00    +0.169 C 
ENDROOT
BRANCH   6   7
ATOM      7  C   UNL     1      -3.775   0.815  24.634  0.00  0.00    +0.148 C 
BRANCH   7   8
ATOM      8  N   UNL     1      -3.595   0.012  24.577  0.00  0.00    -0.199 NA
ATOM      9  C   UNL     1      -4.202  -0.547  24.554  0.00  0.00    +0.265 C 
ATOM     10  O   UNL     1      -4.989  -0.301  24.588  0.00  0.00    -0.268 OA
BRANCH   9  11
ATOM     11  C   UNL     1      -4.022  -1.350  24.498  0.00  0.00    +0.055 A 
ATOM     12  C   UNL     1      -3.632  -1.730  25.117  0.00  0.00    +0.007 A 
ATOM     13  C   UNL     1      -3.452  -2.533  25.061  0.00  0.00    +0.030 A 
ATOM     14  C   UNL     1      -3.662  -2.956  24.385  0.00  0.00    +0.140 A 
ATOM     15  F   UNL     1      -3.482  -3.759  24.328  0.00  0.00    -0.204 F 
ATOM     16  C   UNL     1      -4.052  -2.576  23.765  0.00  0.00    +0.030 A 
ATOM     17  C   UNL     1      -4.232  -1.773  23.821  0.00  0.00    +0.007 A 
ENDBRANCH   9  11
ENDBRANCH   7   8
ENDBRANCH   6   7
BRANCH   3  18
ATOM     18  N   UNL     1      -2.317   3.319  24.824  0.00  0.00    -0.209 NA
BRANCH  18  19
ATOM     19  C   UNL     1      -1.638   3.596  25.202  0.00  0.00    +0.122 C 
BRANCH  19  20
ATOM     20  C   UNL     1      -1.385   4.372  25.078  0.00  0.00    +0.025 A 
ATOM     21  C   UNL     1      -1.801   5.056  25.279  0.00  0.00    +0.004 A 
ATOM     22  C   UNL     1      -1.344   5.706  25.057  0.00  0.00    +0.007 A 
ATOM     23  C   UNL     1      -0.646   5.424  24.719  0.00  0.00    +0.035 A 
ATOM     24  S   UNL     1      -0.671   4.599  24.732  0.00  0.00    -0.089 S 
ENDBRANCH  19  20
ENDBRANCH  18  19
ENDBRANCH   3  18
TORSDOF 6
ENDMDL
MODEL 2
REMARK VINA RESULT:      -9.3      2.660      5.979
REMARK  Name = 
REMARK  6 active torsions:
REMARK  status: ('A' for Active; 'I' for Inactive)
REMARK    1  A    between atoms: C_3  and  N_18
REMARK    2  A    between atoms: C_6  and  C_7
REMARK    3  A    between atoms: C_7  and  N_8
REMARK    4  A    between atoms: C_9  and  C_11
REMARK    5  A    between atoms: N_18  and  C_19
REMARK    6  A    between atoms: C_19  and  C_20
REMARK                            x       y       z     vdW  Elec       q    Type
REMARK                         _______ _______ _______ _____ _____    ______ ____
ROOT
ATOM      1  O   UNL     1      -4.253   0.908  25.442  0.00  0.00    -0.219 OA
ATOM      2  C   UNL     1      -3.836   0.997  24.735  0.00  0.00    +0.199 C 
ATOM      3  C   UNL     1      -3.686   0.404  24.183  0.00  0.00    +0.135 C 
ATOM      4  C   UNL     1      -3.254   0.735  23.564  0.00  0.00    +0.162 C 
ATOM      5  O   UNL     1      -3.136   1.533  23.734  0.00  0.00    -0.350 OA
ATOM      6  C   UNL     1      -3.495   1.696  24.458  0.00  0.00    +0.169 C 
ENDROOT
BRANCH   6   7
ATOM      7  C   UNL     1      -3.512   2.427  24.838  0.00  0.00    +0.148 C 
BRANCH   7   8
ATOM      8  N   UNL     1      -2.877   2.948  24.758  0.00  0.00    -0.199 NA
ATOM      9  C   UNL     1      -2.813   3.601  25.258  0.00  0.00    +0.265 C 
ATOM     10  O   UNL     1      -3.385   3.733  25.838  0.00  0.00    -0.268 OA
BRANCH   9  11
ATOM     11  C   UNL     1      -2.179   4.122  25.178  0.00  0.00    +0.055 A 
ATOM     12  C   UNL     1      -2.312   4.936  25.159  0.00  0.00    +0.007 A 
ATOM     13  C   UNL     1      -1.677   5.456  25.079  0.00  0.00    +0.030 A 
ATOM     14  C   UNL     1      -0.909   5.163  25.018  0.00  0.00    +0.140 A 
ATOM     15  F   UNL     1      -0.274   5.684  24.938  0.00  0.00    -0.204 F 
ATOM     16  C   UNL     1      -0.775   4.349  25.037  0.00  0.00    +0.030 A 
ATOM     17  C   UNL     1      -1.410   3.829  25.117  0.00  0.00    +0.007 A 
ENDBRANCH   9  11
ENDBRANCH   7   8
ENDBRANCH   6   7
BRANCH   3  18
ATOM     18  N   UNL     1      -3.928  -0.384  24.239  0.00  0.00    -0.209 NA
BRANCH  18  19
ATOM     19  C   UNL     1      -3.476  -0.979  23.890  0.00  0.00    +0.122 C 
BRANCH  19  20
ATOM     20  C   UNL     1      -3.623  -1.770  24.075  0.00  0.00    +0.025 A 
ATOM     21  C   UNL     1      -4.258  -2.222  23.802  0.00  0.00    +0.004 A 
ATOM     22  C   UNL     1      -4.189  -2.979  24.123  0.00  0.00    +0.007 A 
ATOM     23  C   UNL     1      -3.511  -2.995  24.594  0.00  0.00    +0.035 A 
ATOM     24  S   UNL     1      -3.162  -2.248  24.564  0.00  0.00    -0.089 S 
ENDBRANCH  19  20
ENDBRANCH  18  19
ENDBRANCH   3  18
TORSDOF 6
ENDMDL
MODEL 3
REMARK VINA RESULT:      -9.2      2.792      6.193
REMARK  Name = 
REMARK  6 active torsions:
REMARK  status: ('A' for Active; 'I' for Inactive)
REMARK    1  A    between atoms: C_3  and  N_18
REMARK    2  A    between atoms: C_6  and  C_7
REMARK    3  A    between atoms: C_7  and  N_8
REMARK    4  A    between atoms: C_9  and  C_11
REMARK    5  A    between atoms: N_18  and  C_19
REMARK    6  A    between atoms: C_19  and  C_20
REMARK                            x       y       z     vdW  Elec       q    Type
REMARK                         _______ _______ _______ _____ _____    ______ ____
ROOT
ATOM      1  O   UNL     1      -1.130  -0.107  25.237  0.00  0.00    -0.219 OA
ATOM      2  C   UNL     1      -1.831   0.299  25.081  0.00  0.00    +0.199 C 
ATOM      3  C   UNL     1      -2.549  -0.040  24.859  0.00  0.00    +0.135 C 
ATOM      4  C   UNL     1      -3.098   0.567  24.761  0.00  0.00    +0.162 C 
ATOM      5  O   UNL     1      -2.719   1.282  24.923  0.00  0.00    -0.350 OA
ATOM      6  C   UNL     1      -1.936   1.117  25.121  0.00  0.00    +0.169 C 
ENDROOT
BRANCH   6   7
ATOM      7  C   UNL     1      -1.360   1.671  25.323  0.00  0.00    +0.148 C 
BRANCH   7   8
ATOM      8  N   UNL     1      -1.483   2.471  25.163  0.00  0.00    -0.199 NA
ATOM      9  C   UNL     1      -0.982   3.039  25.492  0.00  0.00    +0.265 C 
ATOM     10  O   UNL     1      -0.359   2.806  25.980  0.00  0.00    -0.268 OA
BRANCH   9  11
ATOM     11  C   UNL     1      -1.105   3.839  25.332  0.00  0.00    +0.055 A 
ATOM     12  C   UNL     1      -1.768   4.224  25.636  0.00  0.00    +0.007 A 
ATOM     13  C   UNL     1      -1.891   5.024  25.477  0.00  0.00    +0.030 A 
ATOM     14  C   UNL     1      -1.351   5.438  25.012  0.00  0.00    +0.140 A 
ATOM     15  F   UNL     1      -1.473   6.238  24.852  0.00  0.00    -0.204 F 
ATOM     16  C   UNL     1      -0.687   5.054  24.707  0.00  0.00    +0.030 A 
ATOM     17  C   UNL     1      -0.565   4.254  24.866  0.00  0.00    +0.007 A 
ENDBRANCH   9  11
ENDBRANCH   7   8
ENDBRANCH   6   7
BRANCH   3  18
ATOM     18  N   UNL     1      -2.692  -0.846  24.752  0.00  0.00    -0.209 NA
BRANCH  18  19
ATOM     19  C   UNL     1      -3.466  -1.131  24.759  0.00  0.00    +0.122 C 
BRANCH  19  20
ATOM     20  C   UNL     1      -3.619  -1.914  24.548  0.00  0.00    +0.025 A 
ATOM     21  C   UNL     1      -3.358  -2.585  24.951  0.00  0.00    +0.004 A 
ATOM     22  C   UNL     1      -3.637  -3.249  24.548  0.00  0.00    +0.007 A 
ATOM     23  C   UNL     1      -4.071  -2.988  23.896  0.00  0.00    +0.035 A 
ATOM     24  S   UNL     1      -4.059  -2.162  23.896  0.00  0.00    -0.089 S 
ENDBRANCH  19  20
ENDBRANCH  18  19
ENDBRANCH   3  18
TORSDOF 6
ENDMDL
MODEL 4
REMARK VINA RESULT:      -9.0      1.846      2.118
REMARK  Name = 
REMARK  6 active torsions:
REMARK  status: ('A' for Active; 'I' for Inactive)
REMARK    1  A    between atoms: C_3  and  N_18
REMARK    2  A    between atoms: C_6  and  C_7
REMARK    3  A    between atoms: C_7  and  N_8
REMARK    4  A    between atoms: C_9  and  C_11
REMARK    5  A    between atoms: N_18  and  C_19
REMARK    6  A    between atoms: C_19  and  C_20
REMARK                            x       y       z     vdW  Elec       q    Type
REMARK                         _______ _______ _______ _____ _____    ______ ____
ROOT
ATOM      1  O   UNL     1      -0.823   1.305  26.015  0.00  0.00    -0.219 OA
ATOM      2  C   UNL     1      -0.774   1.287  25.192  0.00  0.00    +0.199 C 
ATOM      3  C   UNL     1      -0.731   1.944  24.694  0.00  0.00    +0.135 C 
ATOM      4  C   UNL     1      -0.689   1.672  23.917  0.00  0.00    +0.162 C 
ATOM      5  O   UNL     1      -0.706   0.847  23.934  0.00  0.00    -0.350 OA
ATOM      6  C   UNL     1      -0.758   0.609  24.722  0.00  0.00    +0.169 C 
ENDROOT
BRANCH   6   7
ATOM      7  C   UNL     1      -0.789  -0.169  24.992  0.00  0.00    +0.148 C 
BRANCH   7   8
ATOM      8  N   UNL     1      -1.447  -0.638  24.824  0.00  0.00    -0.199 NA
ATOM      9  C   UNL     1      -1.451  -1.435  25.039  0.00  0.00    +0.265 C 
ATOM     10  O   UNL     1      -0.798  -1.762  25.422  0.00  0.00    -0.268 OA
BRANCH   9  11
ATOM     11  C   UNL     1      -2.109  -1.903  24.872  0.00  0.00    +0.055 A 
ATOM     12  C   UNL     1      -2.046  -2.527  24.335  0.00  0.00    +0.007 A 
ATOM     13  C   UNL     1      -2.704  -2.995  24.168  0.00  0.00    +0.030 A 
ATOM     14  C   UNL     1      -3.425  -2.841  24.537  0.00  0.00    +0.140 A 
ATOM     15  F   UNL     1      -4.082  -3.310  24.369  0.00  0.00    -0.204 F 
ATOM     16  C   UNL     1      -3.489  -2.218  25.074  0.00  0.00    +0.030 A 
ATOM     17  C   UNL     1      -2.831  -1.749  25.242  0.00  0.00    +0.007 A 
ENDBRANCH   9  11
ENDBRANCH   7   8
ENDBRANCH   6   7
BRANCH   3  18
ATOM     18  N   UNL     1      -0.731   2.734  24.933  0.00  0.00    -0.209 NA
BRANCH  18  19
ATOM     19  C   UNL     1      -1.079   3.309  24.455  0.00  0.00    +0.122 C 
BRANCH  19  20
ATOM     20  C   UNL     1      -1.200   4.071  24.748  0.00  0.00    +0.025 A 
ATOM     21  C   UNL     1      -0.669   4.700  24.697  0.00  0.00    +0.004 A 
ATOM     22  C   UNL     1      -1.014   5.355  25.061  0.00  0.00    +0.007 A 
ATOM     23  C   UNL     1      -1.759   5.131  25.337  0.00  0.00    +0.035 A 
ATOM     24  S   UNL     1      -1.874   4.336  25.143  0.00  0.00    -0.089 S 
ENDBRANCH  19  20
ENDBRANCH  18  19
ENDBRANCH   3  18
TORSDOF 6
ENDMDL
MODEL 5
REMARK VINA RESULT:      -7.7      3.863      4.401
REMARK  Name = 
REMARK  6 active torsions:
REMARK  status: ('A' for Active; 'I' for Inactive)
REMARK    1  A    between atoms: C_3  and  N_18
REMARK    2  A    between atoms: C_6  and  C_7
REMARK    3  A    between atoms: C_7  and  N_8
REMARK    4  A    between atoms: C_9  and  C_11
REMARK    5  A    between atoms: N_18  and  C_19
REMARK    6  A    between atoms: C_19  and  C_20
REMARK                            x       y       z     vdW  Elec       q    Type
REMARK                         _______ _______ _______ _____ _____    ______ ____
ROOT
ATOM      1  O   UNL     1       0.625   1.446  24.229  0.00  0.00    -0.219 OA
ATOM      2  C   UNL     1       0.529   0.730  23.831  0.00  0.00    +0.199 C 
ATOM      3  C   UNL     1       1.087   0.367  23.343  0.00  0.00    +0.135 C 
ATOM      4  C   UNL     1       0.761  -0.336  23.062  0.00  0.00    +0.162 C 
ATOM      5  O   UNL     1       0.001  -0.408  23.375  0.00  0.00    -0.350 OA
ATOM      6  C   UNL     1      -0.142   0.250  23.850  0.00  0.00    +0.169 C 
ENDROOT
BRANCH   6   7
ATOM      7  C   UNL     1      -0.835   0.403  24.271  0.00  0.00    +0.148 C 
BRANCH   7   8
ATOM      8  N   UNL     1      -1.509  -0.052  24.134  0.00  0.00    -0.199 NA
ATOM      9  C   UNL     1      -2.160   0.013  24.637  0.00  0.00    +0.265 C 
ATOM     10  O   UNL     1      -2.136   0.534  25.276  0.00  0.00    -0.268 OA
BRANCH   9  11
ATOM     11  C   UNL     1      -2.834  -0.442  24.500  0.00  0.00    +0.055 A 
ATOM     12  C   UNL     1      -3.455  -0.137  24.050  0.00  0.00    +0.007 A 
ATOM     13  C   UNL     1      -4.129  -0.592  23.913  0.00  0.00    +0.030 A 
ATOM     14  C   UNL     1      -4.183  -1.352  24.226  0.00  0.00    +0.140 A 
ATOM     15  F   UNL     1      -4.857  -1.808  24.090  0.00  0.00    -0.204 F 
ATOM     16  C   UNL     1      -3.563  -1.659  24.677  0.00  0.00    +0.030 A 
ATOM     17  C   UNL     1      -2.889  -1.204  24.814  0.00  0.00    +0.007 A 
ENDBRANCH   9  11
ENDBRANCH   7   8
ENDBRANCH   6   7
BRANCH   3  18
ATOM     18  N   UNL     1       1.840   0.657  23.168  0.00  0.00    -0.209 NA
BRANCH  18  19
ATOM     19  C   UNL     1       2.393   0.170  22.798  0.00  0.00    +0.122 C 
BRANCH  19  20
ATOM     20  C   UNL     1       3.195   0.367  22.819  0.00  0.00    +0.025 A 
ATOM     21  C   UNL     1       3.526   1.080  22.565  0.00  0.00    +0.004 A 
ATOM     22  C   UNL     1       4.341   1.039  22.686  0.00  0.00    +0.007 A 
ATOM     23  C   UNL     1       4.514   0.302  23.015  0.00  0.00    +0.035 A 
ATOM     24  S   UNL     1       3.805  -0.113  23.096  0.00  0.00    -0.089 S 
ENDBRANCH  19  20
ENDBRANCH  18  19
ENDBRANCH   3  18
TORSDOF 6
ENDMDL
MODEL 6
REMARK VINA RESULT:      -7.5      3.189      4.509
REMARK  Name = 
REMARK  6 active torsions:
REMARK  status: ('A' for Active; 'I' for Inactive)
REMARK    1  A    between atoms: C_3  and  N_18
REMARK    2  A    between atoms: C_6  and  C_7
REMARK    3  A    between atoms: C_7  and  N_8
REMARK    4  A    between atoms: C_9  and  C_11
REMARK    5  A    between atoms: N_18  and  C_19
REMARK    6  A    between atoms: C_19  and  C_20
REMARK                            x       y       z     vdW  Elec       q    Type
REMARK                         _______ _______ _______ _____ _____    ______ ____
ROOT
ATOM      1  O   UNL     1      -0.669   2.607  23.824  0.00  0.00    -0.219 OA
ATOM      2  C   UNL     1      -0.889   1.929  24.241  0.00  0.00    +0.199 C 
ATOM      3  C   UNL     1      -0.481   1.213  24.251  0.00  0.00    +0.135 C 
ATOM      4  C   UNL     1      -0.895   0.691  24.737  0.00  0.00    +0.162 C 
ATOM      5  O   UNL     1      -1.559   1.084  25.027  0.00  0.00    -0.350 OA
ATOM      6  C   UNL     1      -1.556   1.850  24.721  0.00  0.00    +0.169 C 
ENDROOT
BRANCH   6   7
ATOM      7  C   UNL     1      -2.120   2.433  24.868  0.00  0.00    +0.148 C 
BRANCH   7   8
ATOM      8  N   UNL     1      -2.913   2.227  24.955  0.00  0.00    -0.199 NA
ATOM      9  C   UNL     1      -3.489   2.815  25.016  0.00  0.00    +0.265 C 
ATOM     10  O   UNL     1      -3.269   3.610  24.989  0.00  0.00    -0.268 OA
BRANCH   9  11
ATOM     11  C   UNL     1      -4.283   2.609  25.104  0.00  0.00    +0.055 A 
ATOM     12  C   UNL     1      -4.637   2.095  24.565  0.00  0.00    +0.007 A 
ATOM     13  C   UNL     1      -5.431   1.888  24.652  0.00  0.00    +0.030 A 
ATOM     14  C   UNL     1      -5.870   2.196  25.279  0.00  0.00    +0.140 A 
ATOM     15  F   UNL     1      -6.664   1.989  25.367  0.00  0.00    -0.204 F 
ATOM     16  C   UNL     1      -5.516   2.710  25.818  0.00  0.00    +0.030 A 
ATOM     17  C   UNL     1      -4.722   2.916  25.731  0.00  0.00    +0.007 A 
ENDBRANCH   9  11
ENDBRANCH   7   8
ENDBRANCH   6   7
BRANCH   3  18
ATOM     18  N   UNL     1       0.219   1.047  23.847  0.00  0.00    -0.209 NA
BRANCH  18  19
ATOM     19  C   UNL     1       0.399   0.271  23.633  0.00  0.00    +0.122 C 
BRANCH  19  20
ATOM     20  C   UNL     1       1.030   0.119  23.124  0.00  0.00    +0.025 A 
ATOM     21  C   UNL     1       0.981  -0.250  22.387  0.00  0.00    +0.004 A 
ATOM     22  C   UNL     1       1.742  -0.288  22.071  0.00  0.00    +0.007 A 
ATOM     23  C   UNL     1       2.261   0.056  22.612  0.00  0.00    +0.035 A 
ATOM     24  S   UNL     1       1.821   0.308  23.263  0.00  0.00    -0.089 S 
ENDBRANCH  19  20
ENDBRANCH  18  19
ENDBRANCH   3  18
TORSDOF 6
ENDMDL
MODEL 7
REMARK VINA RESULT:      -7.1      3.503      4.648
REMARK  Name = 
REMARK  6 active torsions:
REMARK  status: ('A' for Active; 'I' for Inactive)
REMARK    1  A    between atoms: C_3  and  N_18
REMARK    2  A    between atoms: C_6  and  C_7
REMARK    3  A    between atoms: C_7  and  N_8
REMARK    4  A    between atoms: C_9  and  C_11
REMARK    5  A    between atoms: N_18  and  C_19
REMARK    6  A    between atoms: C_19  and  C_20
REMARK                            x       y       z     vdW  Elec       q    Type
REMARK                         _______ _______ _______ _____ _____    ______ ____
ROOT
ATOM      1  O   UNL     1      -2.081   0.749  25.362  0.00  0.00    -0.219 OA
ATOM      2  C   UNL     1      -2.058   1.107  24.619  0.00  0.00    +0.199 C 
ATOM      3  C   UNL     1      -2.563   1.701  24.351  0.00  0.00    +0.135 C 
ATOM      4  C   UNL     1      -2.343   1.894  23.580  0.00  0.00    +0.162 C 
ATOM      5  O   UNL     1      -1.702   1.418  23.371  0.00  0.00    -0.350 OA
ATOM      6  C   UNL     1      -1.526   0.932  24.013  0.00  0.00    +0.169 C 
ENDROOT
BRANCH   6   7
ATOM      7  C   UNL     1      -0.924   0.369  24.044  0.00  0.00    +0.148 C 
BRANCH   7   8
ATOM      8  N   UNL     1      -0.228   0.486  23.617  0.00  0.00    -0.199 NA
ATOM      9  C   UNL     1       0.342  -0.110  23.586  0.00  0.00    +0.265 C 
ATOM     10  O   UNL     1       0.216  -0.822  23.982  0.00  0.00    -0.268 OA
BRANCH   9  11
ATOM     11  C   UNL     1       1.038   0.007  23.158  0.00  0.00    +0.055 A 
ATOM     12  C   UNL     1       1.123  -0.326  22.409  0.00  0.00    +0.007 A 
ATOM     13  C   UNL     1       1.819  -0.209  21.981  0.00  0.00    +0.030 A 
ATOM     14  C   UNL     1       2.430   0.241  22.304  0.00  0.00    +0.140 A 
ATOM     15  F   UNL     1       3.126   0.358  21.876  0.00  0.00    -0.204 F 
ATOM     16  C   UNL     1       2.346   0.575  23.053  0.00  0.00    +0.030 A 
ATOM     17  C   UNL     1       1.650   0.458  23.481  0.00  0.00    +0.007 A 
ENDBRANCH   9  11
ENDBRANCH   7   8
ENDBRANCH   6   7
BRANCH   3  18
ATOM     18  N   UNL     1      -3.180   2.043  24.779  0.00  0.00    -0.209 NA
BRANCH  18  19
ATOM     19  C   UNL     1      -3.840   2.342  24.384  0.00  0.00    +0.122 C 
BRANCH  19  20
ATOM     20  C   UNL     1      -4.496   2.599  24.814  0.00  0.00    +0.025 A 
ATOM     21  C   UNL     1      -5.218   2.205  24.881  0.00  0.00    +0.004 A 
ATOM     22  C   UNL     1      -5.713   2.658  25.360  0.00  0.00    +0.007 A 
ATOM     23  C   UNL     1      -5.297   3.333  25.590  0.00  0.00    +0.035 A 
ATOM     24  S   UNL     1      -4.545   3.297  25.252  0.00  0.00    -0.089 S 
ENDBRANCH  19  20
ENDBRANCH  18  19
ENDBRANCH   3  18
TORSDOF 6
ENDMDL
MODEL 8
REMARK VINA RESULT:      -6.9      4.926      6.362
REMARK  Name = 
REMARK  6 active torsions:
REMARK  status: ('A' for Active; 'I' for Inactive)
REMARK    1  A    between atoms: C_3  and  N_18
REMARK    2  A    between atoms: C_6  and  C_7
REMARK    3  A    between atoms: C_7  and  N_8
REMARK    4  A    between atoms: C_9  and  C_11
REMARK    5  A    between atoms: N_18  and  C_19
REMARK    6  A    between atoms: C_19  and  C_20
REMARK                            x       y       z     vdW  Elec       q    Type
REMARK                         _______ _______ _______ _____ _____    ______ ____
ROOT
ATOM      1  O   UNL     1      -0.534   0.836  23.096  0.00  0.00    -0.219 OA
ATOM      2  C   UNL     1      -0.269   0.186  23.529  0.00  0.00    +0.199 C 
ATOM      3  C   UNL     1      -0.675  -0.186  24.143  0.00  0.00    +0.135 C 
ATOM      4  C   UNL     1      -0.209  -0.808  24.417  0.00  0.00    +0.162 C 
ATOM      5  O   UNL     1       0.486  -0.821  23.973  0.00  0.00    -0.350 OA
ATOM      6  C   UNL     1       0.449  -0.207  23.424  0.00  0.00    +0.169 C 
ENDROOT
BRANCH   6   7
ATOM      7  C   UNL     1       1.028  -0.018  22.867  0.00  0.00    +0.148 C 
BRANCH   7   8
ATOM      8  N   UNL     1       1.812   0.078  23.105  0.00  0.00    -0.199 NA
ATOM      9  C   UNL     1       2.415   0.095  22.541  0.00  0.00    +0.265 C 
ATOM     10  O   UNL     1       2.232   0.015  21.740  0.00  0.00    -0.268 OA
BRANCH   9  11
ATOM     11  C   UNL     1       3.199   0.191  22.778  0.00  0.00    +0.055 A 
ATOM     12  C   UNL     1       3.608  -0.440  23.116  0.00  0.00    +0.007 A 
ATOM     13  C   UNL     1       4.393  -0.344  23.353  0.00  0.00    +0.030 A 
ATOM     14  C   UNL     1       4.767   0.384  23.252  0.00  0.00    +0.140 A 
ATOM     15  F   UNL     1       5.551   0.480  23.490  0.00  0.00    -0.204 F 
ATOM     16  C   UNL     1       4.358   1.016  22.914  0.00  0.00    +0.030 A 
ATOM     17  C   UNL     1       3.574   0.919  22.677  0.00  0.00    +0.007 A 
ENDBRANCH   9  11
ENDBRANCH   7   8
ENDBRANCH   6   7
BRANCH   3  18
ATOM     18  N   UNL     1      -1.418   0.028  24.432  0.00  0.00    -0.209 NA
BRANCH  18  19
ATOM     19  C   UNL     1      -1.808  -0.463  24.969  0.00  0.00    +0.122 C 
BRANCH  19  20
ATOM     20  C   UNL     1      -2.619  -0.376  25.093  0.00  0.00    +0.025 A 
ATOM     21  C   UNL     1      -3.052   0.320  25.000  0.00  0.00    +0.004 A 
ATOM     22  C   UNL     1      -3.840   0.156  25.181  0.00  0.00    +0.007 A 
ATOM     23  C   UNL     1      -3.894  -0.641  25.385  0.00  0.00    +0.035 A 
ATOM     24  S   UNL     1      -3.139  -0.970  25.331  0.00  0.00    -0.089 S 
ENDBRANCH  19  20
ENDBRANCH  18  19
ENDBRANCH   3  18
TORSDOF 6
ENDMDL
MODEL 9
REMARK VINA RESULT:      -6.6     15.967     18.523
REMARK  Name = 
REMARK  6 active torsions:
REMARK  status: ('A' for Active; 'I' for Inactive)
REMARK    1  A    between atoms: C_3  and  N_18
REMARK    2  A    between atoms: C_6  and  C_7
REMARK    3  A    between atoms: C_7  and  N_8
REMARK    4  A    between atoms: C_9  and  C_11
REMARK    5  A    between atoms: N_18  and  C_19
REMARK    6  A    between atoms: C_19  and  C_20
REMARK                            x       y       z     vdW  Elec       q    Type
REMARK                         _______ _______ _______ _____ _____    ______ ____
ROOT
ATOM      1  O   UNL     1      13.325   6.461  19.391  0.00  0.00    -0.219 OA
ATOM      2  C   UNL     1      13.601   7.221  19.228  0.00  0.00    +0.199 C 
ATOM      3  C   UNL     1      14.379   7.425  19.045  0.00  0.00    +0.135 C 
ATOM      4  C   UNL     1      14.406   8.240  18.922  0.00  0.00    +0.162 C 
ATOM      5  O   UNL     1      13.645   8.540  19.029  0.00  0.00    -0.350 OA
ATOM      6  C   UNL     1      13.147   7.910  19.218  0.00  0.00    +0.169 C 
ENDROOT
BRANCH   6   7
ATOM      7  C   UNL     1      12.339   7.961  19.370  0.00  0.00    +0.148 C 
BRANCH   7   8
ATOM      8  N   UNL     1      12.070   8.053  20.145  0.00  0.00    -0.199 NA
ATOM      9  C   UNL     1      11.267   8.175  20.291  0.00  0.00    +0.265 C 
ATOM     10  O   UNL     1      10.733   8.204  19.663  0.00  0.00    -0.268 OA
BRANCH   9  11
ATOM     11  C   UNL     1      10.998   8.268  21.065  0.00  0.00    +0.055 A 
ATOM     12  C   UNL     1      10.666   7.628  21.467  0.00  0.00    +0.007 A 
ATOM     13  C   UNL     1      10.397   7.721  22.241  0.00  0.00    +0.030 A 
ATOM     14  C   UNL     1      10.461   8.453  22.614  0.00  0.00    +0.140 A 
ATOM     15  F   UNL     1      10.192   8.546  23.389  0.00  0.00    -0.204 F 
ATOM     16  C   UNL     1      10.793   9.094  22.214  0.00  0.00    +0.030 A 
ATOM     17  C   UNL     1      11.062   9.001  21.439  0.00  0.00    +0.007 A 
ENDBRANCH   9  11
ENDBRANCH   7   8
ENDBRANCH   6   7
BRANCH   3  18
ATOM     18  N   UNL     1      15.018   6.905  18.994  0.00  0.00    -0.209 NA
BRANCH  18  19
ATOM     19  C   UNL     1      15.780   7.170  19.163  0.00  0.00    +0.122 C 
BRANCH  19  20
ATOM     20  C   UNL     1      16.397   6.628  19.242  0.00  0.00    +0.025 A 
ATOM     21  C   UNL     1      16.666   6.110  18.659  0.00  0.00    +0.004 A 
ATOM     22  C   UNL     1      17.288   5.671  18.974  0.00  0.00    +0.007 A 
ATOM     23  C   UNL     1      17.405   5.917  19.753  0.00  0.00    +0.035 A 
ATOM     24  S   UNL     1      16.854   6.509  19.919  0.00  0.00    -0.089 S 
ENDBRANCH  19  20
ENDBRANCH  18  19
ENDBRANCH   3  18
TORSDOF 6
ENDMDL
MODEL 10
REMARK VINA RESULT:      -6.3     17.567     19.120
REMARK  Name = 
REMARK  6 active torsions:
REMARK  status: ('A' for Active; 'I' for Inactive)
REMARK    1  A    between atoms: C_3  and  N_18
REMARK    2  A    between atoms: C_6  and  C_7
REMARK    3  A    between atoms: C_7  and  N_8
REMARK    4  A    between atoms: C_9  and  C_11
REMARK    5  A    between atoms: N_18  and  C_19
REMARK    6  A    between atoms: C_19  and  C_20
REMARK                            x       y       z     vdW  Elec       q    Type
REMARK                         _______ _______ _______ _____ _____    ______ ____
ROOT
ATOM      1  O   UNL     1      13.326   6.868  20.026  0.00  0.00    -0.219 OA
ATOM      2  C   UNL     1      13.616   7.629  19.894  0.00  0.00    +0.199 C 
ATOM      3  C   UNL     1      14.374   7.897  20.074  0.00  0.00    +0.135 C 
ATOM      4  C   UNL     1      14.425   8.689  19.850  0.00  0.00    +0.162 C 
ATOM      5  O   UNL     1      13.698   8.911  19.531  0.00  0.00    -0.350 OA
ATOM      6  C   UNL     1      13.197   8.256  19.558  0.00  0.00    +0.169 C 
ENDROOT
BRANCH   6   7
ATOM      7  C   UNL     1      12.416   8.232  19.295  0.00  0.00    +0.148 C 
BRANCH   7   8
ATOM      8  N   UNL     1      12.240   8.400  18.507  0.00  0.00    -0.199 NA
ATOM      9  C   UNL     1      11.455   8.419  18.254  0.00  0.00    +0.265 C 
ATOM     10  O   UNL     1      10.846   8.269  18.790  0.00  0.00    -0.268 OA
BRANCH   9  11
ATOM     11  C   UNL     1      11.280   8.587  17.466  0.00  0.00    +0.055 A 
ATOM     12  C   UNL     1      10.517   8.463  17.177  0.00  0.00    +0.007 A 
ATOM     13  C   UNL     1      10.342   8.632  16.389  0.00  0.00    +0.030 A 
ATOM     14  C   UNL     1      10.929   8.924  15.889  0.00  0.00    +0.140 A 
ATOM     15  F   UNL     1      10.753   9.092  15.101  0.00  0.00    -0.204 F 
ATOM     16  C   UNL     1      11.692   9.048  16.177  0.00  0.00    +0.030 A 
ATOM     17  C   UNL     1      11.867   8.879  16.965  0.00  0.00    +0.007 A 
ENDBRANCH   9  11
ENDBRANCH   7   8
ENDBRANCH   6   7
BRANCH   3  18
ATOM     18  N   UNL     1      14.977   7.451  20.419  0.00  0.00    -0.209 NA
BRANCH  18  19
ATOM     19  C   UNL     1      15.753   7.731  20.412  0.00  0.00    +0.122 C 
BRANCH  19  20
ATOM     20  C   UNL     1      16.379   7.215  20.562  0.00  0.00    +0.025 A 
ATOM     21  C   UNL     1      16.847   6.842  19.994  0.00  0.00    +0.004 A 
ATOM     22  C   UNL     1      17.404   6.377  20.387  0.00  0.00    +0.007 A 
ATOM     23  C   UNL     1      17.281   6.464  21.199  0.00  0.00    +0.035 A 
ATOM     24  S   UNL     1      16.647   6.981  21.306  0.00  0.00    -0.089 S 
ENDBRANCH  19  20
ENDBRANCH  18  19
ENDBRANCH   3  18
TORSDOF 6
ENDMDL
