REMARK  Name = 
REMARK  5 active torsions:
REMARK  status: ('A' for Active; 'I' for Inactive)
REMARK    1  A    between atoms: N_3  and  C_20
REMARK    2  A    between atoms: N_7  and  C_8
REMARK    3  A    between atoms: C_8  and  C_9
REMARK    4  A    between atoms: C_9  and  C_10
REMARK    5  A    between atoms: C_10  and  C_11
REMARK                            x       y       z     vdW  Elec       q    Type
REMARK                         _______ _______ _______ _____ _____    ______ ____
ROOT
ATOM      1  O   UNL     1       0.884  -2.150   0.000  0.00  0.00    -0.252 OA
ATOM      2  C   UNL     1       1.139  -1.365   0.000  0.00  0.00    +0.307 C 
ATOM      3  N   UNL     1       0.654  -0.698   0.000  0.00  0.00    -0.264 N 
ATOM      4  C   UNL     1       1.139  -0.030   0.000  0.00  0.00    +0.116 C 
ATOM      5  C   UNL     1       1.923  -0.285   0.000  0.00  0.00    +0.113 C 
ATOM      6  C   UNL     1       2.638   0.127   0.000  0.00  0.00    +0.094 C 
ATOM      7  N   UNL     1       3.352  -0.285   0.000  0.00  0.00    -0.270 NA
ATOM     17  C   UNL     1       3.352  -1.110   0.000  0.00  0.00    +0.094 C 
ATOM     18  C   UNL     1       2.638  -1.523   0.000  0.00  0.00    +0.112 C 
ATOM     19  N   UNL     1       1.923  -1.110   0.000  0.00  0.00    -0.261 N 
ENDROOT
BRANCH   3  20
ATOM     20  C   UNL     1      -0.171  -0.698   0.000  0.00  0.00    +0.082 C 
ATOM     21  C   UNL     1      -0.584  -1.412   0.000  0.00  0.00    +0.052 C 
ATOM     22  C   UNL     1      -1.409  -1.412   0.000  0.00  0.00    +0.144 C 
ATOM     23  O   UNL     1      -1.821  -0.698   0.000  0.00  0.00    -0.354 OA
ATOM     24  C   UNL     1      -1.409   0.017   0.000  0.00  0.00    +0.144 C 
ATOM     25  C   UNL     1      -0.584   0.017   0.000  0.00  0.00    +0.052 C 
ENDBRANCH   3  20
BRANCH   7   8
ATOM      8  C   UNL     1       4.067   0.127   0.000  0.00  0.00    +0.073 C 
BRANCH   8   9
ATOM      9  C   UNL     1       4.781  -0.285   0.000  0.00  0.00    +0.022 C 
BRANCH   9  10
ATOM     10  C   UNL     1       5.496   0.127   0.000  0.00  0.00    +0.028 C 
BRANCH  10  11
ATOM     11  C   UNL     1       6.210  -0.285   0.000  0.00  0.00    -0.022 A 
ATOM     12  C   UNL     1       6.925   0.127   0.000  0.00  0.00    -0.004 A 
ATOM     13  C   UNL     1       7.639  -0.285   0.000  0.00  0.00    -0.000 A 
ATOM     14  C   UNL     1       7.639  -1.110   0.000  0.00  0.00    -0.000 A 
ATOM     15  C   UNL     1       6.925  -1.523   0.000  0.00  0.00    -0.000 A 
ATOM     16  C   UNL     1       6.210  -1.110   0.000  0.00  0.00    -0.004 A 
ENDBRANCH  10  11
ENDBRANCH   9  10
ENDBRANCH   8   9
ENDBRANCH   7   8
TORSDOF 5
