MODEL 1
REMARK VINA RESULT:     -11.6      0.000      0.000
REMARK  Name = 
REMARK  7 active torsions:
REMARK  status: ('A' for Active; 'I' for Inactive)
REMARK    1  A    between atoms: C_2  and  C_3
REMARK    2  A    between atoms: C_5  and  C_6
REMARK    3  A    between atoms: C_6  and  N_7
REMARK    4  A    between atoms: C_8  and  C_10
REMARK    5  A    between atoms: C_19  and  N_22
REMARK    6  A    between atoms: N_25  and  C_28
REMARK    7  A    between atoms: C_30  and  C_34
REMARK                            x       y       z     vdW  Elec       q    Type
REMARK                         _______ _______ _______ _____ _____    ______ ____
ROOT
ATOM      3  C   UNL     1       0.951   0.067  23.376  0.00  0.00    +0.180 C 
ATOM      4  O   UNL     1       0.421  -0.384  23.821  0.00  0.00    -0.350 OA
ATOM      5  C   UNL     1      -0.091   0.134  24.208  0.00  0.00    +0.154 C 
ATOM     19  C   UNL     1       0.120   0.903  24.002  0.00  0.00    +0.120 C 
ATOM     20  C   UNL     1       0.764   0.863  23.488  0.00  0.00    +0.198 C 
ATOM     21  O   UNL     1       1.154   1.504  23.146  0.00  0.00    -0.219 OA
ENDROOT
BRANCH  19  22
ATOM     22  N   UNL     1      -0.247   1.594  24.264  0.00  0.00    -0.267 NA
ATOM     23  C   UNL     1      -0.853   1.933  23.818  0.00  0.00    +0.094 C 
ATOM     24  C   UNL     1      -1.221   2.623  24.079  0.00  0.00    +0.108 C 
ATOM     25  N   UNL     1      -0.982   2.976  24.785  0.00  0.00    -0.305 N 
ATOM     26  C   UNL     1      -0.375   2.639  25.231  0.00  0.00    +0.108 C 
ATOM     27  C   UNL     1      -0.008   1.948  24.970  0.00  0.00    +0.094 C 
BRANCH  25  28
ATOM     28  C   UNL     1      -1.349   3.668  25.046  0.00  0.00    +0.048 A 
ATOM     29  C   UNL     1      -2.076   3.627  25.434  0.00  0.00    +0.018 A 
ATOM     30  C   UNL     1      -2.444   4.318  25.694  0.00  0.00    +0.073 A 
ATOM     31  C   UNL     1      -2.085   5.050  25.567  0.00  0.00    +0.004 A 
ATOM     32  C   UNL     1      -1.358   5.091  25.180  0.00  0.00    +0.001 A 
ATOM     33  C   UNL     1      -0.990   4.399  24.919  0.00  0.00    +0.015 A 
BRANCH  30  34
ATOM     34  C   UNL     1      -3.171   4.278  26.082  0.00  0.00    +0.419 C 
ATOM     35  F   UNL     1      -3.899   4.238  26.470  0.00  0.00    -0.166 F 
ATOM     36  F   UNL     1      -2.783   4.273  26.811  0.00  0.00    -0.166 F 
ATOM     37  F   UNL     1      -3.560   4.283  25.355  0.00  0.00    -0.166 F 
ENDBRANCH  30  34
ENDBRANCH  25  28
ENDBRANCH  19  22
BRANCH   3   2
ATOM      1  O   UNL     1       1.382  -0.600  22.189  0.00  0.00    -0.218 OA
ATOM      2  C   UNL     1       1.559  -0.227  22.903  0.00  0.00    +0.214 C 
ENDBRANCH   3   2
BRANCH   5   6
ATOM      6  C   UNL     1      -0.708  -0.081  24.712  0.00  0.00    +0.146 C 
BRANCH   6   7
ATOM      7  N   UNL     1      -1.262  -0.643  24.469  0.00  0.00    -0.199 NA
ATOM      8  C   UNL     1      -1.800  -0.953  25.013  0.00  0.00    +0.265 C 
ATOM      9  O   UNL     1      -1.783  -0.701  25.798  0.00  0.00    -0.268 OA
BRANCH   8  10
ATOM     10  C   UNL     1      -2.354  -1.513  24.770  0.00  0.00    +0.057 A 
ATOM     11  C   UNL     1      -3.071  -1.271  24.444  0.00  0.00    +0.025 A 
ATOM     12  C   UNL     1      -3.625  -1.831  24.201  0.00  0.00    +0.101 A 
ATOM     13  C   UNL     1      -3.462  -2.636  24.286  0.00  0.00    +0.101 A 
ATOM     14  C   UNL     1      -2.744  -2.879  24.613  0.00  0.00    +0.021 A 
ATOM     15  C   UNL     1      -2.191  -2.318  24.855  0.00  0.00    +0.006 A 
ATOM     16  N   UNL     1      -4.109  -3.059  23.999  0.00  0.00    -0.222 NA
ATOM     17  C   UNL     1      -4.673  -2.516  23.738  0.00  0.00    +0.199 A 
ATOM     18  N   UNL     1      -4.373  -1.758  23.863  0.00  0.00    -0.222 NA
ENDBRANCH   8  10
ENDBRANCH   6   7
ENDBRANCH   5   6
TORSDOF 7
ENDMDL
MODEL 2
REMARK VINA RESULT:     -11.1      2.586      4.216
REMARK  Name = 
REMARK  7 active torsions:
REMARK  status: ('A' for Active; 'I' for Inactive)
REMARK    1  A    between atoms: C_2  and  C_3
REMARK    2  A    between atoms: C_5  and  C_6
REMARK    3  A    between atoms: C_6  and  N_7
REMARK    4  A    between atoms: C_8  and  C_10
REMARK    5  A    between atoms: C_19  and  N_22
REMARK    6  A    between atoms: N_25  and  C_28
REMARK    7  A    between atoms: C_30  and  C_34
REMARK                            x       y       z     vdW  Elec       q    Type
REMARK                         _______ _______ _______ _____ _____    ______ ____
ROOT
ATOM      3  C   UNL     1      -6.019   2.092  25.786  0.00  0.00    +0.180 C 
ATOM      4  O   UNL     1      -5.718   1.497  25.299  0.00  0.00    -0.350 OA
ATOM      5  C   UNL     1      -4.965   1.724  25.055  0.00  0.00    +0.154 C 
ATOM     19  C   UNL     1      -4.798   2.459  25.390  0.00  0.00    +0.120 C 
ATOM     20  C   UNL     1      -5.450   2.687  25.842  0.00  0.00    +0.198 C 
ATOM     21  O   UNL     1      -5.520   3.385  26.274  0.00  0.00    -0.219 OA
ENDROOT
BRANCH  19  22
ATOM     22  N   UNL     1      -4.103   2.892  25.292  0.00  0.00    -0.267 NA
ATOM     23  C   UNL     1      -3.495   2.826  25.846  0.00  0.00    +0.094 C 
ATOM     24  C   UNL     1      -2.800   3.258  25.748  0.00  0.00    +0.108 C 
ATOM     25  N   UNL     1      -2.712   3.756  25.097  0.00  0.00    -0.305 N 
ATOM     26  C   UNL     1      -3.319   3.822  24.542  0.00  0.00    +0.108 C 
ATOM     27  C   UNL     1      -4.015   3.390  24.640  0.00  0.00    +0.094 C 
BRANCH  25  28
ATOM     28  C   UNL     1      -2.015   4.189  24.999  0.00  0.00    +0.048 A 
ATOM     29  C   UNL     1      -1.341   3.822  24.698  0.00  0.00    +0.018 A 
ATOM     30  C   UNL     1      -0.645   4.255  24.600  0.00  0.00    +0.073 A 
ATOM     31  C   UNL     1      -0.624   5.054  24.804  0.00  0.00    +0.004 A 
ATOM     32  C   UNL     1      -1.299   5.421  25.105  0.00  0.00    +0.001 A 
ATOM     33  C   UNL     1      -1.995   4.988  25.203  0.00  0.00    +0.015 A 
BRANCH  30  34
ATOM     34  C   UNL     1       0.030   3.888  24.299  0.00  0.00    +0.419 C 
ATOM     35  F   UNL     1       0.705   3.523  23.997  0.00  0.00    -0.166 F 
ATOM     36  F   UNL     1       0.145   3.505  25.020  0.00  0.00    -0.166 F 
ATOM     37  F   UNL     1      -0.084   4.272  23.577  0.00  0.00    -0.166 F 
ENDBRANCH  30  34
ENDBRANCH  25  28
ENDBRANCH  19  22
BRANCH   3   2
ATOM      1  O   UNL     1      -6.934   1.525  26.725  0.00  0.00    -0.218 OA
ATOM      2  C   UNL     1      -6.758   2.091  26.152  0.00  0.00    +0.214 C 
ENDBRANCH   3   2
BRANCH   5   6
ATOM      6  C   UNL     1      -4.464   1.292  24.562  0.00  0.00    +0.146 C 
BRANCH   6   7
ATOM      7  N   UNL     1      -4.420   0.471  24.635  0.00  0.00    -0.199 NA
ATOM      8  C   UNL     1      -3.945   0.036  24.119  0.00  0.00    +0.265 C 
ATOM      9  O   UNL     1      -3.516   0.422  23.530  0.00  0.00    -0.268 OA
BRANCH   8  10
ATOM     10  C   UNL     1      -3.901  -0.784  24.193  0.00  0.00    +0.057 A 
ATOM     11  C   UNL     1      -3.354  -1.123  24.708  0.00  0.00    +0.025 A 
ATOM     12  C   UNL     1      -3.309  -1.943  24.783  0.00  0.00    +0.101 A 
ATOM     13  C   UNL     1      -3.812  -2.425  24.341  0.00  0.00    +0.101 A 
ATOM     14  C   UNL     1      -4.361  -2.086  23.825  0.00  0.00    +0.021 A 
ATOM     15  C   UNL     1      -4.404  -1.266  23.752  0.00  0.00    +0.006 A 
ATOM     16  N   UNL     1      -3.643  -3.210  24.528  0.00  0.00    -0.222 NA
ATOM     17  C   UNL     1      -3.035  -3.214  25.085  0.00  0.00    +0.199 A 
ATOM     18  N   UNL     1      -2.829  -2.431  25.242  0.00  0.00    -0.222 NA
ENDBRANCH   8  10
ENDBRANCH   6   7
ENDBRANCH   5   6
TORSDOF 7
ENDMDL
MODEL 3
REMARK VINA RESULT:     -11.1      3.114      6.590
REMARK  Name = 
REMARK  7 active torsions:
REMARK  status: ('A' for Active; 'I' for Inactive)
REMARK    1  A    between atoms: C_2  and  C_3
REMARK    2  A    between atoms: C_5  and  C_6
REMARK    3  A    between atoms: C_6  and  N_7
REMARK    4  A    between atoms: C_8  and  C_10
REMARK    5  A    between atoms: C_19  and  N_22
REMARK    6  A    between atoms: N_25  and  C_28
REMARK    7  A    between atoms: C_30  and  C_34
REMARK                            x       y       z     vdW  Elec       q    Type
REMARK                         _______ _______ _______ _____ _____    ______ ____
ROOT
ATOM      3  C   UNL     1      -5.429   2.739  25.341  0.00  0.00    +0.180 C 
ATOM      4  O   UNL     1      -4.638   2.933  25.471  0.00  0.00    -0.350 OA
ATOM      5  C   UNL     1      -4.185   2.258  25.335  0.00  0.00    +0.154 C 
ATOM     19  C   UNL     1      -4.694   1.647  25.121  0.00  0.00    +0.120 C 
ATOM     20  C   UNL     1      -5.464   1.944  25.124  0.00  0.00    +0.198 C 
ATOM     21  O   UNL     1      -6.148   1.521  24.942  0.00  0.00    -0.219 OA
ENDROOT
BRANCH  19  22
ATOM     22  N   UNL     1      -4.475   0.874  24.935  0.00  0.00    -0.267 NA
ATOM     23  C   UNL     1      -4.463   0.296  25.524  0.00  0.00    +0.094 C 
ATOM     24  C   UNL     1      -4.245  -0.477  25.339  0.00  0.00    +0.108 C 
ATOM     25  N   UNL     1      -4.037  -0.673  24.565  0.00  0.00    -0.305 N 
ATOM     26  C   UNL     1      -4.049  -0.096  23.976  0.00  0.00    +0.108 C 
ATOM     27  C   UNL     1      -4.268   0.678  24.161  0.00  0.00    +0.094 C 
BRANCH  25  28
ATOM     28  C   UNL     1      -3.818  -1.447  24.380  0.00  0.00    +0.048 A 
ATOM     29  C   UNL     1      -3.065  -1.721  24.578  0.00  0.00    +0.018 A 
ATOM     30  C   UNL     1      -2.846  -2.495  24.393  0.00  0.00    +0.073 A 
ATOM     31  C   UNL     1      -3.380  -2.994  24.011  0.00  0.00    +0.004 A 
ATOM     32  C   UNL     1      -4.133  -2.721  23.813  0.00  0.00    +0.001 A 
ATOM     33  C   UNL     1      -4.352  -1.947  23.998  0.00  0.00    +0.015 A 
BRANCH  30  34
ATOM     34  C   UNL     1      -2.093  -2.769  24.590  0.00  0.00    +0.419 C 
ATOM     35  F   UNL     1      -1.341  -3.043  24.787  0.00  0.00    -0.166 F 
ATOM     36  F   UNL     1      -1.815  -2.541  23.847  0.00  0.00    -0.166 F 
ATOM     37  F   UNL     1      -2.371  -2.997  25.332  0.00  0.00    -0.166 F 
ENDBRANCH  30  34
ENDBRANCH  25  28
ENDBRANCH  19  22
BRANCH   3   2
ATOM      1  O   UNL     1      -5.968   3.999  25.746  0.00  0.00    -0.218 OA
ATOM      2  C   UNL     1      -6.072   3.251  25.414  0.00  0.00    +0.214 C 
ENDBRANCH   3   2
BRANCH   5   6
ATOM      6  C   UNL     1      -3.364   2.204  25.402  0.00  0.00    +0.146 C 
BRANCH   6   7
ATOM      7  N   UNL     1      -2.890   2.849  25.203  0.00  0.00    -0.199 NA
ATOM      8  C   UNL     1      -2.079   2.828  25.355  0.00  0.00    +0.265 C 
ATOM      9  O   UNL     1      -1.743   2.162  25.707  0.00  0.00    -0.268 OA
BRANCH   8  10
ATOM     10  C   UNL     1      -1.606   3.473  25.156  0.00  0.00    +0.057 A 
ATOM     11  C   UNL     1      -1.883   4.241  25.273  0.00  0.00    +0.025 A 
ATOM     12  C   UNL     1      -1.410   4.886  25.074  0.00  0.00    +0.101 A 
ATOM     13  C   UNL     1      -0.658   4.764  24.757  0.00  0.00    +0.101 A 
ATOM     14  C   UNL     1      -0.380   3.995  24.639  0.00  0.00    +0.021 A 
ATOM     15  C   UNL     1      -0.854   3.351  24.839  0.00  0.00    +0.006 A 
ATOM     16  N   UNL     1      -0.318   5.501  24.614  0.00  0.00    -0.222 NA
ATOM     17  C   UNL     1      -0.859   6.080  24.843  0.00  0.00    +0.199 A 
ATOM     18  N   UNL     1      -1.533   5.699  25.127  0.00  0.00    -0.222 NA
ENDBRANCH   8  10
ENDBRANCH   6   7
ENDBRANCH   5   6
TORSDOF 7
ENDMDL
MODEL 4
REMARK VINA RESULT:     -10.5      1.703      2.251
REMARK  Name = 
REMARK  7 active torsions:
REMARK  status: ('A' for Active; 'I' for Inactive)
REMARK    1  A    between atoms: C_2  and  C_3
REMARK    2  A    between atoms: C_5  and  C_6
REMARK    3  A    between atoms: C_6  and  N_7
REMARK    4  A    between atoms: C_8  and  C_10
REMARK    5  A    between atoms: C_19  and  N_22
REMARK    6  A    between atoms: N_25  and  C_28
REMARK    7  A    between atoms: C_30  and  C_34
REMARK                            x       y       z     vdW  Elec       q    Type
REMARK                         _______ _______ _______ _____ _____    ______ ____
ROOT
ATOM      3  C   UNL     1       0.244   1.898  24.250  0.00  0.00    +0.180 C 
ATOM      4  O   UNL     1       0.071   1.216  24.681  0.00  0.00    -0.350 OA
ATOM      5  C   UNL     1      -0.707   1.275  24.948  0.00  0.00    +0.154 C 
ATOM     19  C   UNL     1      -1.014   1.992  24.683  0.00  0.00    +0.120 C 
ATOM     20  C   UNL     1      -0.426   2.378  24.252  0.00  0.00    +0.198 C 
ATOM     21  O   UNL     1      -0.496   3.113  23.886  0.00  0.00    -0.219 OA
ENDROOT
BRANCH  19  22
ATOM     22  N   UNL     1      -1.776   2.276  24.824  0.00  0.00    -0.267 NA
ATOM     23  C   UNL     1      -2.368   2.165  24.260  0.00  0.00    +0.094 C 
ATOM     24  C   UNL     1      -3.129   2.448  24.400  0.00  0.00    +0.108 C 
ATOM     25  N   UNL     1      -3.300   2.844  25.104  0.00  0.00    -0.305 N 
ATOM     26  C   UNL     1      -2.708   2.956  25.668  0.00  0.00    +0.108 C 
ATOM     27  C   UNL     1      -1.946   2.672  25.528  0.00  0.00    +0.094 C 
BRANCH  25  28
ATOM     28  C   UNL     1      -4.062   3.128  25.244  0.00  0.00    +0.048 A 
ATOM     29  C   UNL     1      -4.668   2.603  25.435  0.00  0.00    +0.018 A 
ATOM     30  C   UNL     1      -5.431   2.887  25.575  0.00  0.00    +0.073 A 
ATOM     31  C   UNL     1      -5.585   3.695  25.524  0.00  0.00    +0.004 A 
ATOM     32  C   UNL     1      -4.979   4.220  25.332  0.00  0.00    +0.001 A 
ATOM     33  C   UNL     1      -4.217   3.936  25.192  0.00  0.00    +0.015 A 
BRANCH  30  34
ATOM     34  C   UNL     1      -6.038   2.362  25.767  0.00  0.00    +0.419 C 
ATOM     35  F   UNL     1      -6.645   1.838  25.958  0.00  0.00    -0.166 F 
ATOM     36  F   UNL     1      -5.866   2.454  26.569  0.00  0.00    -0.166 F 
ATOM     37  F   UNL     1      -6.211   2.269  24.966  0.00  0.00    -0.166 F 
ENDBRANCH  30  34
ENDBRANCH  25  28
ENDBRANCH  19  22
BRANCH   3   2
ATOM      1  O   UNL     1       1.552   1.493  23.840  0.00  0.00    -0.218 OA
ATOM      2  C   UNL     1       0.963   2.069  23.883  0.00  0.00    +0.214 C 
ENDBRANCH   3   2
BRANCH   5   6
ATOM      6  C   UNL     1      -1.108   0.714  25.401  0.00  0.00    +0.146 C 
BRANCH   6   7
ATOM      7  N   UNL     1      -1.423   0.041  25.041  0.00  0.00    -0.199 NA
ATOM      8  C   UNL     1      -1.621  -0.617  25.498  0.00  0.00    +0.265 C 
ATOM      9  O   UNL     1      -1.505  -0.602  26.315  0.00  0.00    -0.268 OA
BRANCH   8  10
ATOM     10  C   UNL     1      -1.936  -1.288  25.139  0.00  0.00    +0.057 A 
ATOM     11  C   UNL     1      -2.753  -1.370  25.060  0.00  0.00    +0.025 A 
ATOM     12  C   UNL     1      -3.068  -2.042  24.700  0.00  0.00    +0.101 A 
ATOM     13  C   UNL     1      -2.566  -2.633  24.419  0.00  0.00    +0.101 A 
ATOM     14  C   UNL     1      -1.748  -2.552  24.497  0.00  0.00    +0.021 A 
ATOM     15  C   UNL     1      -1.434  -1.879  24.857  0.00  0.00    +0.006 A 
ATOM     16  N   UNL     1      -3.032  -3.229  24.091  0.00  0.00    -0.222 NA
ATOM     17  C   UNL     1      -3.822  -3.007  24.170  0.00  0.00    +0.199 A 
ATOM     18  N   UNL     1      -3.844  -2.274  24.546  0.00  0.00    -0.222 NA
ENDBRANCH   8  10
ENDBRANCH   6   7
ENDBRANCH   5   6
TORSDOF 7
ENDMDL
MODEL 5
REMARK VINA RESULT:     -10.3      3.018      5.091
REMARK  Name = 
REMARK  7 active torsions:
REMARK  status: ('A' for Active; 'I' for Inactive)
REMARK    1  A    between atoms: C_2  and  C_3
REMARK    2  A    between atoms: C_5  and  C_6
REMARK    3  A    between atoms: C_6  and  N_7
REMARK    4  A    between atoms: C_8  and  C_10
REMARK    5  A    between atoms: C_19  and  N_22
REMARK    6  A    between atoms: N_25  and  C_28
REMARK    7  A    between atoms: C_30  and  C_34
REMARK                            x       y       z     vdW  Elec       q    Type
REMARK                         _______ _______ _______ _____ _____    ______ ____
ROOT
ATOM      3  C   UNL     1      -0.556   3.330  24.723  0.00  0.00    +0.180 C 
ATOM      4  O   UNL     1      -1.322   3.427  24.433  0.00  0.00    -0.350 OA
ATOM      5  C   UNL     1      -1.664   2.681  24.360  0.00  0.00    +0.154 C 
ATOM     19  C   UNL     1      -1.110   2.122  24.605  0.00  0.00    +0.120 C 
ATOM     20  C   UNL     1      -0.424   2.522  24.830  0.00  0.00    +0.198 C 
ATOM     21  O   UNL     1       0.269   2.177  25.111  0.00  0.00    -0.219 OA
ENDROOT
BRANCH  19  22
ATOM     22  N   UNL     1      -1.220   1.304  24.623  0.00  0.00    -0.267 NA
ATOM     23  C   UNL     1      -1.420   0.931  25.331  0.00  0.00    +0.094 C 
ATOM     24  C   UNL     1      -1.530   0.114  25.350  0.00  0.00    +0.108 C 
ATOM     25  N   UNL     1      -1.440  -0.330  24.661  0.00  0.00    -0.305 N 
ATOM     26  C   UNL     1      -1.240   0.042  23.952  0.00  0.00    +0.108 C 
ATOM     27  C   UNL     1      -1.130   0.860  23.934  0.00  0.00    +0.094 C 
BRANCH  25  28
ATOM     28  C   UNL     1      -1.551  -1.148  24.680  0.00  0.00    +0.048 A 
ATOM     29  C   UNL     1      -2.313  -1.462  24.644  0.00  0.00    +0.018 A 
ATOM     30  C   UNL     1      -2.423  -2.280  24.663  0.00  0.00    +0.073 A 
ATOM     31  C   UNL     1      -1.771  -2.783  24.717  0.00  0.00    +0.004 A 
ATOM     32  C   UNL     1      -1.009  -2.469  24.753  0.00  0.00    +0.001 A 
ATOM     33  C   UNL     1      -0.899  -1.651  24.734  0.00  0.00    +0.015 A 
BRANCH  30  34
ATOM     34  C   UNL     1      -3.185  -2.595  24.627  0.00  0.00    +0.419 C 
ATOM     35  F   UNL     1      -3.947  -2.909  24.591  0.00  0.00    -0.166 F 
ATOM     36  F   UNL     1      -3.217  -2.612  25.451  0.00  0.00    -0.166 F 
ATOM     37  F   UNL     1      -3.153  -2.578  23.803  0.00  0.00    -0.166 F 
ENDBRANCH  30  34
ENDBRANCH  25  28
ENDBRANCH  19  22
BRANCH   3   2
ATOM      1  O   UNL     1      -0.257   4.722  24.845  0.00  0.00    -0.218 OA
ATOM      2  C   UNL     1      -0.016   3.933  24.880  0.00  0.00    +0.214 C 
ENDBRANCH   3   2
BRANCH   5   6
ATOM      6  C   UNL     1      -2.426   2.521  24.090  0.00  0.00    +0.146 C 
BRANCH   6   7
ATOM      7  N   UNL     1      -3.073   2.619  24.594  0.00  0.00    -0.199 NA
ATOM      8  C   UNL     1      -3.834   2.685  24.282  0.00  0.00    +0.265 C 
ATOM      9  O   UNL     1      -3.948   2.652  23.466  0.00  0.00    -0.268 OA
BRANCH   8  10
ATOM     10  C   UNL     1      -4.478   2.782  24.786  0.00  0.00    +0.057 A 
ATOM     11  C   UNL     1      -4.872   2.123  25.086  0.00  0.00    +0.025 A 
ATOM     12  C   UNL     1      -5.517   2.220  25.590  0.00  0.00    +0.101 A 
ATOM     13  C   UNL     1      -5.769   2.978  25.795  0.00  0.00    +0.101 A 
ATOM     14  C   UNL     1      -5.376   3.639  25.496  0.00  0.00    +0.021 A 
ATOM     15  C   UNL     1      -4.730   3.541  24.991  0.00  0.00    +0.006 A 
ATOM     16  N   UNL     1      -6.417   2.904  26.300  0.00  0.00    -0.222 NA
ATOM     17  C   UNL     1      -6.566   2.100  26.407  0.00  0.00    +0.199 A 
ATOM     18  N   UNL     1      -6.010   1.678  25.969  0.00  0.00    -0.222 NA
ENDBRANCH   8  10
ENDBRANCH   6   7
ENDBRANCH   5   6
TORSDOF 7
ENDMDL
MODEL 6
REMARK VINA RESULT:     -10.3      2.373      5.313
REMARK  Name = 
REMARK  7 active torsions:
REMARK  status: ('A' for Active; 'I' for Inactive)
REMARK    1  A    between atoms: C_2  and  C_3
REMARK    2  A    between atoms: C_5  and  C_6
REMARK    3  A    between atoms: C_6  and  N_7
REMARK    4  A    between atoms: C_8  and  C_10
REMARK    5  A    between atoms: C_19  and  N_22
REMARK    6  A    between atoms: N_25  and  C_28
REMARK    7  A    between atoms: C_30  and  C_34
REMARK                            x       y       z     vdW  Elec       q    Type
REMARK                         _______ _______ _______ _____ _____    ______ ____
ROOT
ATOM      3  C   UNL     1       1.326   0.622  23.241  0.00  0.00    +0.180 C 
ATOM      4  O   UNL     1       1.224   1.189  23.832  0.00  0.00    -0.350 OA
ATOM      5  C   UNL     1       0.543   0.998  24.254  0.00  0.00    +0.154 C 
ATOM     19  C   UNL     1       0.222   0.313  23.925  0.00  0.00    +0.120 C 
ATOM     20  C   UNL     1       0.706   0.081  23.298  0.00  0.00    +0.198 C 
ATOM     21  O   UNL     1       0.592  -0.577  22.814  0.00  0.00    -0.219 OA
ENDROOT
BRANCH  19  22
ATOM     22  N   UNL     1      -0.462  -0.073  24.176  0.00  0.00    -0.267 NA
ATOM     23  C   UNL     1      -0.409  -0.698  24.711  0.00  0.00    +0.094 C 
ATOM     24  C   UNL     1      -1.092  -1.085  24.963  0.00  0.00    +0.108 C 
ATOM     25  N   UNL     1      -1.829  -0.846  24.680  0.00  0.00    -0.305 N 
ATOM     26  C   UNL     1      -1.883  -0.221  24.145  0.00  0.00    +0.108 C 
ATOM     27  C   UNL     1      -1.199   0.166  23.893  0.00  0.00    +0.094 C 
BRANCH  25  28
ATOM     28  C   UNL     1      -2.513  -1.233  24.933  0.00  0.00    +0.048 A 
ATOM     29  C   UNL     1      -2.883  -1.780  24.438  0.00  0.00    +0.018 A 
ATOM     30  C   UNL     1      -3.568  -2.167  24.690  0.00  0.00    +0.073 A 
ATOM     31  C   UNL     1      -3.881  -2.007  25.436  0.00  0.00    +0.004 A 
ATOM     32  C   UNL     1      -3.511  -1.460  25.931  0.00  0.00    +0.001 A 
ATOM     33  C   UNL     1      -2.827  -1.073  25.679  0.00  0.00    +0.015 A 
BRANCH  30  34
ATOM     34  C   UNL     1      -3.938  -2.714  24.196  0.00  0.00    +0.419 C 
ATOM     35  F   UNL     1      -4.309  -3.262  23.703  0.00  0.00    -0.166 F 
ATOM     36  F   UNL     1      -4.334  -2.100  23.812  0.00  0.00    -0.166 F 
ATOM     37  F   UNL     1      -3.544  -3.328  24.580  0.00  0.00    -0.166 F 
ENDBRANCH  30  34
ENDBRANCH  25  28
ENDBRANCH  19  22
BRANCH   3   2
ATOM      1  O   UNL     1       2.689   0.877  22.896  0.00  0.00    -0.218 OA
ATOM      2  C   UNL     1       1.939   0.601  22.690  0.00  0.00    +0.214 C 
ENDBRANCH   3   2
BRANCH   5   6
ATOM      6  C   UNL     1       0.235   1.418  24.894  0.00  0.00    +0.146 C 
BRANCH   6   7
ATOM      7  N   UNL     1      -0.094   2.166  24.777  0.00  0.00    -0.199 NA
ATOM      8  C   UNL     1      -0.258   2.650  25.424  0.00  0.00    +0.265 C 
ATOM      9  O   UNL     1      -0.092   2.387  26.188  0.00  0.00    -0.268 OA
BRANCH   8  10
ATOM     10  C   UNL     1      -0.587   3.397  25.307  0.00  0.00    +0.057 A 
ATOM     11  C   UNL     1      -1.350   3.559  25.575  0.00  0.00    +0.025 A 
ATOM     12  C   UNL     1      -1.679   4.306  25.458  0.00  0.00    +0.101 A 
ATOM     13  C   UNL     1      -1.245   4.892  25.072  0.00  0.00    +0.101 A 
ATOM     14  C   UNL     1      -0.480   4.731  24.804  0.00  0.00    +0.021 A 
ATOM     15  C   UNL     1      -0.152   3.983  24.922  0.00  0.00    +0.006 A 
ATOM     16  N   UNL     1      -1.709   5.572  25.036  0.00  0.00    -0.222 NA
ATOM     17  C   UNL     1      -2.432   5.407  25.399  0.00  0.00    +0.199 A 
ATOM     18  N   UNL     1      -2.412   4.624  25.659  0.00  0.00    -0.222 NA
ENDBRANCH   8  10
ENDBRANCH   6   7
ENDBRANCH   5   6
TORSDOF 7
ENDMDL
MODEL 7
REMARK VINA RESULT:     -10.2      1.983      4.328
REMARK  Name = 
REMARK  7 active torsions:
REMARK  status: ('A' for Active; 'I' for Inactive)
REMARK    1  A    between atoms: C_2  and  C_3
REMARK    2  A    between atoms: C_5  and  C_6
REMARK    3  A    between atoms: C_6  and  N_7
REMARK    4  A    between atoms: C_8  and  C_10
REMARK    5  A    between atoms: C_19  and  N_22
REMARK    6  A    between atoms: N_25  and  C_28
REMARK    7  A    between atoms: C_30  and  C_34
REMARK                            x       y       z     vdW  Elec       q    Type
REMARK                         _______ _______ _______ _____ _____    ______ ____
ROOT
ATOM      3  C   UNL     1      -1.528  -1.654  24.637  0.00  0.00    +0.180 C 
ATOM      4  O   UNL     1      -0.866  -1.221  24.402  0.00  0.00    -0.350 OA
ATOM      5  C   UNL     1      -1.086  -0.429  24.347  0.00  0.00    +0.154 C 
ATOM     19  C   UNL     1      -1.883  -0.372  24.548  0.00  0.00    +0.120 C 
ATOM     20  C   UNL     1      -2.157  -1.129  24.728  0.00  0.00    +0.198 C 
ATOM     21  O   UNL     1      -2.923  -1.327  24.957  0.00  0.00    -0.219 OA
ENDROOT
BRANCH  19  22
ATOM     22  N   UNL     1      -2.331   0.321  24.567  0.00  0.00    -0.267 NA
ATOM     23  C   UNL     1      -2.302   0.813  25.229  0.00  0.00    +0.094 C 
ATOM     24  C   UNL     1      -2.749   1.505  25.249  0.00  0.00    +0.108 C 
ATOM     25  N   UNL     1      -3.226   1.707  24.606  0.00  0.00    -0.305 N 
ATOM     26  C   UNL     1      -3.255   1.216  23.944  0.00  0.00    +0.108 C 
ATOM     27  C   UNL     1      -2.807   0.523  23.924  0.00  0.00    +0.094 C 
BRANCH  25  28
ATOM     28  C   UNL     1      -3.673   2.400  24.626  0.00  0.00    +0.048 A 
ATOM     29  C   UNL     1      -4.349   2.441  25.096  0.00  0.00    +0.018 A 
ATOM     30  C   UNL     1      -4.797   3.134  25.116  0.00  0.00    +0.073 A 
ATOM     31  C   UNL     1      -4.568   3.786  24.665  0.00  0.00    +0.004 A 
ATOM     32  C   UNL     1      -3.891   3.745  24.195  0.00  0.00    +0.001 A 
ATOM     33  C   UNL     1      -3.444   3.052  24.175  0.00  0.00    +0.015 A 
BRANCH  30  34
ATOM     34  C   UNL     1      -5.473   3.175  25.587  0.00  0.00    +0.419 C 
ATOM     35  F   UNL     1      -6.149   3.217  26.058  0.00  0.00    -0.166 F 
ATOM     36  F   UNL     1      -5.900   2.765  25.012  0.00  0.00    -0.166 F 
ATOM     37  F   UNL     1      -5.048   3.586  26.162  0.00  0.00    -0.166 F 
ENDBRANCH  30  34
ENDBRANCH  25  28
ENDBRANCH  19  22
BRANCH   3   2
ATOM      1  O   UNL     1      -0.894  -2.864  25.058  0.00  0.00    -0.218 OA
ATOM      2  C   UNL     1      -1.555  -2.469  24.760  0.00  0.00    +0.214 C 
ENDBRANCH   3   2
BRANCH   5   6
ATOM      6  C   UNL     1      -0.595   0.197  24.129  0.00  0.00    +0.146 C 
BRANCH   6   7
ATOM      7  N   UNL     1       0.121   0.046  23.747  0.00  0.00    -0.199 NA
ATOM      8  C   UNL     1       0.627   0.669  23.556  0.00  0.00    +0.265 C 
ATOM      9  O   UNL     1       0.416   1.444  23.747  0.00  0.00    -0.268 OA
BRANCH   8  10
ATOM     10  C   UNL     1       1.342   0.518  23.175  0.00  0.00    +0.057 A 
ATOM     11  C   UNL     1       2.025   0.917  23.406  0.00  0.00    +0.025 A 
ATOM     12  C   UNL     1       2.741   0.766  23.025  0.00  0.00    +0.101 A 
ATOM     13  C   UNL     1       2.773   0.215  22.412  0.00  0.00    +0.101 A 
ATOM     14  C   UNL     1       2.089  -0.185  22.180  0.00  0.00    +0.021 A 
ATOM     15  C   UNL     1       1.374  -0.033  22.562  0.00  0.00    +0.006 A 
ATOM     16  N   UNL     1       3.551   0.181  22.140  0.00  0.00    -0.222 NA
ATOM     17  C   UNL     1       4.000   0.711  22.585  0.00  0.00    +0.199 A 
ATOM     18  N   UNL     1       3.499   1.072  23.132  0.00  0.00    -0.222 NA
ENDBRANCH   8  10
ENDBRANCH   6   7
ENDBRANCH   5   6
TORSDOF 7
ENDMDL
MODEL 8
REMARK VINA RESULT:      -9.8      2.783      5.615
REMARK  Name = 
REMARK  7 active torsions:
REMARK  status: ('A' for Active; 'I' for Inactive)
REMARK    1  A    between atoms: C_2  and  C_3
REMARK    2  A    between atoms: C_5  and  C_6
REMARK    3  A    between atoms: C_6  and  N_7
REMARK    4  A    between atoms: C_8  and  C_10
REMARK    5  A    between atoms: C_19  and  N_22
REMARK    6  A    between atoms: N_25  and  C_28
REMARK    7  A    between atoms: C_30  and  C_34
REMARK                            x       y       z     vdW  Elec       q    Type
REMARK                         _______ _______ _______ _____ _____    ______ ____
ROOT
ATOM      3  C   UNL     1      -0.429   2.793  24.756  0.00  0.00    +0.180 C 
ATOM      4  O   UNL     1       0.108   2.290  24.382  0.00  0.00    -0.350 OA
ATOM      5  C   UNL     1      -0.275   1.575  24.234  0.00  0.00    +0.154 C 
ATOM     19  C   UNL     1      -1.047   1.636  24.515  0.00  0.00    +0.120 C 
ATOM     20  C   UNL     1      -1.143   2.389  24.838  0.00  0.00    +0.198 C 
ATOM     21  O   UNL     1      -1.830   2.685  25.183  0.00  0.00    -0.219 OA
ENDROOT
BRANCH  19  22
ATOM     22  N   UNL     1      -1.625   1.047  24.481  0.00  0.00    -0.267 NA
ATOM     23  C   UNL     1      -1.703   0.511  25.103  0.00  0.00    +0.094 C 
ATOM     24  C   UNL     1      -2.280  -0.078  25.070  0.00  0.00    +0.108 C 
ATOM     25  N   UNL     1      -2.778  -0.130  24.415  0.00  0.00    -0.305 N 
ATOM     26  C   UNL     1      -2.700   0.406  23.793  0.00  0.00    +0.108 C 
ATOM     27  C   UNL     1      -2.123   0.995  23.826  0.00  0.00    +0.094 C 
BRANCH  25  28
ATOM     28  C   UNL     1      -3.356  -0.719  24.381  0.00  0.00    +0.048 A 
ATOM     29  C   UNL     1      -3.171  -1.490  24.609  0.00  0.00    +0.018 A 
ATOM     30  C   UNL     1      -3.749  -2.079  24.576  0.00  0.00    +0.073 A 
ATOM     31  C   UNL     1      -4.510  -1.896  24.315  0.00  0.00    +0.004 A 
ATOM     32  C   UNL     1      -4.694  -1.125  24.087  0.00  0.00    +0.001 A 
ATOM     33  C   UNL     1      -4.117  -0.536  24.120  0.00  0.00    +0.015 A 
BRANCH  30  34
ATOM     34  C   UNL     1      -3.565  -2.850  24.804  0.00  0.00    +0.419 C 
ATOM     35  F   UNL     1      -3.382  -3.622  25.032  0.00  0.00    -0.166 F 
ATOM     36  F   UNL     1      -3.420  -3.049  24.016  0.00  0.00    -0.166 F 
ATOM     37  F   UNL     1      -3.711  -2.652  25.591  0.00  0.00    -0.166 F 
ENDBRANCH  30  34
ENDBRANCH  25  28
ENDBRANCH  19  22
BRANCH   3   2
ATOM      1  O   UNL     1      -0.230   4.175  24.449  0.00  0.00    -0.218 OA
ATOM      2  C   UNL     1      -0.277   3.565  25.003  0.00  0.00    +0.214 C 
ENDBRANCH   3   2
BRANCH   5   6
ATOM      6  C   UNL     1       0.057   0.914  23.868  0.00  0.00    +0.146 C 
BRANCH   6   7
ATOM      7  N   UNL     1       0.821   0.954  23.558  0.00  0.00    -0.199 NA
ATOM      8  C   UNL     1       1.167   0.284  23.225  0.00  0.00    +0.265 C 
ATOM      9  O   UNL     1       0.749  -0.427  23.201  0.00  0.00    -0.268 OA
BRANCH   8  10
ATOM     10  C   UNL     1       1.930   0.324  22.916  0.00  0.00    +0.057 A 
ATOM     11  C   UNL     1       2.545   0.630  23.373  0.00  0.00    +0.025 A 
ATOM     12  C   UNL     1       3.309   0.670  23.064  0.00  0.00    +0.101 A 
ATOM     13  C   UNL     1       3.458   0.404  22.298  0.00  0.00    +0.101 A 
ATOM     14  C   UNL     1       2.843   0.097  21.840  0.00  0.00    +0.021 A 
ATOM     15  C   UNL     1       2.080   0.057  22.150  0.00  0.00    +0.006 A 
ATOM     16  N   UNL     1       4.260   0.512  22.142  0.00  0.00    -0.222 NA
ATOM     17  C   UNL     1       4.608   0.845  22.812  0.00  0.00    +0.199 A 
ATOM     18  N   UNL     1       4.019   0.942  23.381  0.00  0.00    -0.222 NA
ENDBRANCH   8  10
ENDBRANCH   6   7
ENDBRANCH   5   6
TORSDOF 7
ENDMDL
MODEL 9
REMARK VINA RESULT:      -9.5      1.912      4.278
REMARK  Name = 
REMARK  7 active torsions:
REMARK  status: ('A' for Active; 'I' for Inactive)
REMARK    1  A    between atoms: C_2  and  C_3
REMARK    2  A    between atoms: C_5  and  C_6
REMARK    3  A    between atoms: C_6  and  N_7
REMARK    4  A    between atoms: C_8  and  C_10
REMARK    5  A    between atoms: C_19  and  N_22
REMARK    6  A    between atoms: N_25  and  C_28
REMARK    7  A    between atoms: C_30  and  C_34
REMARK                            x       y       z     vdW  Elec       q    Type
REMARK                         _______ _______ _______ _____ _____    ______ ____
ROOT
ATOM      3  C   UNL     1      -3.429  -2.285  24.147  0.00  0.00    +0.180 C 
ATOM      4  O   UNL     1      -2.695  -2.020  24.416  0.00  0.00    -0.350 OA
ATOM      5  C   UNL     1      -2.780  -1.235  24.653  0.00  0.00    +0.154 C 
ATOM     19  C   UNL     1      -3.564  -1.014  24.532  0.00  0.00    +0.120 C 
ATOM     20  C   UNL     1      -3.967  -1.663  24.219  0.00  0.00    +0.198 C 
ATOM     21  O   UNL     1      -4.764  -1.686  24.013  0.00  0.00    -0.219 OA
ENDROOT
BRANCH  19  22
ATOM     22  N   UNL     1      -3.891  -0.275  24.694  0.00  0.00    -0.267 NA
ATOM     23  C   UNL     1      -4.192  -0.113  25.445  0.00  0.00    +0.094 C 
ATOM     24  C   UNL     1      -4.519   0.626  25.609  0.00  0.00    +0.108 C 
ATOM     25  N   UNL     1      -4.547   1.204  25.021  0.00  0.00    -0.305 N 
ATOM     26  C   UNL     1      -4.246   1.043  24.269  0.00  0.00    +0.108 C 
ATOM     27  C   UNL     1      -3.919   0.303  24.106  0.00  0.00    +0.094 C 
BRANCH  25  28
ATOM     28  C   UNL     1      -4.874   1.944  25.184  0.00  0.00    +0.048 A 
ATOM     29  C   UNL     1      -4.384   2.602  25.267  0.00  0.00    +0.018 A 
ATOM     30  C   UNL     1      -4.712   3.342  25.430  0.00  0.00    +0.073 A 
ATOM     31  C   UNL     1      -5.529   3.422  25.511  0.00  0.00    +0.004 A 
ATOM     32  C   UNL     1      -6.019   2.764  25.428  0.00  0.00    +0.001 A 
ATOM     33  C   UNL     1      -5.691   2.024  25.265  0.00  0.00    +0.015 A 
BRANCH  30  34
ATOM     34  C   UNL     1      -4.223   4.001  25.513  0.00  0.00    +0.419 C 
ATOM     35  F   UNL     1      -3.733   4.660  25.596  0.00  0.00    -0.166 F 
ATOM     36  F   UNL     1      -4.353   4.198  24.722  0.00  0.00    -0.166 F 
ATOM     37  F   UNL     1      -4.092   3.805  26.303  0.00  0.00    -0.166 F 
ENDBRANCH  30  34
ENDBRANCH  25  28
ENDBRANCH  19  22
BRANCH   3   2
ATOM      1  O   UNL     1      -3.474  -3.701  24.335  0.00  0.00    -0.218 OA
ATOM      2  C   UNL     1      -3.596  -3.039  23.857  0.00  0.00    +0.214 C 
ENDBRANCH   3   2
BRANCH   5   6
ATOM      6  C   UNL     1      -2.183  -0.755  24.959  0.00  0.00    +0.146 C 
BRANCH   6   7
ATOM      7  N   UNL     1      -1.559  -0.512  24.475  0.00  0.00    -0.199 NA
ATOM      8  C   UNL     1      -0.895  -0.154  24.807  0.00  0.00    +0.265 C 
ATOM      9  O   UNL     1      -0.854  -0.037  25.623  0.00  0.00    -0.268 OA
BRANCH   8  10
ATOM     10  C   UNL     1      -0.272   0.088  24.324  0.00  0.00    +0.057 A 
ATOM     11  C   UNL     1       0.124  -0.462  23.855  0.00  0.00    +0.025 A 
ATOM     12  C   UNL     1       0.747  -0.220  23.371  0.00  0.00    +0.101 A 
ATOM     13  C   UNL     1       0.973   0.573  23.356  0.00  0.00    +0.101 A 
ATOM     14  C   UNL     1       0.576   1.125  23.825  0.00  0.00    +0.021 A 
ATOM     15  C   UNL     1      -0.046   0.882  24.309  0.00  0.00    +0.006 A 
ATOM     16  N   UNL     1       1.603   0.649  22.829  0.00  0.00    -0.222 NA
ATOM     17  C   UNL     1       1.766  -0.097  22.518  0.00  0.00    +0.199 A 
ATOM     18  N   UNL     1       1.237  -0.634  22.853  0.00  0.00    -0.222 NA
ENDBRANCH   8  10
ENDBRANCH   6   7
ENDBRANCH   5   6
TORSDOF 7
ENDMDL
