MODEL 1
REMARK VINA RESULT:     -13.3      0.000      0.000
REMARK  Name = 
REMARK  2 active torsions:
REMARK  status: ('A' for Active; 'I' for Inactive)
REMARK    1  A    between atoms: O_2  and  C_3
REMARK    2  A    between atoms: C_6  and  C_9
REMARK                            x       y       z     vdW  Elec       q    Type
REMARK                         _______ _______ _______ _____ _____    ______ ____
ROOT
ATOM      9  C   UNL     1      -3.769   0.974  24.261  0.00  0.00    +0.012 A 
ATOM     10  C   UNL     1      -4.357   1.474  24.553  0.00  0.00    +0.041 A 
ATOM     11  C   UNL     1      -4.844   0.846  25.092  0.00  0.00    +0.056 C 
ATOM     12  C   UNL     1      -5.493   1.536  25.374  0.00  0.00    +0.094 C 
ATOM     13  N   UNL     1      -5.186   2.194  24.960  0.00  0.00    -0.218 NA
ATOM     14  C   UNL     1      -5.030   1.504  25.042  0.00  0.00    +0.091 C 
ATOM     15  C   UNL     1      -4.396   0.848  24.760  0.00  0.00    +0.041 C 
ATOM     16  C   UNL     1      -4.403   0.175  24.957  0.00  0.00    +0.011 C 
ATOM     17  C   UNL     1      -3.924   1.442  24.242  0.00  0.00    +0.110 C 
ATOM     18  N   UNL     1      -4.368   2.269  24.335  0.00  0.00    -0.299 N 
ATOM     19  C   UNL     1      -3.791   2.565  23.824  0.00  0.00    +0.261 A 
ATOM     20  O   UNL     1      -3.802   3.360  23.605  0.00  0.00    -0.267 OA
ATOM     21  C   UNL     1      -3.203   2.065  23.532  0.00  0.00    +0.061 A 
ATOM     22  C   UNL     1      -3.192   1.270  23.751  0.00  0.00    +0.006 A 
ENDROOT
BRANCH   9   6
ATOM      3  C   UNL     1      -3.736  -1.413  24.916  0.00  0.00    +0.139 A 
ATOM      4  C   UNL     1      -4.135  -1.177  24.233  0.00  0.00    +0.037 A 
ATOM      5  C   UNL     1      -4.146  -0.382  24.014  0.00  0.00    +0.003 A 
ATOM      6  C   UNL     1      -3.758   0.178  24.480  0.00  0.00    +0.001 A 
ATOM      7  C   UNL     1      -3.359  -0.056  25.162  0.00  0.00    +0.003 A 
ATOM      8  C   UNL     1      -3.348  -0.852  25.381  0.00  0.00    +0.037 A 
BRANCH   3   2
ATOM      1  C   UNL     1      -3.345  -2.762  24.656  0.00  0.00    +0.252 C 
ATOM      2  O   UNL     1      -3.725  -2.208  25.134  0.00  0.00    -0.471 OA
ENDBRANCH   3   2
ENDBRANCH   9   6
TORSDOF 2
ENDMDL
MODEL 2
REMARK VINA RESULT:     -13.2      1.524      3.511
REMARK  Name = 
REMARK  2 active torsions:
REMARK  status: ('A' for Active; 'I' for Inactive)
REMARK    1  A    between atoms: O_2  and  C_3
REMARK    2  A    between atoms: C_6  and  C_9
REMARK                            x       y       z     vdW  Elec       q    Type
REMARK                         _______ _______ _______ _____ _____    ______ ____
ROOT
ATOM      9  C   UNL     1      -4.005  -0.871  24.385  0.00  0.00    +0.012 A 
ATOM     10  C   UNL     1      -3.680  -1.307  25.006  0.00  0.00    +0.041 A 
ATOM     11  C   UNL     1      -3.479  -0.590  25.612  0.00  0.00    +0.056 C 
ATOM     12  C   UNL     1      -3.112  -1.214  26.285  0.00  0.00    +0.094 C 
ATOM     13  N   UNL     1      -3.221  -1.936  25.880  0.00  0.00    -0.218 NA
ATOM     14  C   UNL     1      -3.343  -1.244  25.765  0.00  0.00    +0.091 C 
ATOM     15  C   UNL     1      -3.702  -0.654  25.105  0.00  0.00    +0.041 C 
ATOM     16  C   UNL     1      -3.742   0.043  25.173  0.00  0.00    +0.011 C 
ATOM     17  C   UNL     1      -3.898  -1.334  24.519  0.00  0.00    +0.110 C 
ATOM     18  N   UNL     1      -3.622  -2.128  24.949  0.00  0.00    -0.299 N 
ATOM     19  C   UNL     1      -3.890  -2.513  24.270  0.00  0.00    +0.261 A 
ATOM     20  O   UNL     1      -3.832  -3.334  24.212  0.00  0.00    -0.267 OA
ATOM     21  C   UNL     1      -4.215  -2.078  23.649  0.00  0.00    +0.061 A 
ATOM     22  C   UNL     1      -4.273  -1.257  23.706  0.00  0.00    +0.006 A 
ENDROOT
BRANCH   9   6
ATOM      3  C   UNL     1      -4.178   1.592  24.557  0.00  0.00    +0.139 A 
ATOM      4  C   UNL     1      -3.519   1.248  24.198  0.00  0.00    +0.037 A 
ATOM      5  C   UNL     1      -3.461   0.427  24.141  0.00  0.00    +0.003 A 
ATOM      6  C   UNL     1      -4.063  -0.050  24.443  0.00  0.00    +0.001 A 
ATOM      7  C   UNL     1      -4.722   0.293  24.801  0.00  0.00    +0.003 A 
ATOM      8  C   UNL     1      -4.779   1.114  24.858  0.00  0.00    +0.037 A 
BRANCH   3   2
ATOM      1  C   UNL     1      -4.107   2.883  23.949  0.00  0.00    +0.252 C 
ATOM      2  O   UNL     1      -4.236   2.412  24.615  0.00  0.00    -0.471 OA
ENDBRANCH   3   2
ENDBRANCH   9   6
TORSDOF 2
ENDMDL
MODEL 3
REMARK VINA RESULT:     -11.9      3.421      4.491
REMARK  Name = 
REMARK  2 active torsions:
REMARK  status: ('A' for Active; 'I' for Inactive)
REMARK    1  A    between atoms: O_2  and  C_3
REMARK    2  A    between atoms: C_6  and  C_9
REMARK                            x       y       z     vdW  Elec       q    Type
REMARK                         _______ _______ _______ _____ _____    ______ ____
ROOT
ATOM      9  C   UNL     1      -1.889   3.205  25.513  0.00  0.00    +0.012 A 
ATOM     10  C   UNL     1      -1.343   3.802  25.346  0.00  0.00    +0.041 A 
ATOM     11  C   UNL     1      -1.950   4.518  25.146  0.00  0.00    +0.056 C 
ATOM     12  C   UNL     1      -1.208   5.146  24.969  0.00  0.00    +0.094 C 
ATOM     13  N   UNL     1      -0.559   4.639  25.111  0.00  0.00    -0.218 NA
ATOM     14  C   UNL     1      -1.271   4.601  25.122  0.00  0.00    +0.091 C 
ATOM     15  C   UNL     1      -1.977   3.982  25.296  0.00  0.00    +0.041 C 
ATOM     16  C   UNL     1      -2.661   4.134  25.253  0.00  0.00    +0.011 C 
ATOM     17  C   UNL     1      -1.403   3.290  25.489  0.00  0.00    +0.110 C 
ATOM     18  N   UNL     1      -0.535   3.646  25.389  0.00  0.00    -0.299 N 
ATOM     19  C   UNL     1      -0.271   2.892  25.599  0.00  0.00    +0.261 A 
ATOM     20  O   UNL     1       0.537   2.736  25.643  0.00  0.00    -0.267 OA
ATOM     21  C   UNL     1      -0.816   2.296  25.767  0.00  0.00    +0.061 A 
ATOM     22  C   UNL     1      -1.625   2.452  25.723  0.00  0.00    +0.006 A 
ENDROOT
BRANCH   9   6
ATOM      3  C   UNL     1      -4.316   3.674  25.383  0.00  0.00    +0.139 A 
ATOM      4  C   UNL     1      -3.921   3.355  24.731  0.00  0.00    +0.037 A 
ATOM      5  C   UNL     1      -3.112   3.198  24.775  0.00  0.00    +0.003 A 
ATOM      6  C   UNL     1      -2.698   3.362  25.470  0.00  0.00    +0.001 A 
ATOM      7  C   UNL     1      -3.092   3.680  26.120  0.00  0.00    +0.003 A 
ATOM      8  C   UNL     1      -3.900   3.837  26.077  0.00  0.00    +0.037 A 
BRANCH   3   2
ATOM      1  C   UNL     1      -5.668   3.263  25.590  0.00  0.00    +0.252 C 
ATOM      2  O   UNL     1      -5.124   3.830  25.339  0.00  0.00    -0.471 OA
ENDBRANCH   3   2
ENDBRANCH   9   6
TORSDOF 2
ENDMDL
MODEL 4
REMARK VINA RESULT:     -11.6      1.939      2.515
REMARK  Name = 
REMARK  2 active torsions:
REMARK  status: ('A' for Active; 'I' for Inactive)
REMARK    1  A    between atoms: O_2  and  C_3
REMARK    2  A    between atoms: C_6  and  C_9
REMARK                            x       y       z     vdW  Elec       q    Type
REMARK                         _______ _______ _______ _____ _____    ______ ____
ROOT
ATOM      9  C   UNL     1      -3.957   2.663  24.765  0.00  0.00    +0.012 A 
ATOM     10  C   UNL     1      -4.661   2.272  24.948  0.00  0.00    +0.041 A 
ATOM     11  C   UNL     1      -4.427   1.386  24.660  0.00  0.00    +0.056 C 
ATOM     12  C   UNL     1      -5.312   1.030  24.920  0.00  0.00    +0.094 C 
ATOM     13  N   UNL     1      -5.664   1.729  25.212  0.00  0.00    -0.218 NA
ATOM     14  C   UNL     1      -5.041   1.532  24.928  0.00  0.00    +0.091 C 
ATOM     15  C   UNL     1      -4.191   1.891  24.683  0.00  0.00    +0.041 C 
ATOM     16  C   UNL     1      -3.667   1.519  24.399  0.00  0.00    +0.011 C 
ATOM     17  C   UNL     1      -4.406   2.742  24.955  0.00  0.00    +0.110 C 
ATOM     18  N   UNL     1      -5.289   2.688  25.282  0.00  0.00    -0.299 N 
ATOM     19  C   UNL     1      -5.214   3.496  25.434  0.00  0.00    +0.261 A 
ATOM     20  O   UNL     1      -5.842   3.913  25.768  0.00  0.00    -0.267 OA
ATOM     21  C   UNL     1      -4.511   3.887  25.252  0.00  0.00    +0.061 A 
ATOM     22  C   UNL     1      -3.882   3.470  24.918  0.00  0.00    +0.006 A 
ENDROOT
BRANCH   9   6
ATOM      3  C   UNL     1      -2.070   1.413  23.763  0.00  0.00    +0.139 A 
ATOM      4  C   UNL     1      -2.135   1.475  24.584  0.00  0.00    +0.037 A 
ATOM      5  C   UNL     1      -2.764   1.891  24.918  0.00  0.00    +0.003 A 
ATOM      6  C   UNL     1      -3.328   2.246  24.431  0.00  0.00    +0.001 A 
ATOM      7  C   UNL     1      -3.264   2.185  23.611  0.00  0.00    +0.003 A 
ATOM      8  C   UNL     1      -2.635   1.768  23.277  0.00  0.00    +0.037 A 
BRANCH   3   2
ATOM      1  C   UNL     1      -0.681   1.083  23.734  0.00  0.00    +0.252 C 
ATOM      2  O   UNL     1      -1.442   0.997  23.429  0.00  0.00    -0.471 OA
ENDBRANCH   3   2
ENDBRANCH   9   6
TORSDOF 2
ENDMDL
MODEL 5
REMARK VINA RESULT:     -11.6      1.956      3.853
REMARK  Name = 
REMARK  2 active torsions:
REMARK  status: ('A' for Active; 'I' for Inactive)
REMARK    1  A    between atoms: O_2  and  C_3
REMARK    2  A    between atoms: C_6  and  C_9
REMARK                            x       y       z     vdW  Elec       q    Type
REMARK                         _______ _______ _______ _____ _____    ______ ____
ROOT
ATOM      9  C   UNL     1      -4.265   2.969  25.205  0.00  0.00    +0.012 A 
ATOM     10  C   UNL     1      -4.307   2.201  24.905  0.00  0.00    +0.041 A 
ATOM     11  C   UNL     1      -3.381   2.064  24.693  0.00  0.00    +0.056 C 
ATOM     12  C   UNL     1      -3.555   1.151  24.358  0.00  0.00    +0.094 C 
ATOM     13  N   UNL     1      -4.380   1.111  24.483  0.00  0.00    -0.218 NA
ATOM     14  C   UNL     1      -3.855   1.582  24.581  0.00  0.00    +0.091 C 
ATOM     15  C   UNL     1      -3.702   2.466  24.908  0.00  0.00    +0.041 C 
ATOM     16  C   UNL     1      -3.076   2.782  24.928  0.00  0.00    +0.011 C 
ATOM     17  C   UNL     1      -4.587   2.605  25.114  0.00  0.00    +0.110 C 
ATOM     18  N   UNL     1      -5.033   1.810  24.872  0.00  0.00    -0.299 N 
ATOM     19  C   UNL     1      -5.717   2.187  25.139  0.00  0.00    +0.261 A 
ATOM     20  O   UNL     1      -6.442   1.796  25.106  0.00  0.00    -0.267 OA
ATOM     21  C   UNL     1      -5.675   2.955  25.438  0.00  0.00    +0.061 A 
ATOM     22  C   UNL     1      -4.949   3.346  25.471  0.00  0.00    +0.006 A 
ENDROOT
BRANCH   9   6
ATOM      3  C   UNL     1      -2.088   4.142  25.304  0.00  0.00    +0.139 A 
ATOM      4  C   UNL     1      -2.353   3.707  25.953  0.00  0.00    +0.037 A 
ATOM      5  C   UNL     1      -3.078   3.316  25.920  0.00  0.00    +0.003 A 
ATOM      6  C   UNL     1      -3.540   3.360  25.237  0.00  0.00    +0.001 A 
ATOM      7  C   UNL     1      -3.276   3.795  24.588  0.00  0.00    +0.003 A 
ATOM      8  C   UNL     1      -2.550   4.186  24.621  0.00  0.00    +0.037 A 
BRANCH   3   2
ATOM      1  C   UNL     1      -1.293   5.300  25.040  0.00  0.00    +0.252 C 
ATOM      2  O   UNL     1      -1.363   4.533  25.336  0.00  0.00    -0.471 OA
ENDBRANCH   3   2
ENDBRANCH   9   6
TORSDOF 2
ENDMDL
