MODEL 1
REMARK VINA RESULT:     -15.0      0.000      0.000
REMARK  Name = 
REMARK  5 active torsions:
REMARK  status: ('A' for Active; 'I' for Inactive)
REMARK    1  A    between atoms: O_2  and  C_3
REMARK    2  A    between atoms: C_5  and  O_6
REMARK    3  A    between atoms: C_9  and  N_10
REMARK    4  A    between atoms: C_22  and  N_23
REMARK    5  A    between atoms: C_24  and  C_26
REMARK                            x       y       z     vdW  Elec       q    Type
REMARK                         _______ _______ _______ _____ _____    ______ ____
ROOT
ATOM     10  N   UNL     1      -3.254   0.087  24.338  0.00  0.00    -0.162 NA
ATOM     11  C   UNL     1      -3.889  -0.343  24.033  0.00  0.00    +0.327 C 
ATOM     12  O   UNL     1      -4.466   0.037  23.583  0.00  0.00    -0.250 OA
ATOM     13  N   UNL     1      -3.947  -1.153  24.179  0.00  0.00    -0.262 N 
ATOM     14  C   UNL     1      -4.257  -1.929  24.157  0.00  0.00    +0.097 C 
ATOM     15  C   UNL     1      -3.573  -2.396  24.695  0.00  0.00    +0.043 C 
ATOM     16  C   UNL     1      -3.105  -2.919  25.109  0.00  0.00    +0.011 C 
ATOM     17  C   UNL     1      -3.106  -2.234  24.954  0.00  0.00    +0.058 C 
ATOM     18  C   UNL     1      -3.776  -1.797  24.432  0.00  0.00    +0.101 C 
ATOM     19  C   UNL     1      -2.623  -1.464  25.087  0.00  0.00    +0.041 A 
ATOM     20  C   UNL     1      -1.938  -1.194  25.459  0.00  0.00    +0.014 A 
ATOM     21  C   UNL     1      -1.731  -0.397  25.412  0.00  0.00    +0.023 A 
ATOM     22  C   UNL     1      -2.207   0.130  24.991  0.00  0.00    +0.129 A 
ATOM     32  C   UNL     1      -2.892  -0.141  24.619  0.00  0.00    +0.276 A 
ATOM     33  O   UNL     1      -2.974   0.647  24.390  0.00  0.00    -0.266 OA
ATOM     34  N   UNL     1      -3.099  -0.938  24.667  0.00  0.00    -0.298 N 
ATOM     35  C   UNL     1      -3.075  -1.587  24.828  0.00  0.00    +0.110 C 
ENDROOT
BRANCH  10   9
ATOM      3  C   UNL     1      -2.732   1.979  23.384  0.00  0.00    +0.143 A 
ATOM      4  C   UNL     1      -3.083   2.517  23.902  0.00  0.00    +0.074 A 
ATOM      5  C   UNL     1      -3.490   2.245  24.566  0.00  0.00    +0.143 A 
ATOM      8  C   UNL     1      -3.547   1.435  24.711  0.00  0.00    +0.054 A 
ATOM      9  C   UNL     1      -3.197   0.896  24.193  0.00  0.00    +0.081 A 
ATOM     36  C   UNL     1      -2.790   1.169  23.530  0.00  0.00    +0.054 A 
BRANCH   3   2
ATOM      1  C   UNL     1      -2.724   2.364  22.008  0.00  0.00    +0.252 C 
ATOM      2  O   UNL     1      -2.325   2.252  22.721  0.00  0.00    -0.471 OA
ENDBRANCH   3   2
BRANCH   5   6
ATOM      6  O   UNL     1      -3.841   2.782  25.084  0.00  0.00    -0.471 OA
ATOM      7  C   UNL     1      -4.561   3.135  24.887  0.00  0.00    +0.252 C 
ENDBRANCH   5   6
ENDBRANCH  10   9
BRANCH  22  23
ATOM     23  N   UNL     1      -1.999   0.926  24.944  0.00  0.00    -0.174 NA
ATOM     24  C   UNL     1      -1.312   1.196  25.314  0.00  0.00    +0.245 C 
ATOM     25  O   UNL     1      -0.834   0.668  25.731  0.00  0.00    -0.273 OA
BRANCH  24  26
ATOM     26  C   UNL     1      -1.104   1.993  25.266  0.00  0.00    +0.079 C 
ATOM     27  C   UNL     1      -0.624   2.257  24.649  0.00  0.00    +0.009 C 
ATOM     28  C   UNL     1      -0.416   3.055  24.602  0.00  0.00    +0.000 C 
ATOM     29  C   UNL     1      -0.688   3.587  25.172  0.00  0.00    +0.000 C 
ATOM     30  C   UNL     1      -1.167   3.322  25.788  0.00  0.00    +0.000 C 
ATOM     31  C   UNL     1      -1.375   2.525  25.835  0.00  0.00    +0.009 C 
ENDBRANCH  24  26
ENDBRANCH  22  23
TORSDOF 5
ENDMDL
MODEL 2
REMARK VINA RESULT:     -14.8      1.000      2.479
REMARK  Name = 
REMARK  5 active torsions:
REMARK  status: ('A' for Active; 'I' for Inactive)
REMARK    1  A    between atoms: O_2  and  C_3
REMARK    2  A    between atoms: C_5  and  O_6
REMARK    3  A    between atoms: C_9  and  N_10
REMARK    4  A    between atoms: C_22  and  N_23
REMARK    5  A    between atoms: C_24  and  C_26
REMARK                            x       y       z     vdW  Elec       q    Type
REMARK                         _______ _______ _______ _____ _____    ______ ____
ROOT
ATOM     10  N   UNL     1      -2.308  -0.170  24.571  0.00  0.00    -0.162 NA
ATOM     11  C   UNL     1      -1.738  -0.765  24.518  0.00  0.00    +0.327 C 
ATOM     12  O   UNL     1      -0.941  -0.569  24.442  0.00  0.00    -0.250 OA
ATOM     13  N   UNL     1      -1.967  -1.558  24.539  0.00  0.00    -0.262 N 
ATOM     14  C   UNL     1      -1.895  -2.390  24.533  0.00  0.00    +0.097 C 
ATOM     15  C   UNL     1      -2.847  -2.640  24.623  0.00  0.00    +0.043 C 
ATOM     16  C   UNL     1      -3.572  -3.005  24.691  0.00  0.00    +0.011 C 
ATOM     17  C   UNL     1      -3.321  -2.350  24.668  0.00  0.00    +0.058 C 
ATOM     18  C   UNL     1      -2.397  -2.125  24.580  0.00  0.00    +0.101 C 
ATOM     19  C   UNL     1      -3.593  -1.473  24.693  0.00  0.00    +0.041 A 
ATOM     20  C   UNL     1      -4.276  -1.016  24.758  0.00  0.00    +0.014 A 
ATOM     21  C   UNL     1      -4.224  -0.192  24.753  0.00  0.00    +0.023 A 
ATOM     22  C   UNL     1      -3.488   0.174  24.683  0.00  0.00    +0.129 A 
ATOM     32  C   UNL     1      -2.804  -0.283  24.618  0.00  0.00    +0.276 A 
ATOM     33  O   UNL     1      -2.424   0.447  24.582  0.00  0.00    -0.266 OA
ATOM     34  N   UNL     1      -2.857  -1.106  24.623  0.00  0.00    -0.298 N 
ATOM     35  C   UNL     1      -3.121  -1.721  24.649  0.00  0.00    +0.110 C 
ENDROOT
BRANCH  10   9
ATOM      3  C   UNL     1      -1.646   1.805  25.225  0.00  0.00    +0.143 A 
ATOM      4  C   UNL     1      -1.620   2.206  24.504  0.00  0.00    +0.074 A 
ATOM      5  C   UNL     1      -1.823   1.816  23.806  0.00  0.00    +0.143 A 
ATOM      8  C   UNL     1      -2.052   1.024  23.829  0.00  0.00    +0.054 A 
ATOM      9  C   UNL     1      -2.078   0.622  24.550  0.00  0.00    +0.081 A 
ATOM     36  C   UNL     1      -1.876   1.013  25.246  0.00  0.00    +0.054 A 
BRANCH   3   2
ATOM      1  C   UNL     1      -0.656   2.388  26.074  0.00  0.00    +0.252 C 
ATOM      2  O   UNL     1      -1.444   2.196  25.922  0.00  0.00    -0.471 OA
ENDBRANCH   3   2
BRANCH   5   6
ATOM      6  O   UNL     1      -1.796   2.217  23.086  0.00  0.00    -0.471 OA
ATOM      7  C   UNL     1      -1.072   2.342  22.710  0.00  0.00    +0.252 C 
ENDBRANCH   5   6
ENDBRANCH  10   9
BRANCH  22  23
ATOM     23  N   UNL     1      -3.436   0.997  24.678  0.00  0.00    -0.174 NA
ATOM     24  C   UNL     1      -4.119   1.454  24.748  0.00  0.00    +0.245 C 
ATOM     25  O   UNL     1      -4.855   1.087  24.824  0.00  0.00    -0.273 OA
BRANCH  24  26
ATOM     26  C   UNL     1      -4.067   2.278  24.743  0.00  0.00    +0.079 C 
ATOM     27  C   UNL     1      -3.981   2.689  25.453  0.00  0.00    +0.009 C 
ATOM     28  C   UNL     1      -3.929   3.514  25.448  0.00  0.00    +0.000 C 
ATOM     29  C   UNL     1      -3.963   3.924  24.733  0.00  0.00    +0.000 C 
ATOM     30  C   UNL     1      -4.049   3.512  24.024  0.00  0.00    +0.000 C 
ATOM     31  C   UNL     1      -4.101   2.689  24.029  0.00  0.00    +0.009 C 
ENDBRANCH  24  26
ENDBRANCH  22  23
TORSDOF 5
ENDMDL
MODEL 3
REMARK VINA RESULT:     -14.8      1.000      2.267
REMARK  Name = 
REMARK  5 active torsions:
REMARK  status: ('A' for Active; 'I' for Inactive)
REMARK    1  A    between atoms: O_2  and  C_3
REMARK    2  A    between atoms: C_5  and  O_6
REMARK    3  A    between atoms: C_9  and  N_10
REMARK    4  A    between atoms: C_22  and  N_23
REMARK    5  A    between atoms: C_24  and  C_26
REMARK                            x       y       z     vdW  Elec       q    Type
REMARK                         _______ _______ _______ _____ _____    ______ ____
ROOT
ATOM     10  N   UNL     1      -2.308  -0.172  24.569  0.00  0.00    -0.162 NA
ATOM     11  C   UNL     1      -1.739  -0.768  24.516  0.00  0.00    +0.327 C 
ATOM     12  O   UNL     1      -0.941  -0.571  24.440  0.00  0.00    -0.250 OA
ATOM     13  N   UNL     1      -1.968  -1.560  24.538  0.00  0.00    -0.262 N 
ATOM     14  C   UNL     1      -1.896  -2.392  24.531  0.00  0.00    +0.097 C 
ATOM     15  C   UNL     1      -2.848  -2.642  24.621  0.00  0.00    +0.043 C 
ATOM     16  C   UNL     1      -3.573  -3.006  24.690  0.00  0.00    +0.011 C 
ATOM     17  C   UNL     1      -3.322  -2.351  24.666  0.00  0.00    +0.058 C 
ATOM     18  C   UNL     1      -2.398  -2.127  24.578  0.00  0.00    +0.101 C 
ATOM     19  C   UNL     1      -3.594  -1.474  24.691  0.00  0.00    +0.041 A 
ATOM     20  C   UNL     1      -4.277  -1.016  24.756  0.00  0.00    +0.014 A 
ATOM     21  C   UNL     1      -4.224  -0.193  24.751  0.00  0.00    +0.023 A 
ATOM     22  C   UNL     1      -3.488   0.173  24.681  0.00  0.00    +0.129 A 
ATOM     32  C   UNL     1      -2.804  -0.284  24.617  0.00  0.00    +0.276 A 
ATOM     33  O   UNL     1      -2.423   0.446  24.580  0.00  0.00    -0.266 OA
ATOM     34  N   UNL     1      -2.857  -1.108  24.622  0.00  0.00    -0.298 N 
ATOM     35  C   UNL     1      -3.122  -1.722  24.647  0.00  0.00    +0.110 C 
ENDROOT
BRANCH  10   9
ATOM      3  C   UNL     1      -1.822   1.815  23.807  0.00  0.00    +0.143 A 
ATOM      4  C   UNL     1      -1.618   2.204  24.506  0.00  0.00    +0.074 A 
ATOM      5  C   UNL     1      -1.644   1.802  25.225  0.00  0.00    +0.143 A 
ATOM      8  C   UNL     1      -1.874   1.009  25.246  0.00  0.00    +0.054 A 
ATOM      9  C   UNL     1      -2.078   0.620  24.548  0.00  0.00    +0.081 A 
ATOM     36  C   UNL     1      -2.051   1.023  23.829  0.00  0.00    +0.054 A 
BRANCH   3   2
ATOM      1  C   UNL     1      -1.073   2.342  22.710  0.00  0.00    +0.252 C 
ATOM      2  O   UNL     1      -1.795   2.218  23.088  0.00  0.00    -0.471 OA
ENDBRANCH   3   2
BRANCH   5   6
ATOM      6  O   UNL     1      -1.441   2.191  25.923  0.00  0.00    -0.471 OA
ATOM      7  C   UNL     1      -0.652   2.383  26.073  0.00  0.00    +0.252 C 
ENDBRANCH   5   6
ENDBRANCH  10   9
BRANCH  22  23
ATOM     23  N   UNL     1      -3.436   0.996  24.676  0.00  0.00    -0.174 NA
ATOM     24  C   UNL     1      -4.118   1.453  24.747  0.00  0.00    +0.245 C 
ATOM     25  O   UNL     1      -4.854   1.087  24.822  0.00  0.00    -0.273 OA
BRANCH  24  26
ATOM     26  C   UNL     1      -4.066   2.277  24.741  0.00  0.00    +0.079 C 
ATOM     27  C   UNL     1      -3.979   2.689  25.451  0.00  0.00    +0.009 C 
ATOM     28  C   UNL     1      -3.926   3.513  25.446  0.00  0.00    +0.000 C 
ATOM     29  C   UNL     1      -3.961   3.923  24.731  0.00  0.00    +0.000 C 
ATOM     30  C   UNL     1      -4.047   3.511  24.022  0.00  0.00    +0.000 C 
ATOM     31  C   UNL     1      -4.100   2.688  24.027  0.00  0.00    +0.009 C 
ENDBRANCH  24  26
ENDBRANCH  22  23
TORSDOF 5
ENDMDL
MODEL 4
REMARK VINA RESULT:     -14.1      1.315      4.660
REMARK  Name = 
REMARK  5 active torsions:
REMARK  status: ('A' for Active; 'I' for Inactive)
REMARK    1  A    between atoms: O_2  and  C_3
REMARK    2  A    between atoms: C_5  and  O_6
REMARK    3  A    between atoms: C_9  and  N_10
REMARK    4  A    between atoms: C_22  and  N_23
REMARK    5  A    between atoms: C_24  and  C_26
REMARK                            x       y       z     vdW  Elec       q    Type
REMARK                         _______ _______ _______ _____ _____    ______ ____
ROOT
ATOM     10  N   UNL     1      -1.407   2.079  25.046  0.00  0.00    -0.162 NA
ATOM     11  C   UNL     1      -0.727   2.528  25.177  0.00  0.00    +0.327 C 
ATOM     12  O   UNL     1       0.005   2.157  25.248  0.00  0.00    -0.250 OA
ATOM     13  N   UNL     1      -0.781   3.350  25.238  0.00  0.00    -0.262 N 
ATOM     14  C   UNL     1      -0.533   4.141  25.338  0.00  0.00    +0.097 C 
ATOM     15  C   UNL     1      -1.405   4.599  25.255  0.00  0.00    +0.043 C 
ATOM     16  C   UNL     1      -2.032   5.117  25.211  0.00  0.00    +0.011 C 
ATOM     17  C   UNL     1      -1.928   4.425  25.168  0.00  0.00    +0.058 C 
ATOM     18  C   UNL     1      -1.078   3.997  25.250  0.00  0.00    +0.101 C 
ATOM     19  C   UNL     1      -2.379   3.634  25.040  0.00  0.00    +0.041 A 
ATOM     20  C   UNL     1      -3.141   3.346  24.910  0.00  0.00    +0.014 A 
ATOM     21  C   UNL     1      -3.265   2.534  24.826  0.00  0.00    +0.023 A 
ATOM     22  C   UNL     1      -2.628   2.012  24.871  0.00  0.00    +0.129 A 
ATOM     32  C   UNL     1      -1.866   2.301  25.000  0.00  0.00    +0.276 A 
ATOM     33  O   UNL     1      -1.652   1.506  24.964  0.00  0.00    -0.266 OA
ATOM     34  N   UNL     1      -1.742   3.112  25.085  0.00  0.00    -0.298 N 
ATOM     35  C   UNL     1      -1.868   3.768  25.122  0.00  0.00    +0.110 C 
ENDROOT
BRANCH  10   9
ATOM      3  C   UNL     1      -1.395  -0.033  25.594  0.00  0.00    +0.143 A 
ATOM      4  C   UNL     1      -1.245  -0.384  24.862  0.00  0.00    +0.074 A 
ATOM      5  C   UNL     1      -1.149   0.087  24.192  0.00  0.00    +0.143 A 
ATOM      8  C   UNL     1      -1.203   0.908  24.253  0.00  0.00    +0.054 A 
ATOM      9  C   UNL     1      -1.353   1.258  24.985  0.00  0.00    +0.081 A 
ATOM     36  C   UNL     1      -1.449   0.787  25.655  0.00  0.00    +0.054 A 
BRANCH   3   2
ATOM      1  C   UNL     1      -0.848  -0.919  26.574  0.00  0.00    +0.252 C 
ATOM      2  O   UNL     1      -1.490  -0.505  26.264  0.00  0.00    -0.471 OA
ENDBRANCH   3   2
BRANCH   5   6
ATOM      6  O   UNL     1      -0.999  -0.263  23.460  0.00  0.00    -0.471 OA
ATOM      7  C   UNL     1      -0.239  -0.529  23.278  0.00  0.00    +0.252 C 
ENDBRANCH   5   6
ENDBRANCH  10   9
BRANCH  22  23
ATOM     23  N   UNL     1      -2.753   1.202  24.786  0.00  0.00    -0.174 NA
ATOM     24  C   UNL     1      -3.514   0.913  24.655  0.00  0.00    +0.245 C 
ATOM     25  O   UNL     1      -4.151   1.435  24.609  0.00  0.00    -0.273 OA
BRANCH  24  26
ATOM     26  C   UNL     1      -3.639   0.101  24.571  0.00  0.00    +0.079 C 
ATOM     27  C   UNL     1      -3.616  -0.243  23.821  0.00  0.00    +0.009 C 
ATOM     28  C   UNL     1      -3.741  -1.055  23.737  0.00  0.00    +0.000 C 
ATOM     29  C   UNL     1      -3.888  -1.521  24.402  0.00  0.00    +0.000 C 
ATOM     30  C   UNL     1      -3.911  -1.176  25.150  0.00  0.00    +0.000 C 
ATOM     31  C   UNL     1      -3.787  -0.365  25.235  0.00  0.00    +0.009 C 
ENDBRANCH  24  26
ENDBRANCH  22  23
TORSDOF 5
ENDMDL
MODEL 5
REMARK VINA RESULT:     -13.8      1.269      4.416
REMARK  Name = 
REMARK  5 active torsions:
REMARK  status: ('A' for Active; 'I' for Inactive)
REMARK    1  A    between atoms: O_2  and  C_3
REMARK    2  A    between atoms: C_5  and  O_6
REMARK    3  A    between atoms: C_9  and  N_10
REMARK    4  A    between atoms: C_22  and  N_23
REMARK    5  A    between atoms: C_24  and  C_26
REMARK                            x       y       z     vdW  Elec       q    Type
REMARK                         _______ _______ _______ _____ _____    ______ ____
ROOT
ATOM     10  N   UNL     1      -2.474   1.506  24.911  0.00  0.00    -0.162 NA
ATOM     11  C   UNL     1      -2.042   2.205  24.992  0.00  0.00    +0.327 C 
ATOM     12  O   UNL     1      -1.226   2.174  25.110  0.00  0.00    -0.250 OA
ATOM     13  N   UNL     1      -2.426   2.934  24.954  0.00  0.00    -0.262 N 
ATOM     14  C   UNL     1      -2.526   3.764  24.960  0.00  0.00    +0.097 C 
ATOM     15  C   UNL     1      -3.502   3.814  24.820  0.00  0.00    +0.043 C 
ATOM     16  C   UNL     1      -4.282   4.024  24.712  0.00  0.00    +0.011 C 
ATOM     17  C   UNL     1      -3.904   3.434  24.752  0.00  0.00    +0.058 C 
ATOM     18  C   UNL     1      -2.960   3.401  24.888  0.00  0.00    +0.101 C 
ATOM     19  C   UNL     1      -3.990   2.520  24.716  0.00  0.00    +0.041 A 
ATOM     20  C   UNL     1      -4.562   1.933  24.619  0.00  0.00    +0.014 A 
ATOM     21  C   UNL     1      -4.343   1.138  24.631  0.00  0.00    +0.023 A 
ATOM     22  C   UNL     1      -3.552   0.929  24.740  0.00  0.00    +0.129 A 
ATOM     32  C   UNL     1      -2.980   1.515  24.838  0.00  0.00    +0.276 A 
ATOM     33  O   UNL     1      -2.461   0.878  24.898  0.00  0.00    -0.266 OA
ATOM     34  N   UNL     1      -3.199   2.311  24.826  0.00  0.00    -0.298 N 
ATOM     35  C   UNL     1      -3.582   2.858  24.784  0.00  0.00    +0.110 C 
ENDROOT
BRANCH  10   9
ATOM      3  C   UNL     1      -1.634  -0.344  25.708  0.00  0.00    +0.143 A 
ATOM      4  C   UNL     1      -1.320  -0.681  25.023  0.00  0.00    +0.074 A 
ATOM      5  C   UNL     1      -1.391  -0.288  24.301  0.00  0.00    +0.143 A 
ATOM      8  C   UNL     1      -1.776   0.441  24.264  0.00  0.00    +0.054 A 
ATOM      9  C   UNL     1      -2.090   0.777  24.949  0.00  0.00    +0.081 A 
ATOM     36  C   UNL     1      -2.018   0.385  25.671  0.00  0.00    +0.054 A 
BRANCH   3   2
ATOM      1  C   UNL     1      -0.833  -0.767  26.814  0.00  0.00    +0.252 C 
ATOM      2  O   UNL     1      -1.562  -0.737  26.430  0.00  0.00    -0.471 OA
ENDBRANCH   3   2
BRANCH   5   6
ATOM      6  O   UNL     1      -1.078  -0.624  23.616  0.00  0.00    -0.471 OA
ATOM      7  C   UNL     1      -0.261  -0.645  23.503  0.00  0.00    +0.252 C 
ENDBRANCH   5   6
ENDBRANCH  10   9
BRANCH  22  23
ATOM     23  N   UNL     1      -3.334   0.134  24.752  0.00  0.00    -0.174 NA
ATOM     24  C   UNL     1      -3.906  -0.453  24.658  0.00  0.00    +0.245 C 
ATOM     25  O   UNL     1      -4.697  -0.244  24.552  0.00  0.00    -0.273 OA
BRANCH  24  26
ATOM     26  C   UNL     1      -3.687  -1.249  24.670  0.00  0.00    +0.079 C 
ATOM     27  C   UNL     1      -3.513  -1.638  23.964  0.00  0.00    +0.009 C 
ATOM     28  C   UNL     1      -3.294  -2.435  23.976  0.00  0.00    +0.000 C 
ATOM     29  C   UNL     1      -3.250  -2.839  24.694  0.00  0.00    +0.000 C 
ATOM     30  C   UNL     1      -3.424  -2.449  25.399  0.00  0.00    +0.000 C 
ATOM     31  C   UNL     1      -3.643  -1.654  25.387  0.00  0.00    +0.009 C 
ENDBRANCH  24  26
ENDBRANCH  22  23
TORSDOF 5
ENDMDL
