REMARK  Name = 
REMARK  3 active torsions:
REMARK  status: ('A' for Active; 'I' for Inactive)
REMARK    1  A    between atoms: C_2  and  N_4
REMARK    2  A    between atoms: C_9  and  C_10
REMARK    3  A    between atoms: C_12  and  C_15
REMARK                            x       y       z     vdW  Elec       q    Type
REMARK                         _______ _______ _______ _____ _____    ______ ____
ROOT
ATOM     10  C   UNL     1      -2.047  -3.270   0.000  0.00  0.00    +0.251 A 
ATOM     11  N   UNL     1      -2.715  -3.755   0.000  0.00  0.00    -0.190 NA
ATOM     12  C   UNL     1      -3.382  -3.270   0.000  0.00  0.00    +0.203 A 
ATOM     13  N   UNL     1      -3.127  -2.486   0.000  0.00  0.00    -0.056 NA
ATOM     14  O   UNL     1      -2.303  -2.486   0.000  0.00  0.00    -0.336 OA
ENDROOT
BRANCH  12  15
ATOM     15  C   UNL     1      -4.167  -3.525   0.000  0.00  0.00    +0.039 A 
ATOM     16  C   UNL     1      -4.338  -4.332   0.000  0.00  0.00    +0.005 A 
ATOM     17  C   UNL     1      -5.123  -4.587   0.000  0.00  0.00    +0.030 A 
ATOM     18  C   UNL     1      -5.736  -4.035   0.000  0.00  0.00    +0.140 A 
ATOM     19  F   UNL     1      -6.521  -4.290   0.000  0.00  0.00    -0.204 F 
ATOM     20  C   UNL     1      -5.565  -3.228   0.000  0.00  0.00    +0.030 A 
ATOM     21  C   UNL     1      -4.780  -2.973   0.000  0.00  0.00    +0.005 A 
ENDBRANCH  12  15
BRANCH  10   9
ATOM      4  N   UNL     1      -0.596  -3.041   0.000  0.00  0.00    -0.265 NA
ATOM      5  C   UNL     1       0.072  -3.525   0.000  0.00  0.00    +0.106 C 
ATOM      6  C   UNL     1      -0.183  -4.310   0.000  0.00  0.00    +0.170 C 
ATOM      7  O   UNL     1       0.302  -4.977   0.000  0.00  0.00    -0.222 OA
ATOM      8  C   UNL     1      -1.008  -4.310   0.000  0.00  0.00    +0.060 C 
ATOM      9  C   UNL     1      -1.263  -3.525   0.000  0.00  0.00    +0.140 C 
BRANCH   4   2
ATOM      1  C   UNL     1       0.119  -1.803   0.000  0.00  0.00    +0.017 C 
ATOM      2  C   UNL     1      -0.596  -2.216   0.000  0.00  0.00    +0.058 C 
ATOM      3  C   UNL     1      -1.310  -1.803   0.000  0.00  0.00    +0.017 C 
ENDBRANCH   4   2
ENDBRANCH  10   9
TORSDOF 3
