MODEL 1
REMARK VINA RESULT:      -8.2      0.000      0.000
REMARK  Name = 
REMARK  4 active torsions:
REMARK  status: ('A' for Active; 'I' for Inactive)
REMARK    1  A    between atoms: O_2  and  C_3
REMARK    2  A    between atoms: C_3  and  C_4
REMARK    3  A    between atoms: C_4  and  N_5
REMARK    4  A    between atoms: C_15  and  C_17
REMARK                            x       y       z     vdW  Elec       q    Type
REMARK                         _______ _______ _______ _____ _____    ______ ____
ROOT
ATOM      5  N   UNL     1      -3.339   2.186  24.667  0.00  0.00    -0.260 N 
ATOM      6  C   UNL     1      -2.705   1.658  24.618  0.00  0.00    +0.117 C 
ATOM      7  C   UNL     1      -3.010   0.893  24.633  0.00  0.00    +0.116 C 
ATOM      8  C   UNL     1      -2.647   0.152  24.601  0.00  0.00    +0.115 C 
ATOM      9  N   UNL     1      -3.104  -0.533  24.626  0.00  0.00    -0.276 N 
ATOM     10  C   UNL     1      -3.925  -0.480  24.684  0.00  0.00    +0.115 C 
ATOM     11  C   UNL     1      -4.289   0.259  24.716  0.00  0.00    +0.116 C 
ATOM     12  N   UNL     1      -3.832   0.946  24.690  0.00  0.00    -0.261 N 
ATOM     13  C   UNL     1      -4.034   1.745  24.712  0.00  0.00    +0.307 C 
ATOM     14  O   UNL     1      -4.799   2.050  24.768  0.00  0.00    -0.252 OA
ATOM     15  C   UNL     1      -2.740  -1.274  24.594  0.00  0.00    +0.225 C 
ATOM     16  O   UNL     1      -1.919  -1.327  24.537  0.00  0.00    -0.275 OA
ENDROOT
BRANCH  15  17
ATOM     17  C   UNL     1      -3.197  -1.959  24.620  0.00  0.00    +0.077 C 
ATOM     18  C   UNL     1      -3.650  -2.531  24.235  0.00  0.00    +0.010 C 
ATOM     19  C   UNL     1      -3.536  -2.577  25.051  0.00  0.00    +0.010 C 
ENDBRANCH  15  17
BRANCH   5   4
ATOM      4  C   UNL     1      -3.285   3.009  24.671  0.00  0.00    +0.127 C 
BRANCH   4   3
ATOM      3  C   UNL     1      -2.602   3.377  24.951  0.00  0.00    +0.164 C 
BRANCH   3   2
ATOM      1  C   UNL     1      -1.878   4.568  25.267  0.00  0.00    +0.174 C 
ATOM      2  O   UNL     1      -2.551   4.200  24.962  0.00  0.00    -0.349 OA
ENDBRANCH   3   2
ENDBRANCH   4   3
ENDBRANCH   5   4
TORSDOF 4
ENDMDL
MODEL 2
REMARK VINA RESULT:      -7.9      1.064      4.367
REMARK  Name = 
REMARK  4 active torsions:
REMARK  status: ('A' for Active; 'I' for Inactive)
REMARK    1  A    between atoms: O_2  and  C_3
REMARK    2  A    between atoms: C_3  and  C_4
REMARK    3  A    between atoms: C_4  and  N_5
REMARK    4  A    between atoms: C_15  and  C_17
REMARK                            x       y       z     vdW  Elec       q    Type
REMARK                         _______ _______ _______ _____ _____    ______ ____
ROOT
ATOM      5  N   UNL     1      -3.888   0.965  24.654  0.00  0.00    -0.260 N 
ATOM      6  C   UNL     1      -3.077   1.008  24.799  0.00  0.00    +0.117 C 
ATOM      7  C   UNL     1      -2.868   1.805  24.835  0.00  0.00    +0.116 C 
ATOM      8  C   UNL     1      -2.145   2.181  24.964  0.00  0.00    +0.115 C 
ATOM      9  N   UNL     1      -2.103   3.004  24.971  0.00  0.00    -0.276 N 
ATOM     10  C   UNL     1      -2.784   3.453  24.849  0.00  0.00    +0.115 C 
ATOM     11  C   UNL     1      -3.508   3.078  24.720  0.00  0.00    +0.116 C 
ATOM     12  N   UNL     1      -3.549   2.254  24.713  0.00  0.00    -0.261 N 
ATOM     13  C   UNL     1      -4.180   1.734  24.601  0.00  0.00    +0.307 C 
ATOM     14  O   UNL     1      -4.965   1.947  24.461  0.00  0.00    -0.252 OA
ATOM     15  C   UNL     1      -1.380   3.380  25.100  0.00  0.00    +0.225 C 
ATOM     16  O   UNL     1      -0.698   2.932  25.222  0.00  0.00    -0.275 OA
ENDROOT
BRANCH  15  17
ATOM     17  C   UNL     1      -1.338   4.204  25.107  0.00  0.00    +0.077 C 
ATOM     18  C   UNL     1      -1.616   4.931  25.379  0.00  0.00    +0.010 C 
ATOM     19  C   UNL     1      -0.986   4.904  24.847  0.00  0.00    +0.010 C 
ENDBRANCH  15  17
BRANCH   5   4
ATOM      4  C   UNL     1      -4.330   0.272  24.575  0.00  0.00    +0.127 C 
BRANCH   4   3
ATOM      3  C   UNL     1      -3.954  -0.439  24.394  0.00  0.00    +0.164 C 
BRANCH   3   2
ATOM      1  C   UNL     1      -4.038  -1.840  24.123  0.00  0.00    +0.174 C 
ATOM      2  O   UNL     1      -4.401  -1.101  24.187  0.00  0.00    -0.349 OA
ENDBRANCH   3   2
ENDBRANCH   4   3
ENDBRANCH   5   4
TORSDOF 4
ENDMDL
MODEL 3
REMARK VINA RESULT:      -7.9      1.349      1.916
REMARK  Name = 
REMARK  4 active torsions:
REMARK  status: ('A' for Active; 'I' for Inactive)
REMARK    1  A    between atoms: O_2  and  C_3
REMARK    2  A    between atoms: C_3  and  C_4
REMARK    3  A    between atoms: C_4  and  N_5
REMARK    4  A    between atoms: C_15  and  C_17
REMARK                            x       y       z     vdW  Elec       q    Type
REMARK                         _______ _______ _______ _____ _____    ______ ____
ROOT
ATOM      5  N   UNL     1      -1.495   2.082  25.110  0.00  0.00    -0.260 N 
ATOM      6  C   UNL     1      -2.304   1.965  24.996  0.00  0.00    +0.117 C 
ATOM      7  C   UNL     1      -2.435   1.155  24.920  0.00  0.00    +0.116 C 
ATOM      8  C   UNL     1      -3.124   0.716  24.799  0.00  0.00    +0.115 C 
ATOM      9  N   UNL     1      -3.085  -0.105  24.745  0.00  0.00    -0.276 N 
ATOM     10  C   UNL     1      -2.358  -0.489  24.811  0.00  0.00    +0.115 C 
ATOM     11  C   UNL     1      -1.669  -0.052  24.933  0.00  0.00    +0.116 C 
ATOM     12  N   UNL     1      -1.708   0.771  24.987  0.00  0.00    -0.261 N 
ATOM     13  C   UNL     1      -1.127   1.344  25.104  0.00  0.00    +0.307 C 
ATOM     14  O   UNL     1      -0.319   1.204  25.199  0.00  0.00    -0.252 OA
ATOM     15  C   UNL     1      -3.773  -0.544  24.623  0.00  0.00    +0.225 C 
ATOM     16  O   UNL     1      -4.500  -0.160  24.557  0.00  0.00    -0.275 OA
ENDROOT
BRANCH  15  17
ATOM     17  C   UNL     1      -3.735  -1.366  24.569  0.00  0.00    +0.077 C 
ATOM     18  C   UNL     1      -3.642  -2.103  24.929  0.00  0.00    +0.010 C 
ATOM     19  C   UNL     1      -3.760  -2.055  24.114  0.00  0.00    +0.010 C 
ENDBRANCH  15  17
BRANCH   5   4
ATOM      4  C   UNL     1      -1.119   2.810  25.211  0.00  0.00    +0.127 C 
BRANCH   4   3
ATOM      3  C   UNL     1      -1.562   3.507  25.208  0.00  0.00    +0.164 C 
BRANCH   3   2
ATOM      1  C   UNL     1      -1.509   4.933  25.156  0.00  0.00    +0.174 C 
ATOM      2  O   UNL     1      -1.214   4.218  25.441  0.00  0.00    -0.349 OA
ENDBRANCH   3   2
ENDBRANCH   4   3
ENDBRANCH   5   4
TORSDOF 4
ENDMDL
MODEL 4
REMARK VINA RESULT:      -7.5      1.581      3.645
REMARK  Name = 
REMARK  4 active torsions:
REMARK  status: ('A' for Active; 'I' for Inactive)
REMARK    1  A    between atoms: O_2  and  C_3
REMARK    2  A    between atoms: C_3  and  C_4
REMARK    3  A    between atoms: C_4  and  N_5
REMARK    4  A    between atoms: C_15  and  C_17
REMARK                            x       y       z     vdW  Elec       q    Type
REMARK                         _______ _______ _______ _____ _____    ______ ____
ROOT
ATOM      5  N   UNL     1      -1.616  -0.042  24.530  0.00  0.00    -0.260 N 
ATOM      6  C   UNL     1      -1.811   0.755  24.436  0.00  0.00    +0.117 C 
ATOM      7  C   UNL     1      -2.609   0.846  24.622  0.00  0.00    +0.116 C 
ATOM      8  C   UNL     1      -3.103   1.506  24.629  0.00  0.00    +0.115 C 
ATOM      9  N   UNL     1      -3.895   1.427  24.844  0.00  0.00    -0.276 N 
ATOM     10  C   UNL     1      -4.194   0.687  25.053  0.00  0.00    +0.115 C 
ATOM     11  C   UNL     1      -3.700   0.026  25.047  0.00  0.00    +0.116 C 
ATOM     12  N   UNL     1      -2.907   0.106  24.832  0.00  0.00    -0.261 N 
ATOM     13  C   UNL     1      -2.294  -0.442  24.775  0.00  0.00    +0.307 C 
ATOM     14  O   UNL     1      -2.349  -1.250  24.934  0.00  0.00    -0.252 OA
ATOM     15  C   UNL     1      -4.389   2.088  24.850  0.00  0.00    +0.225 C 
ATOM     16  O   UNL     1      -4.091   2.828  24.641  0.00  0.00    -0.275 OA
ENDROOT
BRANCH  15  17
ATOM     17  C   UNL     1      -5.181   2.009  25.065  0.00  0.00    +0.077 C 
ATOM     18  C   UNL     1      -5.965   1.850  24.862  0.00  0.00    +0.010 C 
ATOM     19  C   UNL     1      -5.771   2.032  25.643  0.00  0.00    +0.010 C 
ENDBRANCH  15  17
BRANCH   5   4
ATOM      4  C   UNL     1      -0.873  -0.377  24.402  0.00  0.00    +0.127 C 
BRANCH   4   3
ATOM      3  C   UNL     1      -0.341  -0.018  23.884  0.00  0.00    +0.164 C 
BRANCH   3   2
ATOM      1  C   UNL     1       0.847  -0.081  23.093  0.00  0.00    +0.174 C 
ATOM      2  O   UNL     1       0.346  -0.414  23.658  0.00  0.00    -0.349 OA
ENDBRANCH   3   2
ENDBRANCH   4   3
ENDBRANCH   5   4
TORSDOF 4
ENDMDL
MODEL 5
REMARK VINA RESULT:      -7.4      1.098      4.653
REMARK  Name = 
REMARK  4 active torsions:
REMARK  status: ('A' for Active; 'I' for Inactive)
REMARK    1  A    between atoms: O_2  and  C_3
REMARK    2  A    between atoms: C_3  and  C_4
REMARK    3  A    between atoms: C_4  and  N_5
REMARK    4  A    between atoms: C_15  and  C_17
REMARK                            x       y       z     vdW  Elec       q    Type
REMARK                         _______ _______ _______ _____ _____    ______ ____
ROOT
ATOM      5  N   UNL     1      -2.052  -0.137  24.787  0.00  0.00    -0.260 N 
ATOM      6  C   UNL     1      -2.625   0.420  24.580  0.00  0.00    +0.117 C 
ATOM      7  C   UNL     1      -2.341   1.166  24.788  0.00  0.00    +0.116 C 
ATOM      8  C   UNL     1      -2.667   1.921  24.715  0.00  0.00    +0.115 C 
ATOM      9  N   UNL     1      -2.245   2.579  24.977  0.00  0.00    -0.276 N 
ATOM     10  C   UNL     1      -1.497   2.484  25.312  0.00  0.00    +0.115 C 
ATOM     11  C   UNL     1      -1.171   1.730  25.385  0.00  0.00    +0.116 C 
ATOM     12  N   UNL     1      -1.594   1.071  25.123  0.00  0.00    -0.261 N 
ATOM     13  C   UNL     1      -1.415   0.266  25.123  0.00  0.00    +0.307 C 
ATOM     14  O   UNL     1      -0.721  -0.078  25.408  0.00  0.00    -0.252 OA
ATOM     15  C   UNL     1      -2.571   3.334  24.904  0.00  0.00    +0.225 C 
ATOM     16  O   UNL     1      -3.318   3.430  24.569  0.00  0.00    -0.275 OA
ENDROOT
BRANCH  15  17
ATOM     17  C   UNL     1      -2.149   3.993  25.166  0.00  0.00    +0.077 C 
ATOM     18  C   UNL     1      -1.560   4.557  25.047  0.00  0.00    +0.010 C 
ATOM     19  C   UNL     1      -2.008   4.570  25.739  0.00  0.00    +0.010 C 
ENDBRANCH  15  17
BRANCH   5   4
ATOM      4  C   UNL     1      -2.108  -0.952  24.678  0.00  0.00    +0.127 C 
BRANCH   4   3
ATOM      3  C   UNL     1      -2.848  -1.312  24.616  0.00  0.00    +0.164 C 
BRANCH   3   2
ATOM      1  C   UNL     1      -3.595  -2.529  24.594  0.00  0.00    +0.174 C 
ATOM      2  O   UNL     1      -2.904  -2.112  24.424  0.00  0.00    -0.349 OA
ENDBRANCH   3   2
ENDBRANCH   4   3
ENDBRANCH   5   4
TORSDOF 4
ENDMDL
