MODEL 1
REMARK VINA RESULT:     -11.6      0.000      0.000
REMARK  Name = 
REMARK  6 active torsions:
REMARK  status: ('A' for Active; 'I' for Inactive)
REMARK    1  A    between atoms: O_2  and  C_3
REMARK    2  A    between atoms: C_6  and  C_9
REMARK    3  A    between atoms: N_11  and  C_12
REMARK    4  A    between atoms: C_14  and  C_17
REMARK    5  A    between atoms: N_20  and  C_24
REMARK    6  A    between atoms: C_27  and  C_30
REMARK                            x       y       z     vdW  Elec       q    Type
REMARK                         _______ _______ _______ _____ _____    ______ ____
ROOT
ATOM     17  C   UNL     1      -4.273   2.642  25.183  0.00  0.00    +0.010 A 
ATOM     18  C   UNL     1      -3.515   2.902  24.988  0.00  0.00    +0.058 A 
ATOM     19  C   UNL     1      -2.935   2.461  24.602  0.00  0.00    +0.052 C 
ATOM     20  N   UNL     1      -3.439   3.683  25.246  0.00  0.00    -0.234 N 
ATOM     21  N   UNL     1      -4.149   3.904  25.601  0.00  0.00    -0.170 NA
ATOM     22  C   UNL     1      -4.666   3.261  25.562  0.00  0.00    +0.077 A 
ATOM     23  C   UNL     1      -5.438   3.241  25.851  0.00  0.00    +0.054 C 
ENDROOT
BRANCH  20  24
ATOM     24  C   UNL     1      -2.769   4.157  25.164  0.00  0.00    +0.082 A 
ATOM     25  C   UNL     1      -2.154   4.102  25.712  0.00  0.00    +0.019 A 
ATOM     26  C   UNL     1      -1.485   4.576  25.629  0.00  0.00    +0.005 A 
ATOM     27  C   UNL     1      -1.429   5.107  25.000  0.00  0.00    +0.072 A 
ATOM     28  C   UNL     1      -2.044   5.163  24.453  0.00  0.00    +0.005 A 
ATOM     29  C   UNL     1      -2.714   4.688  24.535  0.00  0.00    +0.019 A 
BRANCH  27  30
ATOM     30  C   UNL     1      -0.760   5.581  24.918  0.00  0.00    +0.419 C 
ATOM     31  F   UNL     1      -0.090   6.056  24.836  0.00  0.00    -0.166 F 
ATOM     32  F   UNL     1      -1.200   6.242  25.142  0.00  0.00    -0.166 F 
ATOM     33  F   UNL     1      -0.320   4.921  24.694  0.00  0.00    -0.166 F 
ENDBRANCH  27  30
ENDBRANCH  20  24
BRANCH  17  14
ATOM     12  C   UNL     1      -4.686   0.607  24.690  0.00  0.00    +0.118 C 
ATOM     13  C   UNL     1      -4.157   1.233  24.779  0.00  0.00    +0.035 C 
ATOM     14  C   UNL     1      -4.584   1.895  25.026  0.00  0.00    +0.048 C 
ATOM     15  C   UNL     1      -5.377   1.676  25.090  0.00  0.00    -0.025 C 
ATOM     16  C   UNL     1      -5.440   0.880  24.882  0.00  0.00    -0.009 C 
BRANCH  12  11
ATOM      9  C   UNL     1      -4.171  -0.691  24.991  0.00  0.00    +0.265 C 
ATOM     10  O   UNL     1      -4.039  -0.457  25.770  0.00  0.00    -0.268 OA
ATOM     11  N   UNL     1      -4.495  -0.159  24.450  0.00  0.00    -0.199 NA
BRANCH   9   6
ATOM      3  C   UNL     1      -3.596  -2.989  24.272  0.00  0.00    +0.139 A 
ATOM      4  C   UNL     1      -4.061  -2.510  23.789  0.00  0.00    +0.037 A 
ATOM      5  C   UNL     1      -4.253  -1.744  24.028  0.00  0.00    +0.008 A 
ATOM      6  C   UNL     1      -3.979  -1.457  24.751  0.00  0.00    +0.055 A 
ATOM      7  C   UNL     1      -3.514  -1.936  25.235  0.00  0.00    +0.008 A 
ATOM      8  C   UNL     1      -3.322  -2.703  24.995  0.00  0.00    +0.037 A 
BRANCH   3   2
ATOM      1  C   UNL     1      -2.723  -3.889  23.589  0.00  0.00    +0.252 C 
ATOM      2  O   UNL     1      -3.404  -3.755  24.033  0.00  0.00    -0.471 OA
ENDBRANCH   3   2
ENDBRANCH   9   6
ENDBRANCH  12  11
ENDBRANCH  17  14
TORSDOF 6
ENDMDL
MODEL 2
REMARK VINA RESULT:     -11.3      3.825      4.889
REMARK  Name = 
REMARK  6 active torsions:
REMARK  status: ('A' for Active; 'I' for Inactive)
REMARK    1  A    between atoms: O_2  and  C_3
REMARK    2  A    between atoms: C_6  and  C_9
REMARK    3  A    between atoms: N_11  and  C_12
REMARK    4  A    between atoms: C_14  and  C_17
REMARK    5  A    between atoms: N_20  and  C_24
REMARK    6  A    between atoms: C_27  and  C_30
REMARK                            x       y       z     vdW  Elec       q    Type
REMARK                         _______ _______ _______ _____ _____    ______ ____
ROOT
ATOM     17  C   UNL     1      -2.911   0.354  24.632  0.00  0.00    +0.010 A 
ATOM     18  C   UNL     1      -3.138   1.109  24.875  0.00  0.00    +0.058 A 
ATOM     19  C   UNL     1      -2.636   1.698  25.160  0.00  0.00    +0.052 C 
ATOM     20  N   UNL     1      -3.955   1.172  24.781  0.00  0.00    -0.234 N 
ATOM     21  N   UNL     1      -4.234   0.456  24.481  0.00  0.00    -0.170 NA
ATOM     22  C   UNL     1      -3.588  -0.050  24.389  0.00  0.00    +0.077 A 
ATOM     23  C   UNL     1      -3.616  -0.824  24.103  0.00  0.00    +0.054 C 
ENDROOT
BRANCH  20  24
ATOM     24  C   UNL     1      -4.414   1.835  24.958  0.00  0.00    +0.082 A 
ATOM     25  C   UNL     1      -4.326   2.526  24.516  0.00  0.00    +0.019 A 
ATOM     26  C   UNL     1      -4.784   3.189  24.692  0.00  0.00    +0.005 A 
ATOM     27  C   UNL     1      -5.331   3.161  25.310  0.00  0.00    +0.072 A 
ATOM     28  C   UNL     1      -5.418   2.470  25.752  0.00  0.00    +0.005 A 
ATOM     29  C   UNL     1      -4.960   1.806  25.575  0.00  0.00    +0.019 A 
BRANCH  27  30
ATOM     30  C   UNL     1      -5.789   3.823  25.486  0.00  0.00    +0.419 C 
ATOM     31  F   UNL     1      -6.247   4.487  25.663  0.00  0.00    -0.166 F 
ATOM     32  F   UNL     1      -6.474   3.375  25.396  0.00  0.00    -0.166 F 
ATOM     33  F   UNL     1      -5.103   4.273  25.577  0.00  0.00    -0.166 F 
ENDBRANCH  27  30
ENDBRANCH  20  24
BRANCH  17  14
ATOM     12  C   UNL     1      -0.891  -0.230  24.266  0.00  0.00    +0.118 C 
ATOM     13  C   UNL     1      -1.579   0.163  24.039  0.00  0.00    +0.035 C 
ATOM     14  C   UNL     1      -2.142   0.054  24.633  0.00  0.00    +0.048 C 
ATOM     15  C   UNL     1      -1.801  -0.406  25.226  0.00  0.00    -0.025 C 
ATOM     16  C   UNL     1      -1.027  -0.582  24.999  0.00  0.00    -0.009 C 
BRANCH  12  11
ATOM      9  C   UNL     1       0.327   0.378  23.833  0.00  0.00    +0.265 C 
ATOM     10  O   UNL     1       0.139   1.057  24.261  0.00  0.00    -0.268 OA
ATOM     11  N   UNL     1      -0.189  -0.266  23.835  0.00  0.00    -0.199 NA
BRANCH   9   6
ATOM      3  C   UNL     1       2.434   0.272  22.539  0.00  0.00    +0.139 A 
ATOM      4  C   UNL     1       2.351   0.823  23.147  0.00  0.00    +0.037 A 
ATOM      5  C   UNL     1       1.648   0.858  23.578  0.00  0.00    +0.008 A 
ATOM      6  C   UNL     1       1.030   0.343  23.401  0.00  0.00    +0.055 A 
ATOM      7  C   UNL     1       1.113  -0.208  22.794  0.00  0.00    +0.008 A 
ATOM      8  C   UNL     1       1.816  -0.244  22.362  0.00  0.00    +0.037 A 
BRANCH   3   2
ATOM      1  C   UNL     1       3.826   0.567  22.416  0.00  0.00    +0.252 C 
ATOM      2  O   UNL     1       3.137   0.236  22.108  0.00  0.00    -0.471 OA
ENDBRANCH   3   2
ENDBRANCH   9   6
ENDBRANCH  12  11
ENDBRANCH  17  14
TORSDOF 6
ENDMDL
MODEL 3
REMARK VINA RESULT:     -11.0      4.084      5.243
REMARK  Name = 
REMARK  6 active torsions:
REMARK  status: ('A' for Active; 'I' for Inactive)
REMARK    1  A    between atoms: O_2  and  C_3
REMARK    2  A    between atoms: C_6  and  C_9
REMARK    3  A    between atoms: N_11  and  C_12
REMARK    4  A    between atoms: C_14  and  C_17
REMARK    5  A    between atoms: N_20  and  C_24
REMARK    6  A    between atoms: C_27  and  C_30
REMARK                            x       y       z     vdW  Elec       q    Type
REMARK                         _______ _______ _______ _____ _____    ______ ____
ROOT
ATOM     17  C   UNL     1      -1.794   2.917  25.084  0.00  0.00    +0.010 A 
ATOM     18  C   UNL     1      -2.482   2.463  25.063  0.00  0.00    +0.058 A 
ATOM     19  C   UNL     1      -2.519   1.639  25.044  0.00  0.00    +0.052 C 
ATOM     20  N   UNL     1      -3.128   2.977  25.064  0.00  0.00    -0.234 N 
ATOM     21  N   UNL     1      -2.839   3.749  25.086  0.00  0.00    -0.170 NA
ATOM     22  C   UNL     1      -2.014   3.713  25.098  0.00  0.00    +0.077 A 
ATOM     23  C   UNL     1      -1.500   4.358  25.121  0.00  0.00    +0.054 C 
ENDROOT
BRANCH  20  24
ATOM     24  C   UNL     1      -3.923   2.757  25.046  0.00  0.00    +0.082 A 
ATOM     25  C   UNL     1      -4.388   2.836  25.723  0.00  0.00    +0.019 A 
ATOM     26  C   UNL     1      -5.182   2.617  25.706  0.00  0.00    +0.005 A 
ATOM     27  C   UNL     1      -5.513   2.318  25.011  0.00  0.00    +0.072 A 
ATOM     28  C   UNL     1      -5.048   2.239  24.334  0.00  0.00    +0.005 A 
ATOM     29  C   UNL     1      -4.253   2.459  24.352  0.00  0.00    +0.019 A 
BRANCH  27  30
ATOM     30  C   UNL     1      -6.307   2.098  24.993  0.00  0.00    +0.419 C 
ATOM     31  F   UNL     1      -7.103   1.878  24.976  0.00  0.00    -0.166 F 
ATOM     32  F   UNL     1      -6.106   1.400  24.605  0.00  0.00    -0.166 F 
ATOM     33  F   UNL     1      -6.509   2.798  25.383  0.00  0.00    -0.166 F 
ENDBRANCH  27  30
ENDBRANCH  20  24
BRANCH  17  14
ATOM     12  C   UNL     1       0.160   2.156  24.687  0.00  0.00    +0.118 C 
ATOM     13  C   UNL     1      -0.579   2.414  24.426  0.00  0.00    +0.035 C 
ATOM     14  C   UNL     1      -1.022   2.628  25.089  0.00  0.00    +0.048 C 
ATOM     15  C   UNL     1      -0.556   2.502  25.758  0.00  0.00    -0.025 C 
ATOM     16  C   UNL     1       0.175   2.210  25.509  0.00  0.00    -0.009 C 
BRANCH  12  11
ATOM      9  C   UNL     1       0.793   1.105  23.954  0.00  0.00    +0.265 C 
ATOM     10  O   UNL     1       0.193   0.587  24.181  0.00  0.00    -0.268 OA
ATOM     11  N   UNL     1       0.776   1.890  24.207  0.00  0.00    -0.199 NA
BRANCH   9   6
ATOM      3  C   UNL     1       2.643   0.307  22.516  0.00  0.00    +0.139 A 
ATOM      4  C   UNL     1       2.769   0.929  23.042  0.00  0.00    +0.037 A 
ATOM      5  C   UNL     1       2.152   1.195  23.522  0.00  0.00    +0.008 A 
ATOM      6  C   UNL     1       1.410   0.839  23.475  0.00  0.00    +0.055 A 
ATOM      7  C   UNL     1       1.284   0.217  22.948  0.00  0.00    +0.008 A 
ATOM      8  C   UNL     1       1.901  -0.049  22.468  0.00  0.00    +0.037 A 
BRANCH   3   2
ATOM      1  C   UNL     1       4.014   0.362  22.120  0.00  0.00    +0.252 C 
ATOM      2  O   UNL     1       3.259   0.041  22.036  0.00  0.00    -0.471 OA
ENDBRANCH   3   2
ENDBRANCH   9   6
ENDBRANCH  12  11
ENDBRANCH  17  14
TORSDOF 6
ENDMDL
MODEL 4
REMARK VINA RESULT:     -10.9      4.390      5.364
REMARK  Name = 
REMARK  6 active torsions:
REMARK  status: ('A' for Active; 'I' for Inactive)
REMARK    1  A    between atoms: O_2  and  C_3
REMARK    2  A    between atoms: C_6  and  C_9
REMARK    3  A    between atoms: N_11  and  C_12
REMARK    4  A    between atoms: C_14  and  C_17
REMARK    5  A    between atoms: N_20  and  C_24
REMARK    6  A    between atoms: C_27  and  C_30
REMARK                            x       y       z     vdW  Elec       q    Type
REMARK                         _______ _______ _______ _____ _____    ______ ____
ROOT
ATOM     17  C   UNL     1      -2.010   1.473  23.685  0.00  0.00    +0.010 A 
ATOM     18  C   UNL     1      -2.491   1.727  24.305  0.00  0.00    +0.058 A 
ATOM     19  C   UNL     1      -2.346   1.614  25.109  0.00  0.00    +0.052 C 
ATOM     20  N   UNL     1      -3.144   2.113  23.980  0.00  0.00    -0.234 N 
ATOM     21  N   UNL     1      -3.067   2.098  23.159  0.00  0.00    -0.170 NA
ATOM     22  C   UNL     1      -2.365   1.702  22.976  0.00  0.00    +0.077 A 
ATOM     23  C   UNL     1      -2.071   1.561  22.218  0.00  0.00    +0.054 C 
ENDROOT
BRANCH  20  24
ATOM     24  C   UNL     1      -3.766   2.454  24.402  0.00  0.00    +0.082 A 
ATOM     25  C   UNL     1      -3.692   3.221  24.697  0.00  0.00    +0.019 A 
ATOM     26  C   UNL     1      -4.313   3.561  25.119  0.00  0.00    +0.005 A 
ATOM     27  C   UNL     1      -5.009   3.136  25.246  0.00  0.00    +0.072 A 
ATOM     28  C   UNL     1      -5.082   2.369  24.951  0.00  0.00    +0.005 A 
ATOM     29  C   UNL     1      -4.461   2.028  24.529  0.00  0.00    +0.019 A 
BRANCH  27  30
ATOM     30  C   UNL     1      -5.630   3.476  25.668  0.00  0.00    +0.419 C 
ATOM     31  F   UNL     1      -6.252   3.817  26.090  0.00  0.00    -0.166 F 
ATOM     32  F   UNL     1      -5.734   2.773  26.085  0.00  0.00    -0.166 F 
ATOM     33  F   UNL     1      -5.526   4.181  25.251  0.00  0.00    -0.166 F 
ENDBRANCH  27  30
ENDBRANCH  20  24
BRANCH  17  14
ATOM     12  C   UNL     1       0.000   0.758  23.728  0.00  0.00    +0.118 C 
ATOM     13  C   UNL     1      -0.550   1.351  23.567  0.00  0.00    +0.035 C 
ATOM     14  C   UNL     1      -1.299   1.063  23.760  0.00  0.00    +0.048 C 
ATOM     15  C   UNL     1      -1.210   0.292  24.040  0.00  0.00    -0.025 C 
ATOM     16  C   UNL     1      -0.407   0.104  24.020  0.00  0.00    -0.009 C 
BRANCH  12  11
ATOM      9  C   UNL     1       1.186   0.343  23.047  0.00  0.00    +0.265 C 
ATOM     10  O   UNL     1       0.740  -0.178  22.589  0.00  0.00    -0.268 OA
ATOM     11  N   UNL     1       0.816   0.811  23.617  0.00  0.00    -0.199 NA
BRANCH   9   6
ATOM      3  C   UNL     1       3.633   0.501  22.713  0.00  0.00    +0.139 A 
ATOM      4  C   UNL     1       3.218   1.141  23.027  0.00  0.00    +0.037 A 
ATOM      5  C   UNL     1       2.402   1.088  23.139  0.00  0.00    +0.008 A 
ATOM      6  C   UNL     1       2.002   0.396  22.936  0.00  0.00    +0.055 A 
ATOM      7  C   UNL     1       2.417  -0.243  22.622  0.00  0.00    +0.008 A 
ATOM      8  C   UNL     1       3.234  -0.190  22.510  0.00  0.00    +0.037 A 
BRANCH   3   2
ATOM      1  C   UNL     1       4.962   0.381  23.223  0.00  0.00    +0.252 C 
ATOM      2  O   UNL     1       4.449   0.554  22.602  0.00  0.00    -0.471 OA
ENDBRANCH   3   2
ENDBRANCH   9   6
ENDBRANCH  12  11
ENDBRANCH  17  14
TORSDOF 6
ENDMDL
MODEL 5
REMARK VINA RESULT:     -10.8      3.731      5.485
REMARK  Name = 
REMARK  6 active torsions:
REMARK  status: ('A' for Active; 'I' for Inactive)
REMARK    1  A    between atoms: O_2  and  C_3
REMARK    2  A    between atoms: C_6  and  C_9
REMARK    3  A    between atoms: N_11  and  C_12
REMARK    4  A    between atoms: C_14  and  C_17
REMARK    5  A    between atoms: N_20  and  C_24
REMARK    6  A    between atoms: C_27  and  C_30
REMARK                            x       y       z     vdW  Elec       q    Type
REMARK                         _______ _______ _______ _____ _____    ______ ____
ROOT
ATOM     17  C   UNL     1      -1.181  -0.195  24.336  0.00  0.00    +0.010 A 
ATOM     18  C   UNL     1      -0.634   0.188  23.851  0.00  0.00    +0.058 A 
ATOM     19  C   UNL     1      -0.783   0.849  23.380  0.00  0.00    +0.052 C 
ATOM     20  N   UNL     1       0.087  -0.207  23.919  0.00  0.00    -0.234 N 
ATOM     21  N   UNL     1      -0.013  -0.833  24.446  0.00  0.00    -0.170 NA
ATOM     22  C   UNL     1      -0.797  -0.826  24.704  0.00  0.00    +0.077 A 
ATOM     23  C   UNL     1      -1.138  -1.357  25.237  0.00  0.00    +0.054 C 
ENDROOT
BRANCH  20  24
ATOM     24  C   UNL     1       0.787  -0.009  23.528  0.00  0.00    +0.082 A 
ATOM     25  C   UNL     1       1.033  -0.450  22.876  0.00  0.00    +0.019 A 
ATOM     26  C   UNL     1       1.732  -0.252  22.485  0.00  0.00    +0.005 A 
ATOM     27  C   UNL     1       2.185   0.386  22.747  0.00  0.00    +0.072 A 
ATOM     28  C   UNL     1       1.939   0.826  23.400  0.00  0.00    +0.005 A 
ATOM     29  C   UNL     1       1.239   0.629  23.790  0.00  0.00    +0.019 A 
BRANCH  27  30
ATOM     30  C   UNL     1       2.884   0.584  22.357  0.00  0.00    +0.419 C 
ATOM     31  F   UNL     1       3.584   0.781  21.966  0.00  0.00    -0.166 F 
ATOM     32  F   UNL     1       3.122   1.030  23.007  0.00  0.00    -0.166 F 
ATOM     33  F   UNL     1       2.646   0.136  21.705  0.00  0.00    -0.166 F 
ENDBRANCH  27  30
ENDBRANCH  20  24
BRANCH  17  14
ATOM     12  C   UNL     1      -3.073   0.680  24.793  0.00  0.00    +0.118 C 
ATOM     13  C   UNL     1      -2.249   0.690  24.823  0.00  0.00    +0.035 C 
ATOM     14  C   UNL     1      -1.972   0.016  24.436  0.00  0.00    +0.048 C 
ATOM     15  C   UNL     1      -2.625  -0.410  24.166  0.00  0.00    -0.025 C 
ATOM     16  C   UNL     1      -3.306   0.001  24.387  0.00  0.00    -0.009 C 
BRANCH  12  11
ATOM      9  C   UNL     1      -3.964   1.783  24.616  0.00  0.00    +0.265 C 
ATOM     10  O   UNL     1      -3.848   1.745  23.801  0.00  0.00    -0.268 OA
ATOM     11  N   UNL     1      -3.577   1.250  25.112  0.00  0.00    -0.199 NA
BRANCH   9   6
ATOM      3  C   UNL     1      -5.474   3.494  25.575  0.00  0.00    +0.139 A 
ATOM      4  C   UNL     1      -5.755   2.733  25.426  0.00  0.00    +0.037 A 
ATOM      5  C   UNL     1      -5.252   2.162  25.106  0.00  0.00    +0.008 A 
ATOM      6  C   UNL     1      -4.468   2.353  24.936  0.00  0.00    +0.055 A 
ATOM      7  C   UNL     1      -4.187   3.114  25.085  0.00  0.00    +0.008 A 
ATOM      8  C   UNL     1      -4.691   3.685  25.405  0.00  0.00    +0.037 A 
BRANCH   3   2
ATOM      1  C   UNL     1      -6.090   4.781  25.503  0.00  0.00    +0.252 C 
ATOM      2  O   UNL     1      -5.978   4.064  25.895  0.00  0.00    -0.471 OA
ENDBRANCH   3   2
ENDBRANCH   9   6
ENDBRANCH  12  11
ENDBRANCH  17  14
TORSDOF 6
ENDMDL
MODEL 6
REMARK VINA RESULT:     -10.2      3.192      6.372
REMARK  Name = 
REMARK  6 active torsions:
REMARK  status: ('A' for Active; 'I' for Inactive)
REMARK    1  A    between atoms: O_2  and  C_3
REMARK    2  A    between atoms: C_6  and  C_9
REMARK    3  A    between atoms: N_11  and  C_12
REMARK    4  A    between atoms: C_14  and  C_17
REMARK    5  A    between atoms: N_20  and  C_24
REMARK    6  A    between atoms: C_27  and  C_30
REMARK                            x       y       z     vdW  Elec       q    Type
REMARK                         _______ _______ _______ _____ _____    ______ ____
ROOT
ATOM     17  C   UNL     1      -4.522   1.069  24.807  0.00  0.00    +0.010 A 
ATOM     18  C   UNL     1      -4.074   0.432  24.536  0.00  0.00    +0.058 A 
ATOM     19  C   UNL     1      -3.384   0.481  24.086  0.00  0.00    +0.052 C 
ATOM     20  N   UNL     1      -4.436  -0.263  24.794  0.00  0.00    -0.234 N 
ATOM     21  N   UNL     1      -5.108  -0.056  25.225  0.00  0.00    -0.170 NA
ATOM     22  C   UNL     1      -5.162   0.768  25.233  0.00  0.00    +0.077 A 
ATOM     23  C   UNL     1      -5.751   1.213  25.602  0.00  0.00    +0.054 C 
ENDROOT
BRANCH  20  24
ATOM     24  C   UNL     1      -4.172  -1.031  24.648  0.00  0.00    +0.082 A 
ATOM     25  C   UNL     1      -3.707  -1.421  25.206  0.00  0.00    +0.019 A 
ATOM     26  C   UNL     1      -3.443  -2.189  25.060  0.00  0.00    +0.005 A 
ATOM     27  C   UNL     1      -3.644  -2.567  24.354  0.00  0.00    +0.072 A 
ATOM     28  C   UNL     1      -4.109  -2.176  23.795  0.00  0.00    +0.005 A 
ATOM     29  C   UNL     1      -4.373  -1.408  23.942  0.00  0.00    +0.019 A 
BRANCH  27  30
ATOM     30  C   UNL     1      -3.381  -3.334  24.207  0.00  0.00    +0.419 C 
ATOM     31  F   UNL     1      -3.117  -4.102  24.060  0.00  0.00    -0.166 F 
ATOM     32  F   UNL     1      -2.643  -3.039  23.989  0.00  0.00    -0.166 F 
ATOM     33  F   UNL     1      -4.120  -3.629  24.426  0.00  0.00    -0.166 F 
ENDBRANCH  27  30
ENDBRANCH  20  24
BRANCH  17  14
ATOM     12  C   UNL     1      -3.707   3.019  24.510  0.00  0.00    +0.118 C 
ATOM     13  C   UNL     1      -3.611   2.213  24.658  0.00  0.00    +0.035 C 
ATOM     14  C   UNL     1      -4.360   1.867  24.675  0.00  0.00    +0.048 C 
ATOM     15  C   UNL     1      -4.918   2.459  24.538  0.00  0.00    -0.025 C 
ATOM     16  C   UNL     1      -4.514   3.172  24.436  0.00  0.00    -0.009 C 
BRANCH  12  11
ATOM      9  C   UNL     1      -2.654   3.776  25.112  0.00  0.00    +0.265 C 
ATOM     10  O   UNL     1      -2.814   3.419  25.838  0.00  0.00    -0.268 OA
ATOM     11  N   UNL     1      -3.101   3.576  24.448  0.00  0.00    -0.199 NA
BRANCH   9   6
ATOM      3  C   UNL     1      -0.836   5.444  24.924  0.00  0.00    +0.139 A 
ATOM      4  C   UNL     1      -1.612   5.693  25.046  0.00  0.00    +0.037 A 
ATOM      5  C   UNL     1      -2.219   5.136  25.108  0.00  0.00    +0.008 A 
ATOM      6  C   UNL     1      -2.048   4.332  25.049  0.00  0.00    +0.055 A 
ATOM      7  C   UNL     1      -1.271   4.083  24.927  0.00  0.00    +0.008 A 
ATOM      8  C   UNL     1      -0.665   4.640  24.865  0.00  0.00    +0.037 A 
BRANCH   3   2
ATOM      1  C   UNL     1       0.270   5.994  24.206  0.00  0.00    +0.252 C 
ATOM      2  O   UNL     1      -0.230   6.001  24.861  0.00  0.00    -0.471 OA
ENDBRANCH   3   2
ENDBRANCH   9   6
ENDBRANCH  12  11
ENDBRANCH  17  14
TORSDOF 6
ENDMDL
MODEL 7
REMARK VINA RESULT:      -9.9      5.292      6.834
REMARK  Name = 
REMARK  6 active torsions:
REMARK  status: ('A' for Active; 'I' for Inactive)
REMARK    1  A    between atoms: O_2  and  C_3
REMARK    2  A    between atoms: C_6  and  C_9
REMARK    3  A    between atoms: N_11  and  C_12
REMARK    4  A    between atoms: C_14  and  C_17
REMARK    5  A    between atoms: N_20  and  C_24
REMARK    6  A    between atoms: C_27  and  C_30
REMARK                            x       y       z     vdW  Elec       q    Type
REMARK                         _______ _______ _______ _____ _____    ______ ____
ROOT
ATOM     17  C   UNL     1      -0.970   0.640  24.547  0.00  0.00    +0.010 A 
ATOM     18  C   UNL     1      -1.397   0.031  24.188  0.00  0.00    +0.058 A 
ATOM     19  C   UNL     1      -1.210  -0.338  23.475  0.00  0.00    +0.052 C 
ATOM     20  N   UNL     1      -2.045  -0.143  24.669  0.00  0.00    -0.234 N 
ATOM     21  N   UNL     1      -2.018   0.358  25.324  0.00  0.00    -0.170 NA
ATOM     22  C   UNL     1      -1.354   0.841  25.249  0.00  0.00    +0.077 A 
ATOM     23  C   UNL     1      -1.115   1.425  25.782  0.00  0.00    +0.054 C 
ENDROOT
BRANCH  20  24
ATOM     24  C   UNL     1      -2.619  -0.717  24.521  0.00  0.00    +0.082 A 
ATOM     25  C   UNL     1      -3.351  -0.497  24.209  0.00  0.00    +0.019 A 
ATOM     26  C   UNL     1      -3.924  -1.071  24.060  0.00  0.00    +0.005 A 
ATOM     27  C   UNL     1      -3.766  -1.864  24.224  0.00  0.00    +0.072 A 
ATOM     28  C   UNL     1      -3.035  -2.084  24.535  0.00  0.00    +0.005 A 
ATOM     29  C   UNL     1      -2.461  -1.510  24.684  0.00  0.00    +0.019 A 
BRANCH  27  30
ATOM     30  C   UNL     1      -4.340  -2.438  24.075  0.00  0.00    +0.419 C 
ATOM     31  F   UNL     1      -4.913  -3.013  23.927  0.00  0.00    -0.166 F 
ATOM     32  F   UNL     1      -4.701  -1.937  23.529  0.00  0.00    -0.166 F 
ATOM     33  F   UNL     1      -3.978  -2.940  24.622  0.00  0.00    -0.166 F 
ENDBRANCH  27  30
ENDBRANCH  20  24
BRANCH  17  14
ATOM     12  C   UNL     1       0.996   1.186  23.923  0.00  0.00    +0.118 C 
ATOM     13  C   UNL     1       0.474   0.652  24.273  0.00  0.00    +0.035 C 
ATOM     14  C   UNL     1      -0.281   0.985  24.254  0.00  0.00    +0.048 C 
ATOM     15  C   UNL     1      -0.224   1.724  23.892  0.00  0.00    -0.025 C 
ATOM     16  C   UNL     1       0.566   1.848  23.687  0.00  0.00    -0.009 C 
BRANCH  12  11
ATOM      9  C   UNL     1       2.092   0.648  23.180  0.00  0.00    +0.265 C 
ATOM     10  O   UNL     1       1.563   0.329  22.633  0.00  0.00    -0.268 OA
ATOM     11  N   UNL     1       1.808   1.076  23.825  0.00  0.00    -0.199 NA
BRANCH   9   6
ATOM      3  C   UNL     1       4.527   0.318  22.886  0.00  0.00    +0.139 A 
ATOM      4  C   UNL     1       4.189   1.053  22.726  0.00  0.00    +0.037 A 
ATOM      5  C   UNL     1       3.376   1.163  22.824  0.00  0.00    +0.008 A 
ATOM      6  C   UNL     1       2.904   0.538  23.082  0.00  0.00    +0.055 A 
ATOM      7  C   UNL     1       3.242  -0.197  23.241  0.00  0.00    +0.008 A 
ATOM      8  C   UNL     1       4.055  -0.307  23.143  0.00  0.00    +0.037 A 
BRANCH   3   2
ATOM      1  C   UNL     1       5.812   0.026  23.438  0.00  0.00    +0.252 C 
ATOM      2  O   UNL     1       5.339   0.208  22.788  0.00  0.00    -0.471 OA
ENDBRANCH   3   2
ENDBRANCH   9   6
ENDBRANCH  12  11
ENDBRANCH  17  14
TORSDOF 6
ENDMDL
MODEL 8
REMARK VINA RESULT:      -9.1      1.928      2.735
REMARK  Name = 
REMARK  6 active torsions:
REMARK  status: ('A' for Active; 'I' for Inactive)
REMARK    1  A    between atoms: O_2  and  C_3
REMARK    2  A    between atoms: C_6  and  C_9
REMARK    3  A    between atoms: N_11  and  C_12
REMARK    4  A    between atoms: C_14  and  C_17
REMARK    5  A    between atoms: N_20  and  C_24
REMARK    6  A    between atoms: C_27  and  C_30
REMARK                            x       y       z     vdW  Elec       q    Type
REMARK                         _______ _______ _______ _____ _____    ______ ____
ROOT
ATOM     17  C   UNL     1      -0.646   1.530  24.872  0.00  0.00    +0.010 A 
ATOM     18  C   UNL     1      -1.097   2.199  25.043  0.00  0.00    +0.058 A 
ATOM     19  C   UNL     1      -1.858   2.202  25.361  0.00  0.00    +0.052 C 
ATOM     20  N   UNL     1      -0.654   2.865  24.841  0.00  0.00    -0.234 N 
ATOM     21  N   UNL     1       0.072   2.608  24.545  0.00  0.00    -0.170 NA
ATOM     22  C   UNL     1       0.077   1.783  24.563  0.00  0.00    +0.077 A 
ATOM     23  C   UNL     1       0.696   1.295  24.317  0.00  0.00    +0.054 C 
ENDROOT
BRANCH  20  24
ATOM     24  C   UNL     1      -0.894   3.650  24.922  0.00  0.00    +0.082 A 
ATOM     25  C   UNL     1      -0.437   4.257  24.599  0.00  0.00    +0.019 A 
ATOM     26  C   UNL     1      -0.677   5.041  24.680  0.00  0.00    +0.005 A 
ATOM     27  C   UNL     1      -1.374   5.220  25.083  0.00  0.00    +0.072 A 
ATOM     28  C   UNL     1      -1.831   4.614  25.405  0.00  0.00    +0.005 A 
ATOM     29  C   UNL     1      -1.591   3.829  25.325  0.00  0.00    +0.019 A 
BRANCH  27  30
ATOM     30  C   UNL     1      -1.614   6.005  25.163  0.00  0.00    +0.419 C 
ATOM     31  F   UNL     1      -1.854   6.791  25.244  0.00  0.00    -0.166 F 
ATOM     32  F   UNL     1      -2.229   5.767  25.658  0.00  0.00    -0.166 F 
ATOM     33  F   UNL     1      -0.999   6.244  24.668  0.00  0.00    -0.166 F 
ENDBRANCH  27  30
ENDBRANCH  20  24
BRANCH  17  14
ATOM     12  C   UNL     1      -1.480  -0.434  24.839  0.00  0.00    +0.118 C 
ATOM     13  C   UNL     1      -1.417   0.327  24.526  0.00  0.00    +0.035 C 
ATOM     14  C   UNL     1      -0.876   0.747  24.988  0.00  0.00    +0.048 C 
ATOM     15  C   UNL     1      -0.606   0.245  25.585  0.00  0.00    -0.025 C 
ATOM     16  C   UNL     1      -0.980  -0.485  25.492  0.00  0.00    -0.009 C 
BRANCH  12  11
ATOM      9  C   UNL     1      -2.685  -1.200  24.909  0.00  0.00    +0.265 C 
ATOM     10  O   UNL     1      -2.928  -0.756  25.561  0.00  0.00    -0.268 OA
ATOM     11  N   UNL     1      -1.961  -1.038  24.549  0.00  0.00    -0.199 NA
BRANCH   9   6
ATOM      3  C   UNL     1      -4.127  -3.012  24.037  0.00  0.00    +0.139 A 
ATOM      4  C   UNL     1      -4.285  -2.228  23.838  0.00  0.00    +0.037 A 
ATOM      5  C   UNL     1      -3.804  -1.623  24.129  0.00  0.00    +0.008 A 
ATOM      6  C   UNL     1      -3.166  -1.804  24.619  0.00  0.00    +0.055 A 
ATOM      7  C   UNL     1      -3.007  -2.588  24.817  0.00  0.00    +0.008 A 
ATOM      8  C   UNL     1      -3.488  -3.193  24.526  0.00  0.00    +0.037 A 
BRANCH   3   2
ATOM      1  C   UNL     1      -5.044  -3.500  23.057  0.00  0.00    +0.252 C 
ATOM      2  O   UNL     1      -4.607  -3.617  23.746  0.00  0.00    -0.471 OA
ENDBRANCH   3   2
ENDBRANCH   9   6
ENDBRANCH  12  11
ENDBRANCH  17  14
TORSDOF 6
ENDMDL
MODEL 9
REMARK VINA RESULT:      -9.0      5.151      6.492
REMARK  Name = 
REMARK  6 active torsions:
REMARK  status: ('A' for Active; 'I' for Inactive)
REMARK    1  A    between atoms: O_2  and  C_3
REMARK    2  A    between atoms: C_6  and  C_9
REMARK    3  A    between atoms: N_11  and  C_12
REMARK    4  A    between atoms: C_14  and  C_17
REMARK    5  A    between atoms: N_20  and  C_24
REMARK    6  A    between atoms: C_27  and  C_30
REMARK                            x       y       z     vdW  Elec       q    Type
REMARK                         _______ _______ _______ _____ _____    ______ ____
ROOT
ATOM     17  C   UNL     1       0.878   0.132  23.047  0.00  0.00    +0.010 A 
ATOM     18  C   UNL     1       1.610   0.321  23.377  0.00  0.00    +0.058 A 
ATOM     19  C   UNL     1       1.734   0.682  24.108  0.00  0.00    +0.052 C 
ATOM     20  N   UNL     1       2.198   0.085  22.847  0.00  0.00    -0.234 N 
ATOM     21  N   UNL     1       1.829  -0.251  22.190  0.00  0.00    -0.170 NA
ATOM     22  C   UNL     1       1.013  -0.222  22.313  0.00  0.00    +0.077 A 
ATOM     23  C   UNL     1       0.434  -0.497  21.794  0.00  0.00    +0.054 C 
ENDROOT
BRANCH  20  24
ATOM     24  C   UNL     1       3.011   0.169  22.956  0.00  0.00    +0.082 A 
ATOM     25  C   UNL     1       3.447  -0.441  23.301  0.00  0.00    +0.019 A 
ATOM     26  C   UNL     1       4.260  -0.356  23.410  0.00  0.00    +0.005 A 
ATOM     27  C   UNL     1       4.638   0.338  23.174  0.00  0.00    +0.072 A 
ATOM     28  C   UNL     1       4.203   0.947  22.828  0.00  0.00    +0.005 A 
ATOM     29  C   UNL     1       3.389   0.863  22.720  0.00  0.00    +0.019 A 
BRANCH  27  30
ATOM     30  C   UNL     1       5.451   0.422  23.282  0.00  0.00    +0.419 C 
ATOM     31  F   UNL     1       6.265   0.507  23.391  0.00  0.00    -0.166 F 
ATOM     32  F   UNL     1       5.317   0.778  24.013  0.00  0.00    -0.166 F 
ATOM     33  F   UNL     1       5.586   0.066  22.550  0.00  0.00    -0.166 F 
ENDBRANCH  27  30
ENDBRANCH  20  24
BRANCH  17  14
ATOM     12  C   UNL     1      -1.002   0.860  23.746  0.00  0.00    +0.118 C 
ATOM     13  C   UNL     1      -0.307   0.960  23.313  0.00  0.00    +0.035 C 
ATOM     14  C   UNL     1       0.141   0.271  23.390  0.00  0.00    +0.048 C 
ATOM     15  C   UNL     1      -0.278  -0.254  23.869  0.00  0.00    -0.025 C 
ATOM     16  C   UNL     1      -0.985   0.111  24.089  0.00  0.00    -0.009 C 
BRANCH  12  11
ATOM      9  C   UNL     1      -1.878   1.631  24.570  0.00  0.00    +0.265 C 
ATOM     10  O   UNL     1      -1.540   1.295  25.243  0.00  0.00    -0.268 OA
ATOM     11  N   UNL     1      -1.609   1.413  23.821  0.00  0.00    -0.199 NA
BRANCH   9   6
ATOM      3  C   UNL     1      -3.699   3.293  24.796  0.00  0.00    +0.139 A 
ATOM      4  C   UNL     1      -3.837   2.581  24.403  0.00  0.00    +0.037 A 
ATOM      5  C   UNL     1      -3.229   2.027  24.328  0.00  0.00    +0.008 A 
ATOM      6  C   UNL     1      -2.485   2.185  24.645  0.00  0.00    +0.055 A 
ATOM      7  C   UNL     1      -2.347   2.897  25.038  0.00  0.00    +0.008 A 
ATOM      8  C   UNL     1      -2.955   3.451  25.114  0.00  0.00    +0.037 A 
BRANCH   3   2
ATOM      1  C   UNL     1      -4.910   3.724  25.419  0.00  0.00    +0.252 C 
ATOM      2  O   UNL     1      -4.306   3.846  24.872  0.00  0.00    -0.471 OA
ENDBRANCH   3   2
ENDBRANCH   9   6
ENDBRANCH  12  11
ENDBRANCH  17  14
TORSDOF 6
ENDMDL
MODEL 10
REMARK VINA RESULT:      -8.6     18.114     19.262
REMARK  Name = 
REMARK  6 active torsions:
REMARK  status: ('A' for Active; 'I' for Inactive)
REMARK    1  A    between atoms: O_2  and  C_3
REMARK    2  A    between atoms: C_6  and  C_9
REMARK    3  A    between atoms: N_11  and  C_12
REMARK    4  A    between atoms: C_14  and  C_17
REMARK    5  A    between atoms: N_20  and  C_24
REMARK    6  A    between atoms: C_27  and  C_30
REMARK                            x       y       z     vdW  Elec       q    Type
REMARK                         _______ _______ _______ _____ _____    ______ ____
ROOT
ATOM     17  C   UNL     1      -6.150  -9.528   9.651  0.00  0.00    +0.010 A 
ATOM     18  C   UNL     1      -5.372  -9.292   9.790  0.00  0.00    +0.058 A 
ATOM     19  C   UNL     1      -5.007  -8.618   9.483  0.00  0.00    +0.052 C 
ATOM     20  N   UNL     1      -5.022  -9.848  10.289  0.00  0.00    -0.234 N 
ATOM     21  N   UNL     1      -5.583 -10.428  10.459  0.00  0.00    -0.170 NA
ATOM     22  C   UNL     1      -6.281 -10.230  10.064  0.00  0.00    +0.077 A 
ATOM     23  C   UNL     1      -6.986 -10.659  10.081  0.00  0.00    +0.054 C 
ENDROOT
BRANCH  20  24
ATOM     24  C   UNL     1      -4.246  -9.828  10.569  0.00  0.00    +0.082 A 
ATOM     25  C   UNL     1      -3.620  -9.713  10.044  0.00  0.00    +0.019 A 
ATOM     26  C   UNL     1      -2.845  -9.693  10.324  0.00  0.00    +0.005 A 
ATOM     27  C   UNL     1      -2.694  -9.787  11.130  0.00  0.00    +0.072 A 
ATOM     28  C   UNL     1      -3.320  -9.901  11.655  0.00  0.00    +0.005 A 
ATOM     29  C   UNL     1      -4.096  -9.921  11.375  0.00  0.00    +0.019 A 
BRANCH  27  30
ATOM     30  C   UNL     1      -1.919  -9.767  11.410  0.00  0.00    +0.419 C 
ATOM     31  F   UNL     1      -1.144  -9.746  11.691  0.00  0.00    -0.166 F 
ATOM     32  F   UNL     1      -1.726  -9.207  10.837  0.00  0.00    -0.166 F 
ATOM     33  F   UNL     1      -2.113 -10.327  11.984  0.00  0.00    -0.166 F 
ENDBRANCH  27  30
ENDBRANCH  20  24
BRANCH  17  14
ATOM     12  C   UNL     1      -7.700  -8.338   8.794  0.00  0.00    +0.118 C 
ATOM     13  C   UNL     1      -7.271  -8.599   9.448  0.00  0.00    +0.035 C 
ATOM     14  C   UNL     1      -6.701  -9.132   9.181  0.00  0.00    +0.048 C 
ATOM     15  C   UNL     1      -6.778  -9.200   8.363  0.00  0.00    -0.025 C 
ATOM     16  C   UNL     1      -7.396  -8.708   8.124  0.00  0.00    -0.009 C 
BRANCH  12  11
ATOM      9  C   UNL     1      -8.218  -7.035   8.519  0.00  0.00    +0.265 C 
ATOM     10  O   UNL     1      -7.486  -6.809   8.214  0.00  0.00    -0.268 OA
ATOM     11  N   UNL     1      -8.325  -7.799   8.809  0.00  0.00    -0.199 NA
BRANCH   9   6
ATOM      3  C   UNL     1     -10.093  -5.419   8.563  0.00  0.00    +0.139 A 
ATOM      4  C   UNL     1     -10.242  -6.226   8.648  0.00  0.00    +0.037 A 
ATOM      5  C   UNL     1      -9.616  -6.765   8.634  0.00  0.00    +0.008 A 
ATOM      6  C   UNL     1      -8.843  -6.496   8.533  0.00  0.00    +0.055 A 
ATOM      7  C   UNL     1      -8.695  -5.690   8.448  0.00  0.00    +0.008 A 
ATOM      8  C   UNL     1      -9.320  -5.151   8.462  0.00  0.00    +0.037 A 
BRANCH   3   2
ATOM      1  C   UNL     1     -10.691  -4.233   9.085  0.00  0.00    +0.252 C 
ATOM      2  O   UNL     1     -10.718  -4.881   8.577  0.00  0.00    -0.471 OA
ENDBRANCH   3   2
ENDBRANCH   9   6
ENDBRANCH  12  11
ENDBRANCH  17  14
TORSDOF 6
ENDMDL
