MODEL 1
REMARK VINA RESULT:     -11.2      0.000      0.000
REMARK  Name = 
REMARK  6 active torsions:
REMARK  status: ('A' for Active; 'I' for Inactive)
REMARK    1  A    between atoms: C_2  and  C_4
REMARK    2  A    between atoms: C_4  and  N_5
REMARK    3  A    between atoms: C_6  and  C_12
REMARK    4  A    between atoms: C_12  and  C_14
REMARK    5  A    between atoms: C_17  and  N_18
REMARK    6  A    between atoms: C_19  and  C_21
REMARK                            x       y       z     vdW  Elec       q    Type
REMARK                         _______ _______ _______ _____ _____    ______ ____
ROOT
ATOM     14  C   UNL     1      -3.567   2.171  24.141  0.00  0.00    +0.010 A 
ATOM     15  C   UNL     1      -2.919   1.737  23.870  0.00  0.00    -0.000 A 
ATOM     16  C   UNL     1      -2.973   0.917  23.801  0.00  0.00    +0.016 A 
ATOM     17  C   UNL     1      -3.674   0.530  24.003  0.00  0.00    +0.074 A 
ATOM     26  C   UNL     1      -4.321   0.965  24.273  0.00  0.00    +0.016 A 
ATOM     27  C   UNL     1      -4.267   1.786  24.342  0.00  0.00    -0.000 A 
ENDROOT
BRANCH  17  18
ATOM     18  N   UNL     1      -3.728  -0.290  23.934  0.00  0.00    -0.175 NA
ATOM     19  C   UNL     1      -3.596  -0.768  24.594  0.00  0.00    +0.275 C 
ATOM     20  O   UNL     1      -3.411  -0.427  25.322  0.00  0.00    -0.267 OA
BRANCH  19  21
ATOM     21  C   UNL     1      -3.650  -1.589  24.525  0.00  0.00    +0.085 A 
ATOM     22  C   UNL     1      -4.114  -2.000  23.982  0.00  0.00    +0.012 A 
ATOM     23  C   UNL     1      -4.000  -2.808  24.109  0.00  0.00    +0.008 A 
ATOM     24  C   UNL     1      -3.465  -2.895  24.730  0.00  0.00    +0.036 A 
ATOM     25  S   UNL     1      -3.249  -2.141  24.987  0.00  0.00    -0.082 S 
ENDBRANCH  19  21
ENDBRANCH  17  18
BRANCH  14  12
ATOM     12  C   UNL     1      -3.513   2.992  24.209  0.00  0.00    +0.195 C 
ATOM     13  O   UNL     1      -3.437   3.459  23.533  0.00  0.00    -0.216 OA
BRANCH  12   6
ATOM      5  N   UNL     1      -2.894   3.790  25.220  0.00  0.00    -0.274 N 
ATOM      6  C   UNL     1      -3.536   3.346  24.954  0.00  0.00    +0.139 C 
ATOM      7  C   UNL     1      -4.202   3.255  25.432  0.00  0.00    +0.165 C 
ATOM      8  O   UNL     1      -4.225   3.610  26.177  0.00  0.00    -0.343 OA
ATOM      9  C   UNL     1      -3.583   4.054  26.443  0.00  0.00    +0.227 C 
ATOM     10  C   UNL     1      -2.917   4.144  25.964  0.00  0.00    +0.256 C 
ATOM     11  O   UNL     1      -2.275   4.589  26.230  0.00  0.00    -0.272 OA
BRANCH   5   4
ATOM      4  C   UNL     1      -2.229   3.880  24.741  0.00  0.00    +0.094 C 
BRANCH   4   2
ATOM      1  C   UNL     1      -0.991   3.709  25.435  0.00  0.00    +0.002 C 
ATOM      2  C   UNL     1      -1.535   4.199  25.054  0.00  0.00    +0.020 C 
ATOM      3  C   UNL     1      -1.385   5.008  24.987  0.00  0.00    +0.002 C 
ENDBRANCH   4   2
ENDBRANCH   5   4
ENDBRANCH  12   6
ENDBRANCH  14  12
TORSDOF 6
ENDMDL
MODEL 2
REMARK VINA RESULT:     -10.1      2.181      5.760
REMARK  Name = 
REMARK  6 active torsions:
REMARK  status: ('A' for Active; 'I' for Inactive)
REMARK    1  A    between atoms: C_2  and  C_4
REMARK    2  A    between atoms: C_4  and  N_5
REMARK    3  A    between atoms: C_6  and  C_12
REMARK    4  A    between atoms: C_12  and  C_14
REMARK    5  A    between atoms: C_17  and  N_18
REMARK    6  A    between atoms: C_19  and  C_21
REMARK                            x       y       z     vdW  Elec       q    Type
REMARK                         _______ _______ _______ _____ _____    ______ ____
ROOT
ATOM     14  C   UNL     1      -1.896   0.284  25.390  0.00  0.00    +0.010 A 
ATOM     15  C   UNL     1      -2.442   0.733  24.963  0.00  0.00    -0.000 A 
ATOM     16  C   UNL     1      -2.276   1.521  24.783  0.00  0.00    +0.016 A 
ATOM     17  C   UNL     1      -1.564   1.860  25.029  0.00  0.00    +0.074 A 
ATOM     26  C   UNL     1      -1.020   1.410  25.455  0.00  0.00    +0.016 A 
ATOM     27  C   UNL     1      -1.186   0.622  25.635  0.00  0.00    -0.000 A 
ENDROOT
BRANCH  17  18
ATOM     18  N   UNL     1      -1.398   2.647  24.848  0.00  0.00    -0.175 NA
ATOM     19  C   UNL     1      -1.566   3.240  25.397  0.00  0.00    +0.275 C 
ATOM     20  O   UNL     1      -1.901   3.047  26.126  0.00  0.00    -0.267 OA
BRANCH  19  21
ATOM     21  C   UNL     1      -1.400   4.028  25.216  0.00  0.00    +0.085 A 
ATOM     22  C   UNL     1      -0.693   4.315  24.903  0.00  0.00    +0.012 A 
ATOM     23  C   UNL     1      -0.768   5.132  24.810  0.00  0.00    +0.008 A 
ATOM     24  C   UNL     1      -1.520   5.349  25.066  0.00  0.00    +0.036 A 
ATOM     25  S   UNL     1      -1.912   4.667  25.317  0.00  0.00    -0.082 S 
ENDBRANCH  19  21
ENDBRANCH  17  18
BRANCH  14  12
ATOM     12  C   UNL     1      -2.063  -0.503  25.570  0.00  0.00    +0.195 C 
ATOM     13  O   UNL     1      -2.544  -0.686  26.216  0.00  0.00    -0.216 OA
BRANCH  12   6
ATOM      5  N   UNL     1      -2.248  -1.670  24.766  0.00  0.00    -0.274 N 
ATOM      6  C   UNL     1      -1.748  -1.108  25.106  0.00  0.00    +0.139 C 
ATOM      7  C   UNL     1      -0.934  -1.151  24.982  0.00  0.00    +0.165 C 
ATOM      8  O   UNL     1      -0.619  -1.757  24.518  0.00  0.00    -0.343 OA
ATOM      9  C   UNL     1      -1.119  -2.319  24.178  0.00  0.00    +0.227 C 
ATOM     10  C   UNL     1      -1.933  -2.275  24.303  0.00  0.00    +0.256 C 
ATOM     11  O   UNL     1      -2.433  -2.837  23.963  0.00  0.00    -0.272 OA
BRANCH   5   4
ATOM      4  C   UNL     1      -3.062  -1.627  24.891  0.00  0.00    +0.094 C 
BRANCH   4   2
ATOM      1  C   UNL     1      -4.000  -2.140  23.942  0.00  0.00    +0.002 C 
ATOM      2  C   UNL     1      -3.552  -2.237  24.629  0.00  0.00    +0.020 C 
ATOM      3  C   UNL     1      -3.595  -2.943  25.052  0.00  0.00    +0.002 C 
ENDBRANCH   4   2
ENDBRANCH   5   4
ENDBRANCH  12   6
ENDBRANCH  14  12
TORSDOF 6
ENDMDL
