MODEL 1
REMARK VINA RESULT:     -14.3      0.000      0.000
REMARK  Name = 
REMARK  7 active torsions:
REMARK  status: ('A' for Active; 'I' for Inactive)
REMARK    1  A    between atoms: O_2  and  C_3
REMARK    2  A    between atoms: C_3  and  C_4
REMARK    3  A    between atoms: C_4  and  N_5
REMARK    4  A    between atoms: C_6  and  C_8
REMARK    5  A    between atoms: C_8  and  C_9
REMARK    6  A    between atoms: C_14  and  C_16
REMARK    7  A    between atoms: C_27  and  C_29
REMARK                            x       y       z     vdW  Elec       q    Type
REMARK                         _______ _______ _______ _____ _____    ______ ____
ROOT
ATOM      9  C   UNL     1      -3.521   0.003  24.378  0.00  0.00    +0.050 C 
ATOM     10  C   UNL     1      -2.836   0.441  24.525  0.00  0.00    +0.063 A 
ATOM     11  C   UNL     1      -2.124   0.053  24.674  0.00  0.00    +0.023 A 
ATOM     12  C   UNL     1      -2.095  -0.771  24.676  0.00  0.00    +0.034 C 
ATOM     13  C   UNL     1      -2.779  -1.208  24.530  0.00  0.00    +0.010 C 
ATOM     14  C   UNL     1      -2.750  -2.033  24.532  0.00  0.00    +0.059 C 
ATOM     15  C   UNL     1      -1.961  -1.862  24.700  0.00  0.00    +0.005 C 
ATOM     18  C   UNL     1      -3.435  -2.469  24.386  0.00  0.00    +0.154 C 
ATOM     19  O   UNL     1      -3.407  -3.295  24.388  0.00  0.00    -0.223 OA
ATOM     20  C   UNL     1      -4.148  -2.082  24.237  0.00  0.00    +0.033 C 
ATOM     21  C   UNL     1      -4.176  -1.258  24.234  0.00  0.00    +0.003 C 
ATOM     22  C   UNL     1      -3.492  -0.820  24.381  0.00  0.00    +0.006 C 
ATOM     23  C   UNL     1      -4.205  -0.433  24.232  0.00  0.00    +0.000 C 
ATOM     24  S   UNL     1      -1.543   0.626  24.799  0.00  0.00    -0.054 S 
ATOM     25  C   UNL     1      -1.897   1.367  24.727  0.00  0.00    +0.185 A 
ATOM     26  N   UNL     1      -1.519   2.096  24.810  0.00  0.00    -0.151 NA
ATOM     27  C   UNL     1      -1.947   2.796  24.722  0.00  0.00    +0.271 C 
ATOM     28  O   UNL     1      -2.753   2.767  24.552  0.00  0.00    -0.268 OA
ATOM     36  N   UNL     1      -2.697   1.253  24.557  0.00  0.00    -0.227 NA
ENDROOT
BRANCH  27  29
ATOM     29  C   UNL     1      -1.569   3.524  24.805  0.00  0.00    +0.056 A 
ATOM     30  C   UNL     1      -0.805   3.629  24.513  0.00  0.00    +0.007 A 
ATOM     31  C   UNL     1      -0.427   4.358  24.596  0.00  0.00    +0.030 A 
ATOM     32  C   UNL     1      -0.814   4.982  24.972  0.00  0.00    +0.140 A 
ATOM     33  F   UNL     1      -0.437   5.711  25.055  0.00  0.00    -0.204 F 
ATOM     34  C   UNL     1      -1.579   4.878  25.264  0.00  0.00    +0.030 A 
ATOM     35  C   UNL     1      -1.955   4.149  25.181  0.00  0.00    +0.007 A 
ENDBRANCH  27  29
BRANCH  14  16
ATOM     16  C   UNL     1      -2.448  -2.798  24.593  0.00  0.00    +0.184 C 
ATOM     17  O   UNL     1      -1.632  -2.917  24.628  0.00  0.00    -0.220 OA
ENDBRANCH  14  16
BRANCH   9   8
ATOM      8  C   UNL     1      -4.233   0.391  24.229  0.00  0.00    +0.093 C 
BRANCH   8   6
ATOM      5  N   UNL     1      -5.124   1.394  24.723  0.00  0.00    -0.203 NA
ATOM      6  C   UNL     1      -4.660   0.724  24.853  0.00  0.00    +0.242 C 
ATOM      7  O   UNL     1      -4.621   0.388  25.604  0.00  0.00    -0.273 OA
BRANCH   5   4
ATOM      4  C   UNL     1      -5.550   1.726  25.347  0.00  0.00    +0.147 C 
BRANCH   4   3
ATOM      3  C   UNL     1      -5.883   2.477  25.265  0.00  0.00    +0.166 C 
BRANCH   3   2
ATOM      1  C   UNL     1      -5.746   3.845  25.653  0.00  0.00    +0.174 C 
ATOM      2  O   UNL     1      -5.768   3.045  25.852  0.00  0.00    -0.349 OA
ENDBRANCH   3   2
ENDBRANCH   4   3
ENDBRANCH   5   4
ENDBRANCH   8   6
ENDBRANCH   9   8
TORSDOF 7
ENDMDL
MODEL 2
REMARK VINA RESULT:     -13.5      1.885      3.552
REMARK  Name = 
REMARK  7 active torsions:
REMARK  status: ('A' for Active; 'I' for Inactive)
REMARK    1  A    between atoms: O_2  and  C_3
REMARK    2  A    between atoms: C_3  and  C_4
REMARK    3  A    between atoms: C_4  and  N_5
REMARK    4  A    between atoms: C_6  and  C_8
REMARK    5  A    between atoms: C_8  and  C_9
REMARK    6  A    between atoms: C_14  and  C_16
REMARK    7  A    between atoms: C_27  and  C_29
REMARK                            x       y       z     vdW  Elec       q    Type
REMARK                         _______ _______ _______ _____ _____    ______ ____
ROOT
ATOM      9  C   UNL     1      -1.549  -0.478  24.618  0.00  0.00    +0.050 C 
ATOM     10  C   UNL     1      -1.931   0.249  24.698  0.00  0.00    +0.063 A 
ATOM     11  C   UNL     1      -2.755   0.282  24.717  0.00  0.00    +0.023 A 
ATOM     12  C   UNL     1      -3.197  -0.411  24.656  0.00  0.00    +0.034 C 
ATOM     13  C   UNL     1      -2.816  -1.138  24.577  0.00  0.00    +0.010 C 
ATOM     14  C   UNL     1      -3.259  -1.832  24.516  0.00  0.00    +0.059 C 
ATOM     15  C   UNL     1      -3.867  -1.279  24.583  0.00  0.00    +0.005 C 
ATOM     18  C   UNL     1      -2.876  -2.558  24.436  0.00  0.00    +0.154 C 
ATOM     19  O   UNL     1      -3.319  -3.253  24.375  0.00  0.00    -0.223 OA
ATOM     20  C   UNL     1      -2.053  -2.592  24.417  0.00  0.00    +0.033 C 
ATOM     21  C   UNL     1      -1.610  -1.898  24.478  0.00  0.00    +0.003 C 
ATOM     22  C   UNL     1      -1.991  -1.171  24.558  0.00  0.00    +0.006 C 
ATOM     23  C   UNL     1      -1.168  -1.205  24.539  0.00  0.00    +0.000 C 
ATOM     24  S   UNL     1      -2.976   1.073  24.800  0.00  0.00    -0.054 S 
ATOM     25  C   UNL     1      -2.289   1.528  24.832  0.00  0.00    +0.185 A 
ATOM     26  N   UNL     1      -2.254   2.349  24.913  0.00  0.00    -0.151 NA
ATOM     27  C   UNL     1      -1.523   2.730  24.937  0.00  0.00    +0.271 C 
ATOM     28  O   UNL     1      -0.827   2.291  24.880  0.00  0.00    -0.268 OA
ATOM     36  N   UNL     1      -1.643   1.019  24.769  0.00  0.00    -0.227 NA
ENDROOT
BRANCH  27  29
ATOM     29  C   UNL     1      -1.487   3.550  25.019  0.00  0.00    +0.056 A 
ATOM     30  C   UNL     1      -2.098   3.955  25.395  0.00  0.00    +0.007 A 
ATOM     31  C   UNL     1      -2.063   4.775  25.476  0.00  0.00    +0.030 A 
ATOM     32  C   UNL     1      -1.414   5.191  25.180  0.00  0.00    +0.140 A 
ATOM     33  F   UNL     1      -1.377   6.011  25.260  0.00  0.00    -0.204 F 
ATOM     34  C   UNL     1      -0.802   4.785  24.802  0.00  0.00    +0.030 A 
ATOM     35  C   UNL     1      -0.839   3.965  24.722  0.00  0.00    +0.007 A 
ENDBRANCH  27  29
BRANCH  14  16
ATOM     16  C   UNL     1      -3.912  -2.333  24.478  0.00  0.00    +0.184 C 
ATOM     17  O   UNL     1      -4.591  -2.096  24.073  0.00  0.00    -0.220 OA
ENDBRANCH  14  16
BRANCH   9   8
ATOM      8  C   UNL     1      -0.725  -0.511  24.599  0.00  0.00    +0.093 C 
BRANCH   8   6
ATOM      5  N   UNL     1       0.498  -0.261  23.905  0.00  0.00    -0.203 NA
ATOM      6  C   UNL     1      -0.322  -0.343  23.899  0.00  0.00    +0.242 C 
ATOM      7  O   UNL     1      -0.740  -0.258  23.193  0.00  0.00    -0.273 OA
BRANCH   5   4
ATOM      4  C   UNL     1       0.902  -0.092  23.205  0.00  0.00    +0.147 C 
BRANCH   4   3
ATOM      3  C   UNL     1       1.711   0.063  23.223  0.00  0.00    +0.166 C 
BRANCH   3   2
ATOM      1  C   UNL     1       2.942   0.286  22.531  0.00  0.00    +0.174 C 
ATOM      2  O   UNL     1       2.143   0.080  22.519  0.00  0.00    -0.349 OA
ENDBRANCH   3   2
ENDBRANCH   4   3
ENDBRANCH   5   4
ENDBRANCH   8   6
ENDBRANCH   9   8
TORSDOF 7
ENDMDL
MODEL 3
REMARK VINA RESULT:     -12.9      2.517      6.026
REMARK  Name = 
REMARK  7 active torsions:
REMARK  status: ('A' for Active; 'I' for Inactive)
REMARK    1  A    between atoms: O_2  and  C_3
REMARK    2  A    between atoms: C_3  and  C_4
REMARK    3  A    between atoms: C_4  and  N_5
REMARK    4  A    between atoms: C_6  and  C_8
REMARK    5  A    between atoms: C_8  and  C_9
REMARK    6  A    between atoms: C_14  and  C_16
REMARK    7  A    between atoms: C_27  and  C_29
REMARK                            x       y       z     vdW  Elec       q    Type
REMARK                         _______ _______ _______ _____ _____    ______ ____
ROOT
ATOM      9  C   UNL     1      -1.265   2.092  24.917  0.00  0.00    +0.050 C 
ATOM     10  C   UNL     1      -1.959   1.645  24.876  0.00  0.00    +0.063 A 
ATOM     11  C   UNL     1      -2.692   2.014  24.952  0.00  0.00    +0.023 A 
ATOM     12  C   UNL     1      -2.733   2.829  25.071  0.00  0.00    +0.034 C 
ATOM     13  C   UNL     1      -2.041   3.275  25.113  0.00  0.00    +0.010 C 
ATOM     14  C   UNL     1      -2.082   4.091  25.231  0.00  0.00    +0.059 C 
ATOM     15  C   UNL     1      -2.886   3.906  25.231  0.00  0.00    +0.005 C 
ATOM     18  C   UNL     1      -1.389   4.537  25.273  0.00  0.00    +0.154 C 
ATOM     19  O   UNL     1      -1.431   5.353  25.392  0.00  0.00    -0.223 OA
ATOM     20  C   UNL     1      -0.656   4.168  25.196  0.00  0.00    +0.033 C 
ATOM     21  C   UNL     1      -0.615   3.353  25.078  0.00  0.00    +0.003 C 
ATOM     22  C   UNL     1      -1.307   2.906  25.036  0.00  0.00    +0.006 C 
ATOM     23  C   UNL     1      -0.573   2.537  24.959  0.00  0.00    +0.000 C 
ATOM     24  S   UNL     1      -3.276   1.434  24.888  0.00  0.00    -0.054 S 
ATOM     25  C   UNL     1      -2.904   0.708  24.772  0.00  0.00    +0.185 A 
ATOM     26  N   UNL     1      -3.279  -0.021  24.679  0.00  0.00    -0.151 NA
ATOM     27  C   UNL     1      -2.832  -0.704  24.566  0.00  0.00    +0.271 C 
ATOM     28  O   UNL     1      -2.009  -0.659  24.546  0.00  0.00    -0.268 OA
ATOM     36  N   UNL     1      -2.089   0.838  24.764  0.00  0.00    -0.227 NA
ENDROOT
BRANCH  27  29
ATOM     29  C   UNL     1      -3.208  -1.433  24.473  0.00  0.00    +0.056 A 
ATOM     30  C   UNL     1      -3.841  -1.508  23.951  0.00  0.00    +0.007 A 
ATOM     31  C   UNL     1      -4.216  -2.237  23.858  0.00  0.00    +0.030 A 
ATOM     32  C   UNL     1      -3.958  -2.891  24.289  0.00  0.00    +0.140 A 
ATOM     33  F   UNL     1      -4.332  -3.620  24.197  0.00  0.00    -0.204 F 
ATOM     34  C   UNL     1      -3.324  -2.816  24.813  0.00  0.00    +0.030 A 
ATOM     35  C   UNL     1      -2.949  -2.087  24.904  0.00  0.00    +0.007 A 
ENDBRANCH  27  29
BRANCH  14  16
ATOM     16  C   UNL     1      -2.403   4.842  25.350  0.00  0.00    +0.184 C 
ATOM     17  O   UNL     1      -3.157   4.921  25.675  0.00  0.00    -0.220 OA
ENDBRANCH  14  16
BRANCH   9   8
ATOM      8  C   UNL     1      -0.532   1.722  24.840  0.00  0.00    +0.093 C 
BRANCH   8   6
ATOM      5  N   UNL     1       0.334   0.932  24.023  0.00  0.00    -0.203 NA
ATOM      6  C   UNL     1      -0.257   1.503  24.093  0.00  0.00    +0.242 C 
ATOM      7  O   UNL     1      -0.573   1.856  23.418  0.00  0.00    -0.273 OA
BRANCH   5   4
ATOM      4  C   UNL     1       0.608   0.713  23.275  0.00  0.00    +0.147 C 
BRANCH   4   3
ATOM      3  C   UNL     1       1.199   0.141  23.205  0.00  0.00    +0.166 C 
BRANCH   3   2
ATOM      1  C   UNL     1       2.407  -0.047  22.465  0.00  0.00    +0.174 C 
ATOM      2  O   UNL     1       1.586   0.036  22.484  0.00  0.00    -0.349 OA
ENDBRANCH   3   2
ENDBRANCH   4   3
ENDBRANCH   5   4
ENDBRANCH   8   6
ENDBRANCH   9   8
TORSDOF 7
ENDMDL
MODEL 4
REMARK VINA RESULT:     -12.6      2.052      5.136
REMARK  Name = 
REMARK  7 active torsions:
REMARK  status: ('A' for Active; 'I' for Inactive)
REMARK    1  A    between atoms: O_2  and  C_3
REMARK    2  A    between atoms: C_3  and  C_4
REMARK    3  A    between atoms: C_4  and  N_5
REMARK    4  A    between atoms: C_6  and  C_8
REMARK    5  A    between atoms: C_8  and  C_9
REMARK    6  A    between atoms: C_14  and  C_16
REMARK    7  A    between atoms: C_27  and  C_29
REMARK                            x       y       z     vdW  Elec       q    Type
REMARK                         _______ _______ _______ _____ _____    ______ ____
ROOT
ATOM      9  C   UNL     1      -2.593   2.916  25.317  0.00  0.00    +0.050 C 
ATOM     10  C   UNL     1      -2.402   2.181  24.994  0.00  0.00    +0.063 A 
ATOM     11  C   UNL     1      -1.706   2.090  24.561  0.00  0.00    +0.023 A 
ATOM     12  C   UNL     1      -1.202   2.732  24.451  0.00  0.00    +0.034 C 
ATOM     13  C   UNL     1      -1.392   3.467  24.773  0.00  0.00    +0.010 C 
ATOM     14  C   UNL     1      -0.887   4.110  24.663  0.00  0.00    +0.059 C 
ATOM     15  C   UNL     1      -0.471   3.528  24.253  0.00  0.00    +0.005 C 
ATOM     18  C   UNL     1      -1.079   4.844  24.986  0.00  0.00    +0.154 C 
ATOM     19  O   UNL     1      -0.573   5.488  24.876  0.00  0.00    -0.223 OA
ATOM     20  C   UNL     1      -1.775   4.936  25.419  0.00  0.00    +0.033 C 
ATOM     21  C   UNL     1      -2.280   4.293  25.529  0.00  0.00    +0.003 C 
ATOM     22  C   UNL     1      -2.089   3.558  25.207  0.00  0.00    +0.006 C 
ATOM     23  C   UNL     1      -2.785   3.650  25.640  0.00  0.00    +0.000 C 
ATOM     24  S   UNL     1      -1.664   1.304  24.311  0.00  0.00    -0.054 S 
ATOM     25  C   UNL     1      -2.333   0.911  24.588  0.00  0.00    +0.185 A 
ATOM     26  N   UNL     1      -2.515   0.115  24.466  0.00  0.00    -0.151 NA
ATOM     27  C   UNL     1      -3.208  -0.203  24.779  0.00  0.00    +0.271 C 
ATOM     28  O   UNL     1      -3.720   0.274  25.216  0.00  0.00    -0.268 OA
ATOM     36  N   UNL     1      -2.790   1.453  25.011  0.00  0.00    -0.227 NA
ENDROOT
BRANCH  27  29
ATOM     29  C   UNL     1      -3.390  -0.998  24.657  0.00  0.00    +0.056 A 
ATOM     30  C   UNL     1      -3.038  -1.579  25.125  0.00  0.00    +0.007 A 
ATOM     31  C   UNL     1      -3.220  -2.375  25.002  0.00  0.00    +0.030 A 
ATOM     32  C   UNL     1      -3.754  -2.589  24.411  0.00  0.00    +0.140 A 
ATOM     33  F   UNL     1      -3.937  -3.384  24.288  0.00  0.00    -0.204 F 
ATOM     34  C   UNL     1      -4.106  -2.007  23.943  0.00  0.00    +0.030 A 
ATOM     35  C   UNL     1      -3.924  -1.213  24.066  0.00  0.00    +0.007 A 
ENDBRANCH  27  29
BRANCH  14  16
ATOM     16  C   UNL     1      -0.238   4.551  24.410  0.00  0.00    +0.184 C 
ATOM     17  O   UNL     1       0.194   4.308  23.750  0.00  0.00    -0.220 OA
ENDBRANCH  14  16
BRANCH   9   8
ATOM      8  C   UNL     1      -3.290   3.007  25.750  0.00  0.00    +0.093 C 
BRANCH   8   6
ATOM      5  N   UNL     1      -4.711   2.866  25.719  0.00  0.00    -0.203 NA
ATOM      6  C   UNL     1      -4.009   3.105  25.357  0.00  0.00    +0.242 C 
ATOM      7  O   UNL     1      -4.026   3.439  24.604  0.00  0.00    -0.273 OA
BRANCH   5   4
ATOM      4  C   UNL     1      -5.431   2.964  25.326  0.00  0.00    +0.147 C 
BRANCH   4   3
ATOM      3  C   UNL     1      -6.077   2.493  25.529  0.00  0.00    +0.166 C 
BRANCH   3   2
ATOM      1  C   UNL     1      -6.767   1.421  24.882  0.00  0.00    +0.174 C 
ATOM      2  O   UNL     1      -6.592   2.225  24.941  0.00  0.00    -0.349 OA
ENDBRANCH   3   2
ENDBRANCH   4   3
ENDBRANCH   5   4
ENDBRANCH   8   6
ENDBRANCH   9   8
TORSDOF 7
ENDMDL
MODEL 5
REMARK VINA RESULT:     -11.9      1.453      3.303
REMARK  Name = 
REMARK  7 active torsions:
REMARK  status: ('A' for Active; 'I' for Inactive)
REMARK    1  A    between atoms: O_2  and  C_3
REMARK    2  A    between atoms: C_3  and  C_4
REMARK    3  A    between atoms: C_4  and  N_5
REMARK    4  A    between atoms: C_6  and  C_8
REMARK    5  A    between atoms: C_8  and  C_9
REMARK    6  A    between atoms: C_14  and  C_16
REMARK    7  A    between atoms: C_27  and  C_29
REMARK                            x       y       z     vdW  Elec       q    Type
REMARK                         _______ _______ _______ _____ _____    ______ ____
ROOT
ATOM      9  C   UNL     1      -2.423  -0.219  25.014  0.00  0.00    +0.050 C 
ATOM     10  C   UNL     1      -3.166   0.137  24.963  0.00  0.00    +0.063 A 
ATOM     11  C   UNL     1      -3.821  -0.306  24.728  0.00  0.00    +0.023 A 
ATOM     12  C   UNL     1      -3.733  -1.105  24.543  0.00  0.00    +0.034 C 
ATOM     13  C   UNL     1      -2.991  -1.461  24.594  0.00  0.00    +0.010 C 
ATOM     14  C   UNL     1      -2.903  -2.261  24.410  0.00  0.00    +0.059 C 
ATOM     15  C   UNL     1      -3.712  -2.172  24.279  0.00  0.00    +0.005 C 
ATOM     18  C   UNL     1      -2.160  -2.616  24.461  0.00  0.00    +0.154 C 
ATOM     19  O   UNL     1      -2.073  -3.416  24.276  0.00  0.00    -0.223 OA
ATOM     20  C   UNL     1      -1.506  -2.173  24.696  0.00  0.00    +0.033 C 
ATOM     21  C   UNL     1      -1.594  -1.374  24.881  0.00  0.00    +0.003 C 
ATOM     22  C   UNL     1      -2.336  -1.017  24.830  0.00  0.00    +0.006 C 
ATOM     23  C   UNL     1      -1.681  -0.575  25.065  0.00  0.00    +0.000 C 
ATOM     24  S   UNL     1      -4.479   0.192  24.728  0.00  0.00    -0.054 S 
ATOM     25  C   UNL     1      -4.231   0.942  24.964  0.00  0.00    +0.185 A 
ATOM     26  N   UNL     1      -4.710   1.610  25.041  0.00  0.00    -0.151 NA
ATOM     27  C   UNL     1      -4.383   2.326  25.283  0.00  0.00    +0.271 C 
ATOM     28  O   UNL     1      -3.577   2.377  25.449  0.00  0.00    -0.268 OA
ATOM     36  N   UNL     1      -3.420   0.909  25.109  0.00  0.00    -0.227 NA
ENDROOT
BRANCH  27  29
ATOM     29  C   UNL     1      -4.862   2.994  25.361  0.00  0.00    +0.056 A 
ATOM     30  C   UNL     1      -5.612   2.928  25.696  0.00  0.00    +0.007 A 
ATOM     31  C   UNL     1      -6.091   3.595  25.773  0.00  0.00    +0.030 A 
ATOM     32  C   UNL     1      -5.819   4.330  25.515  0.00  0.00    +0.140 A 
ATOM     33  F   UNL     1      -6.297   4.998  25.591  0.00  0.00    -0.204 F 
ATOM     34  C   UNL     1      -5.068   4.397  25.179  0.00  0.00    +0.030 A 
ATOM     35  C   UNL     1      -4.590   3.729  25.102  0.00  0.00    +0.007 A 
ENDBRANCH  27  29
BRANCH  14  16
ATOM     16  C   UNL     1      -3.097  -3.029  24.180  0.00  0.00    +0.184 C 
ATOM     17  O   UNL     1      -3.887  -3.264  24.152  0.00  0.00    -0.220 OA
ENDBRANCH  14  16
BRANCH   9   8
ATOM      8  C   UNL     1      -1.769   0.225  25.250  0.00  0.00    +0.093 C 
BRANCH   8   6
ATOM      5  N   UNL     1      -0.978   1.386  24.993  0.00  0.00    -0.203 NA
ATOM      6  C   UNL     1      -1.406   0.739  24.715  0.00  0.00    +0.242 C 
ATOM      7  O   UNL     1      -1.471   0.604  23.905  0.00  0.00    -0.273 OA
BRANCH   5   4
ATOM      4  C   UNL     1      -0.614   1.900  24.459  0.00  0.00    +0.147 C 
BRANCH   4   3
ATOM      3  C   UNL     1      -0.291   2.611  24.726  0.00  0.00    +0.166 C 
BRANCH   3   2
ATOM      1  C   UNL     1      -0.500   4.024  24.728  0.00  0.00    +0.174 C 
ATOM      2  O   UNL     1      -0.441   3.312  24.317  0.00  0.00    -0.349 OA
ENDBRANCH   3   2
ENDBRANCH   4   3
ENDBRANCH   5   4
ENDBRANCH   8   6
ENDBRANCH   9   8
TORSDOF 7
ENDMDL
MODEL 6
REMARK VINA RESULT:     -11.5      2.055      4.412
REMARK  Name = 
REMARK  7 active torsions:
REMARK  status: ('A' for Active; 'I' for Inactive)
REMARK    1  A    between atoms: O_2  and  C_3
REMARK    2  A    between atoms: C_3  and  C_4
REMARK    3  A    between atoms: C_4  and  N_5
REMARK    4  A    between atoms: C_6  and  C_8
REMARK    5  A    between atoms: C_8  and  C_9
REMARK    6  A    between atoms: C_14  and  C_16
REMARK    7  A    between atoms: C_27  and  C_29
REMARK                            x       y       z     vdW  Elec       q    Type
REMARK                         _______ _______ _______ _____ _____    ______ ____
ROOT
ATOM      9  C   UNL     1      -3.815   1.361  24.493  0.00  0.00    +0.050 C 
ATOM     10  C   UNL     1      -3.019   1.580  24.466  0.00  0.00    +0.063 A 
ATOM     11  C   UNL     1      -2.783   2.312  24.763  0.00  0.00    +0.023 A 
ATOM     12  C   UNL     1      -3.341   2.826  25.085  0.00  0.00    +0.034 C 
ATOM     13  C   UNL     1      -4.136   2.608  25.112  0.00  0.00    +0.010 C 
ATOM     14  C   UNL     1      -4.695   3.122  25.434  0.00  0.00    +0.059 C 
ATOM     15  C   UNL     1      -4.012   3.574  25.532  0.00  0.00    +0.005 C 
ATOM     18  C   UNL     1      -5.490   2.903  25.460  0.00  0.00    +0.154 C 
ATOM     19  O   UNL     1      -6.050   3.418  25.783  0.00  0.00    -0.223 OA
ATOM     20  C   UNL     1      -5.727   2.171  25.164  0.00  0.00    +0.033 C 
ATOM     21  C   UNL     1      -5.168   1.657  24.841  0.00  0.00    +0.003 C 
ATOM     22  C   UNL     1      -4.373   1.875  24.815  0.00  0.00    +0.006 C 
ATOM     23  C   UNL     1      -4.609   1.143  24.519  0.00  0.00    +0.000 C 
ATOM     24  S   UNL     1      -1.966   2.376  24.663  0.00  0.00    -0.054 S 
ATOM     25  C   UNL     1      -1.698   1.683  24.305  0.00  0.00    +0.185 A 
ATOM     26  N   UNL     1      -0.917   1.512  24.103  0.00  0.00    -0.151 NA
ATOM     27  C   UNL     1      -0.731   0.793  23.746  0.00  0.00    +0.271 C 
ATOM     28  O   UNL     1      -1.326   0.243  23.590  0.00  0.00    -0.268 OA
ATOM     36  N   UNL     1      -2.349   1.190  24.183  0.00  0.00    -0.227 NA
ENDROOT
BRANCH  27  29
ATOM     29  C   UNL     1       0.051   0.621  23.544  0.00  0.00    +0.056 A 
ATOM     30  C   UNL     1       0.651   1.156  23.725  0.00  0.00    +0.007 A 
ATOM     31  C   UNL     1       1.433   0.985  23.524  0.00  0.00    +0.030 A 
ATOM     32  C   UNL     1       1.613   0.277  23.140  0.00  0.00    +0.140 A 
ATOM     33  F   UNL     1       2.394   0.105  22.938  0.00  0.00    -0.204 F 
ATOM     34  C   UNL     1       1.012  -0.259  22.958  0.00  0.00    +0.030 A 
ATOM     35  C   UNL     1       0.232  -0.087  23.161  0.00  0.00    +0.007 A 
ENDBRANCH  27  29
BRANCH  14  16
ATOM     16  C   UNL     1      -5.016   3.793  25.791  0.00  0.00    +0.184 C 
ATOM     17  O   UNL     1      -4.518   4.374  26.101  0.00  0.00    -0.220 OA
ENDBRANCH  14  16
BRANCH   9   8
ATOM      8  C   UNL     1      -4.051   0.628  24.196  0.00  0.00    +0.093 C 
BRANCH   8   6
ATOM      5  N   UNL     1      -3.965  -0.795  24.290  0.00  0.00    -0.203 NA
ATOM      6  C   UNL     1      -3.945  -0.053  24.650  0.00  0.00    +0.242 C 
ATOM      7  O   UNL     1      -3.821   0.008  25.462  0.00  0.00    -0.273 OA
BRANCH   5   4
ATOM      4  C   UNL     1      -3.859  -1.477  24.743  0.00  0.00    +0.147 C 
BRANCH   4   3
ATOM      3  C   UNL     1      -3.804  -2.212  24.375  0.00  0.00    +0.166 C 
BRANCH   3   2
ATOM      1  C   UNL     1      -2.937  -3.332  24.563  0.00  0.00    +0.174 C 
ATOM      2  O   UNL     1      -3.578  -2.876  24.811  0.00  0.00    -0.349 OA
ENDBRANCH   3   2
ENDBRANCH   4   3
ENDBRANCH   5   4
ENDBRANCH   8   6
ENDBRANCH   9   8
TORSDOF 7
ENDMDL
MODEL 7
REMARK VINA RESULT:     -11.5      2.350      5.745
REMARK  Name = 
REMARK  7 active torsions:
REMARK  status: ('A' for Active; 'I' for Inactive)
REMARK    1  A    between atoms: O_2  and  C_3
REMARK    2  A    between atoms: C_3  and  C_4
REMARK    3  A    between atoms: C_4  and  N_5
REMARK    4  A    between atoms: C_6  and  C_8
REMARK    5  A    between atoms: C_8  and  C_9
REMARK    6  A    between atoms: C_14  and  C_16
REMARK    7  A    between atoms: C_27  and  C_29
REMARK                            x       y       z     vdW  Elec       q    Type
REMARK                         _______ _______ _______ _____ _____    ______ ____
ROOT
ATOM      9  C   UNL     1      -3.638   2.325  24.404  0.00  0.00    +0.050 C 
ATOM     10  C   UNL     1      -3.984   1.600  24.598  0.00  0.00    +0.063 A 
ATOM     11  C   UNL     1      -4.690   1.582  25.025  0.00  0.00    +0.023 A 
ATOM     12  C   UNL     1      -5.050   2.287  25.257  0.00  0.00    +0.034 C 
ATOM     13  C   UNL     1      -4.705   3.010  25.063  0.00  0.00    +0.010 C 
ATOM     14  C   UNL     1      -5.065   3.715  25.296  0.00  0.00    +0.059 C 
ATOM     15  C   UNL     1      -5.600   3.171  25.608  0.00  0.00    +0.005 C 
ATOM     18  C   UNL     1      -4.718   4.438  25.101  0.00  0.00    +0.154 C 
ATOM     19  O   UNL     1      -5.079   5.144  25.334  0.00  0.00    -0.223 OA
ATOM     20  C   UNL     1      -4.013   4.457  24.674  0.00  0.00    +0.033 C 
ATOM     21  C   UNL     1      -3.653   3.752  24.442  0.00  0.00    +0.003 C 
ATOM     22  C   UNL     1      -3.998   3.029  24.636  0.00  0.00    +0.006 C 
ATOM     23  C   UNL     1      -3.293   3.047  24.210  0.00  0.00    +0.000 C 
ATOM     24  S   UNL     1      -4.900   0.792  25.136  0.00  0.00    -0.054 S 
ATOM     25  C   UNL     1      -4.324   0.322  24.778  0.00  0.00    +0.185 A 
ATOM     26  N   UNL     1      -4.315  -0.503  24.755  0.00  0.00    -0.151 NA
ATOM     27  C   UNL     1      -3.701  -0.899  24.375  0.00  0.00    +0.271 C 
ATOM     28  O   UNL     1      -3.094  -0.470  24.016  0.00  0.00    -0.268 OA
ATOM     36  N   UNL     1      -3.758   0.822  24.445  0.00  0.00    -0.227 NA
ENDROOT
BRANCH  27  29
ATOM     29  C   UNL     1      -3.692  -1.724  24.353  0.00  0.00    +0.056 A 
ATOM     30  C   UNL     1      -4.135  -2.126  23.786  0.00  0.00    +0.007 A 
ATOM     31  C   UNL     1      -4.126  -2.951  23.763  0.00  0.00    +0.030 A 
ATOM     32  C   UNL     1      -3.673  -3.373  24.309  0.00  0.00    +0.140 A 
ATOM     33  F   UNL     1      -3.663  -4.197  24.288  0.00  0.00    -0.204 F 
ATOM     34  C   UNL     1      -3.229  -2.970  24.877  0.00  0.00    +0.030 A 
ATOM     35  C   UNL     1      -3.239  -2.146  24.898  0.00  0.00    +0.007 A 
ENDBRANCH  27  29
BRANCH  14  16
ATOM     16  C   UNL     1      -5.610   4.231  25.637  0.00  0.00    +0.184 C 
ATOM     17  O   UNL     1      -6.334   3.943  25.911  0.00  0.00    -0.220 OA
ENDBRANCH  14  16
BRANCH   9   8
ATOM      8  C   UNL     1      -2.933   2.342  23.977  0.00  0.00    +0.093 C 
BRANCH   8   6
ATOM      5  N   UNL     1      -1.540   2.024  23.929  0.00  0.00    -0.203 NA
ATOM      6  C   UNL     1      -2.214   2.219  24.364  0.00  0.00    +0.242 C 
ATOM      7  O   UNL     1      -2.169   2.291  25.184  0.00  0.00    -0.273 OA
BRANCH   5   4
ATOM      4  C   UNL     1      -0.822   1.902  24.317  0.00  0.00    +0.147 C 
BRANCH   4   3
ATOM      3  C   UNL     1      -0.185   1.574  23.908  0.00  0.00    +0.166 C 
BRANCH   3   2
ATOM      1  C   UNL     1       1.214   1.292  23.823  0.00  0.00    +0.174 C 
ATOM      2  O   UNL     1       0.584   1.679  24.189  0.00  0.00    -0.349 OA
ENDBRANCH   3   2
ENDBRANCH   4   3
ENDBRANCH   5   4
ENDBRANCH   8   6
ENDBRANCH   9   8
TORSDOF 7
ENDMDL
