MODEL 1
REMARK VINA RESULT:     -12.7      0.000      0.000
REMARK  Name = 
REMARK  5 active torsions:
REMARK  status: ('A' for Active; 'I' for Inactive)
REMARK    1  A    between atoms: C_2  and  C_3
REMARK    2  A    between atoms: C_2  and  C_25
REMARK    3  A    between atoms: C_10  and  N_11
REMARK    4  A    between atoms: C_12  and  C_14
REMARK    5  A    between atoms: N_27  and  C_28
REMARK                            x       y       z     vdW  Elec       q    Type
REMARK                         _______ _______ _______ _____ _____    ______ ____
ROOT
ATOM      3  C   UNL     1      -4.226   2.929  24.521  0.00  0.00    +0.039 C 
ATOM      4  C   UNL     1      -4.832   2.976  25.081  0.00  0.00    +0.003 C 
ATOM      5  C   UNL     1      -5.171   2.286  25.379  0.00  0.00    +0.000 C 
ATOM      6  C   UNL     1      -4.905   1.550  25.120  0.00  0.00    +0.002 C 
ATOM      7  C   UNL     1      -5.510   1.597  25.678  0.00  0.00    +0.000 C 
ATOM      8  C   UNL     1      -5.244   0.860  25.419  0.00  0.00    +0.002 C 
ATOM      9  C   UNL     1      -4.979   0.123  25.159  0.00  0.00    +0.022 C 
ATOM     10  C   UNL     1      -4.373   0.077  24.600  0.00  0.00    +0.096 C 
ATOM     20  C   UNL     1      -4.034   0.766  24.301  0.00  0.00    +0.022 C 
ATOM     21  C   UNL     1      -3.429   0.720  23.742  0.00  0.00    +0.002 C 
ATOM     22  C   UNL     1      -4.300   1.503  24.560  0.00  0.00    +0.032 C 
ATOM     23  C   UNL     1      -3.961   2.193  24.262  0.00  0.00    +0.152 C 
ATOM     24  O   UNL     1      -3.356   2.146  23.703  0.00  0.00    -0.223 OA
ENDROOT
BRANCH  10  11
ATOM     11  N   UNL     1      -4.108  -0.660  24.340  0.00  0.00    -0.203 NA
ATOM     12  C   UNL     1      -3.849  -1.221  24.886  0.00  0.00    +0.265 C 
ATOM     13  O   UNL     1      -3.855  -1.046  25.693  0.00  0.00    -0.268 OA
BRANCH  12  14
ATOM     14  C   UNL     1      -3.584  -1.959  24.626  0.00  0.00    +0.058 A 
ATOM     15  C   UNL     1      -4.085  -2.449  24.194  0.00  0.00    +0.025 A 
ATOM     16  C   UNL     1      -3.820  -3.186  23.934  0.00  0.00    +0.099 A 
ATOM     17  N   UNL     1      -3.052  -3.432  24.108  0.00  0.00    -0.242 NA
ATOM     18  C   UNL     1      -2.549  -2.941  24.542  0.00  0.00    +0.099 A 
ATOM     19  C   UNL     1      -2.816  -2.204  24.800  0.00  0.00    +0.025 A 
ENDBRANCH  12  14
ENDBRANCH  10  11
BRANCH   3   2
ATOM      1  C   UNL     1      -4.205   3.977  23.550  0.00  0.00    +0.010 C 
ATOM      2  C   UNL     1      -3.887   3.619  24.222  0.00  0.00    +0.081 C 
BRANCH   2  25
ATOM     25  C   UNL     1      -3.231   3.953  24.595  0.00  0.00    +0.241 C 
ATOM     26  O   UNL     1      -3.284   4.200  25.381  0.00  0.00    -0.273 OA
ATOM     27  N   UNL     1      -2.522   4.039  24.183  0.00  0.00    -0.207 NA
BRANCH  27  28
ATOM     28  C   UNL     1      -1.866   4.373  24.556  0.00  0.00    +0.095 C 
ATOM     29  C   UNL     1      -1.815   5.191  24.647  0.00  0.00    +0.022 C 
ATOM     30  C   UNL     1      -1.159   5.525  25.020  0.00  0.00    +0.002 C 
ATOM     31  C   UNL     1      -0.554   5.039  25.302  0.00  0.00    +0.000 C 
ATOM     32  C   UNL     1      -0.605   4.221  25.211  0.00  0.00    +0.002 C 
ATOM     33  C   UNL     1      -1.261   3.887  24.838  0.00  0.00    +0.022 C 
ENDBRANCH  27  28
ENDBRANCH   2  25
ENDBRANCH   3   2
TORSDOF 5
ENDMDL
MODEL 2
REMARK VINA RESULT:     -12.4      2.256      6.389
REMARK  Name = 
REMARK  5 active torsions:
REMARK  status: ('A' for Active; 'I' for Inactive)
REMARK    1  A    between atoms: C_2  and  C_3
REMARK    2  A    between atoms: C_2  and  C_25
REMARK    3  A    between atoms: C_10  and  N_11
REMARK    4  A    between atoms: C_12  and  C_14
REMARK    5  A    between atoms: N_27  and  C_28
REMARK                            x       y       z     vdW  Elec       q    Type
REMARK                         _______ _______ _______ _____ _____    ______ ____
ROOT
ATOM      3  C   UNL     1      -0.721  -0.798  24.750  0.00  0.00    +0.039 C 
ATOM      4  C   UNL     1      -0.186  -0.878  24.127  0.00  0.00    +0.003 C 
ATOM      5  C   UNL     1       0.160  -0.210  23.792  0.00  0.00    +0.000 C 
ATOM      6  C   UNL     1      -0.027   0.540  24.079  0.00  0.00    +0.002 C 
ATOM      7  C   UNL     1       0.507   0.459  23.457  0.00  0.00    +0.000 C 
ATOM      8  C   UNL     1       0.319   1.210  23.744  0.00  0.00    +0.002 C 
ATOM      9  C   UNL     1       0.132   1.959  24.032  0.00  0.00    +0.022 C 
ATOM     10  C   UNL     1      -0.404   2.040  24.656  0.00  0.00    +0.096 C 
ATOM     20  C   UNL     1      -0.750   1.371  24.991  0.00  0.00    +0.022 C 
ATOM     21  C   UNL     1      -1.285   1.452  25.614  0.00  0.00    +0.002 C 
ATOM     22  C   UNL     1      -0.563   0.621  24.703  0.00  0.00    +0.032 C 
ATOM     23  C   UNL     1      -0.909  -0.048  25.038  0.00  0.00    +0.152 C 
ATOM     24  O   UNL     1      -1.444   0.033  25.661  0.00  0.00    -0.223 OA
ENDROOT
BRANCH  10  11
ATOM     11  N   UNL     1      -0.591   2.791  24.943  0.00  0.00    -0.203 NA
ATOM     12  C   UNL     1      -0.933   3.350  24.444  0.00  0.00    +0.265 C 
ATOM     13  O   UNL     1      -1.089   3.160  23.656  0.00  0.00    -0.268 OA
BRANCH  12  14
ATOM     14  C   UNL     1      -1.121   4.101  24.732  0.00  0.00    +0.058 A 
ATOM     15  C   UNL     1      -0.588   4.723  24.639  0.00  0.00    +0.025 A 
ATOM     16  C   UNL     1      -0.776   5.474  24.927  0.00  0.00    +0.099 A 
ATOM     17  N   UNL     1      -1.497   5.601  25.307  0.00  0.00    -0.242 NA
ATOM     18  C   UNL     1      -2.031   4.978  25.400  0.00  0.00    +0.099 A 
ATOM     19  C   UNL     1      -1.842   4.228  25.112  0.00  0.00    +0.025 A 
ENDBRANCH  12  14
ENDBRANCH  10  11
BRANCH   3   2
ATOM      1  C   UNL     1      -0.773  -1.775  25.792  0.00  0.00    +0.010 C 
ATOM      2  C   UNL     1      -1.068  -1.467  25.085  0.00  0.00    +0.081 C 
BRANCH   2  25
ATOM     25  C   UNL     1      -1.710  -1.831  24.715  0.00  0.00    +0.241 C 
ATOM     26  O   UNL     1      -1.586  -2.316  24.058  0.00  0.00    -0.273 OA
ATOM     27  N   UNL     1      -2.474  -1.709  24.999  0.00  0.00    -0.207 NA
BRANCH  27  28
ATOM     28  C   UNL     1      -3.114  -2.072  24.628  0.00  0.00    +0.095 C 
ATOM     29  C   UNL     1      -3.241  -2.882  24.721  0.00  0.00    +0.022 C 
ATOM     30  C   UNL     1      -3.882  -3.245  24.351  0.00  0.00    +0.002 C 
ATOM     31  C   UNL     1      -4.397  -2.798  23.886  0.00  0.00    +0.000 C 
ATOM     32  C   UNL     1      -4.271  -1.989  23.792  0.00  0.00    +0.002 C 
ATOM     33  C   UNL     1      -3.630  -1.625  24.163  0.00  0.00    +0.022 C 
ENDBRANCH  27  28
ENDBRANCH   2  25
ENDBRANCH   3   2
TORSDOF 5
ENDMDL
MODEL 3
REMARK VINA RESULT:     -11.3      0.853      5.464
REMARK  Name = 
REMARK  5 active torsions:
REMARK  status: ('A' for Active; 'I' for Inactive)
REMARK    1  A    between atoms: C_2  and  C_3
REMARK    2  A    between atoms: C_2  and  C_25
REMARK    3  A    between atoms: C_10  and  N_11
REMARK    4  A    between atoms: C_12  and  C_14
REMARK    5  A    between atoms: N_27  and  C_28
REMARK                            x       y       z     vdW  Elec       q    Type
REMARK                         _______ _______ _______ _____ _____    ______ ____
ROOT
ATOM      3  C   UNL     1      -4.515   0.573  24.544  0.00  0.00    +0.039 C 
ATOM      4  C   UNL     1      -5.128   0.770  25.061  0.00  0.00    +0.003 C 
ATOM      5  C   UNL     1      -5.153   1.520  25.403  0.00  0.00    +0.000 C 
ATOM      6  C   UNL     1      -4.567   2.073  25.229  0.00  0.00    +0.002 C 
ATOM      7  C   UNL     1      -5.178   2.270  25.745  0.00  0.00    +0.000 C 
ATOM      8  C   UNL     1      -4.592   2.824  25.571  0.00  0.00    +0.002 C 
ATOM      9  C   UNL     1      -4.006   3.376  25.396  0.00  0.00    +0.022 C 
ATOM     10  C   UNL     1      -3.393   3.179  24.879  0.00  0.00    +0.096 C 
ATOM     20  C   UNL     1      -3.368   2.429  24.537  0.00  0.00    +0.022 C 
ATOM     21  C   UNL     1      -2.756   2.232  24.020  0.00  0.00    +0.002 C 
ATOM     22  C   UNL     1      -3.954   1.876  24.711  0.00  0.00    +0.032 C 
ATOM     23  C   UNL     1      -3.929   1.126  24.370  0.00  0.00    +0.152 C 
ATOM     24  O   UNL     1      -3.317   0.929  23.853  0.00  0.00    -0.223 OA
ENDROOT
BRANCH  10  11
ATOM     11  N   UNL     1      -2.807   3.733  24.705  0.00  0.00    -0.203 NA
ATOM     12  C   UNL     1      -2.364   4.070  25.312  0.00  0.00    +0.265 C 
ATOM     13  O   UNL     1      -2.506   3.854  26.097  0.00  0.00    -0.268 OA
BRANCH  12  14
ATOM     14  C   UNL     1      -1.777   4.624  25.138  0.00  0.00    +0.058 A 
ATOM     15  C   UNL     1      -1.005   4.376  24.993  0.00  0.00    +0.025 A 
ATOM     16  C   UNL     1      -0.418   4.930  24.819  0.00  0.00    +0.099 A 
ATOM     17  N   UNL     1      -0.605   5.732  24.790  0.00  0.00    -0.242 NA
ATOM     18  C   UNL     1      -1.379   5.982  24.935  0.00  0.00    +0.099 A 
ATOM     19  C   UNL     1      -1.964   5.427  25.109  0.00  0.00    +0.025 A 
ENDBRANCH  12  14
ENDBRANCH  10  11
BRANCH   3   2
ATOM      1  C   UNL     1      -4.901  -0.325  23.502  0.00  0.00    +0.010 C 
ATOM      2  C   UNL     1      -4.490  -0.178  24.202  0.00  0.00    +0.081 C 
BRANCH   2  25
ATOM     25  C   UNL     1      -4.054  -0.781  24.559  0.00  0.00    +0.241 C 
ATOM     26  O   UNL     1      -4.052  -0.856  25.382  0.00  0.00    -0.273 OA
ATOM     27  N   UNL     1      -3.622  -1.308  24.096  0.00  0.00    -0.207 NA
BRANCH  27  28
ATOM     28  C   UNL     1      -3.187  -1.910  24.453  0.00  0.00    +0.095 C 
ATOM     29  C   UNL     1      -3.565  -2.596  24.711  0.00  0.00    +0.022 C 
ATOM     30  C   UNL     1      -3.130  -3.198  25.068  0.00  0.00    +0.002 C 
ATOM     31  C   UNL     1      -2.314  -3.115  25.168  0.00  0.00    +0.000 C 
ATOM     32  C   UNL     1      -1.936  -2.430  24.910  0.00  0.00    +0.002 C 
ATOM     33  C   UNL     1      -2.371  -1.827  24.552  0.00  0.00    +0.022 C 
ENDBRANCH  27  28
ENDBRANCH   2  25
ENDBRANCH   3   2
TORSDOF 5
ENDMDL
MODEL 4
REMARK VINA RESULT:     -11.2      3.042      4.527
REMARK  Name = 
REMARK  5 active torsions:
REMARK  status: ('A' for Active; 'I' for Inactive)
REMARK    1  A    between atoms: C_2  and  C_3
REMARK    2  A    between atoms: C_2  and  C_25
REMARK    3  A    between atoms: C_10  and  N_11
REMARK    4  A    between atoms: C_12  and  C_14
REMARK    5  A    between atoms: N_27  and  C_28
REMARK                            x       y       z     vdW  Elec       q    Type
REMARK                         _______ _______ _______ _____ _____    ______ ____
ROOT
ATOM      3  C   UNL     1      -3.342  -0.083  24.767  0.00  0.00    +0.039 C 
ATOM      4  C   UNL     1      -3.210  -0.538  25.444  0.00  0.00    +0.003 C 
ATOM      5  C   UNL     1      -2.441  -0.748  25.655  0.00  0.00    +0.000 C 
ATOM      6  C   UNL     1      -1.805  -0.506  25.190  0.00  0.00    +0.002 C 
ATOM      7  C   UNL     1      -1.673  -0.959  25.866  0.00  0.00    +0.000 C 
ATOM      8  C   UNL     1      -1.035  -0.716  25.401  0.00  0.00    +0.002 C 
ATOM      9  C   UNL     1      -0.399  -0.474  24.937  0.00  0.00    +0.022 C 
ATOM     10  C   UNL     1      -0.531  -0.019  24.260  0.00  0.00    +0.096 C 
ATOM     20  C   UNL     1      -1.299   0.192  24.049  0.00  0.00    +0.022 C 
ATOM     21  C   UNL     1      -1.432   0.646  23.373  0.00  0.00    +0.002 C 
ATOM     22  C   UNL     1      -1.937  -0.051  24.513  0.00  0.00    +0.032 C 
ATOM     23  C   UNL     1      -2.705   0.160  24.302  0.00  0.00    +0.152 C 
ATOM     24  O   UNL     1      -2.838   0.614  23.626  0.00  0.00    -0.223 OA
ENDROOT
BRANCH  10  11
ATOM     11  N   UNL     1       0.107   0.224  23.796  0.00  0.00    -0.203 NA
ATOM     12  C   UNL     1       0.696  -0.315  23.590  0.00  0.00    +0.265 C 
ATOM     13  O   UNL     1       0.649  -1.098  23.848  0.00  0.00    -0.268 OA
BRANCH  12  14
ATOM     14  C   UNL     1       1.333  -0.072  23.125  0.00  0.00    +0.058 A 
ATOM     15  C   UNL     1       1.436  -0.384  22.369  0.00  0.00    +0.025 A 
ATOM     16  C   UNL     1       2.073  -0.141  21.905  0.00  0.00    +0.099 A 
ATOM     17  N   UNL     1       2.609   0.414  22.197  0.00  0.00    -0.242 NA
ATOM     18  C   UNL     1       2.506   0.727  22.955  0.00  0.00    +0.099 A 
ATOM     19  C   UNL     1       1.869   0.484  23.418  0.00  0.00    +0.025 A 
ENDBRANCH  12  14
ENDBRANCH  10  11
BRANCH   3   2
ATOM      1  C   UNL     1      -4.498  -0.277  23.949  0.00  0.00    +0.010 C 
ATOM      2  C   UNL     1      -4.111   0.128  24.556  0.00  0.00    +0.081 C 
BRANCH   2  25
ATOM     25  C   UNL     1      -4.495   0.742  24.951  0.00  0.00    +0.241 C 
ATOM     26  O   UNL     1      -4.713   0.651  25.743  0.00  0.00    -0.273 OA
ATOM     27  N   UNL     1      -4.661   1.447  24.556  0.00  0.00    -0.207 NA
BRANCH  27  28
ATOM     28  C   UNL     1      -5.045   2.060  24.951  0.00  0.00    +0.095 C 
ATOM     29  C   UNL     1      -5.850   2.003  25.122  0.00  0.00    +0.022 C 
ATOM     30  C   UNL     1      -6.233   2.616  25.517  0.00  0.00    +0.002 C 
ATOM     31  C   UNL     1      -5.811   3.289  25.743  0.00  0.00    +0.000 C 
ATOM     32  C   UNL     1      -5.007   3.347  25.573  0.00  0.00    +0.002 C 
ATOM     33  C   UNL     1      -4.623   2.733  25.177  0.00  0.00    +0.022 C 
ENDBRANCH  27  28
ENDBRANCH   2  25
ENDBRANCH   3   2
TORSDOF 5
ENDMDL
MODEL 5
REMARK VINA RESULT:     -10.9      2.799      4.456
REMARK  Name = 
REMARK  5 active torsions:
REMARK  status: ('A' for Active; 'I' for Inactive)
REMARK    1  A    between atoms: C_2  and  C_3
REMARK    2  A    between atoms: C_2  and  C_25
REMARK    3  A    between atoms: C_10  and  N_11
REMARK    4  A    between atoms: C_12  and  C_14
REMARK    5  A    between atoms: N_27  and  C_28
REMARK                            x       y       z     vdW  Elec       q    Type
REMARK                         _______ _______ _______ _____ _____    ______ ____
ROOT
ATOM      3  C   UNL     1      -2.233   3.418  25.239  0.00  0.00    +0.039 C 
ATOM      4  C   UNL     1      -1.943   3.432  26.012  0.00  0.00    +0.003 C 
ATOM      5  C   UNL     1      -1.218   3.081  26.187  0.00  0.00    +0.000 C 
ATOM      6  C   UNL     1      -0.782   2.715  25.590  0.00  0.00    +0.002 C 
ATOM      7  C   UNL     1      -0.493   2.729  26.362  0.00  0.00    +0.000 C 
ATOM      8  C   UNL     1      -0.057   2.363  25.765  0.00  0.00    +0.002 C 
ATOM      9  C   UNL     1       0.379   1.998  25.168  0.00  0.00    +0.022 C 
ATOM     10  C   UNL     1       0.090   1.984  24.395  0.00  0.00    +0.096 C 
ATOM     20  C   UNL     1      -0.635   2.335  24.220  0.00  0.00    +0.022 C 
ATOM     21  C   UNL     1      -0.925   2.321  23.448  0.00  0.00    +0.002 C 
ATOM     22  C   UNL     1      -1.072   2.701  24.817  0.00  0.00    +0.032 C 
ATOM     23  C   UNL     1      -1.797   3.052  24.642  0.00  0.00    +0.152 C 
ATOM     24  O   UNL     1      -2.086   3.038  23.870  0.00  0.00    -0.223 OA
ENDROOT
BRANCH  10  11
ATOM     11  N   UNL     1       0.526   1.618  23.798  0.00  0.00    -0.203 NA
ATOM     12  C   UNL     1       0.720   0.819  23.858  0.00  0.00    +0.265 C 
ATOM     13  O   UNL     1       0.476   0.384  24.517  0.00  0.00    -0.268 OA
BRANCH  12  14
ATOM     14  C   UNL     1       1.156   0.453  23.261  0.00  0.00    +0.058 A 
ATOM     15  C   UNL     1       0.788  -0.072  22.743  0.00  0.00    +0.025 A 
ATOM     16  C   UNL     1       1.225  -0.438  22.146  0.00  0.00    +0.099 A 
ATOM     17  N   UNL     1       2.031  -0.278  22.068  0.00  0.00    -0.242 NA
ATOM     18  C   UNL     1       2.400   0.248  22.587  0.00  0.00    +0.099 A 
ATOM     19  C   UNL     1       1.962   0.613  23.183  0.00  0.00    +0.025 A 
ENDBRANCH  12  14
ENDBRANCH  10  11
BRANCH   3   2
ATOM      1  C   UNL     1      -2.985   4.453  24.603  0.00  0.00    +0.010 C 
ATOM      2  C   UNL     1      -2.959   3.770  25.064  0.00  0.00    +0.081 C 
BRANCH   2  25
ATOM     25  C   UNL     1      -3.658   3.439  25.351  0.00  0.00    +0.241 C 
ATOM     26  O   UNL     1      -3.855   3.518  26.149  0.00  0.00    -0.273 OA
ATOM     27  N   UNL     1      -4.161   3.031  24.841  0.00  0.00    -0.207 NA
BRANCH  27  28
ATOM     28  C   UNL     1      -4.860   2.701  25.128  0.00  0.00    +0.095 C 
ATOM     29  C   UNL     1      -5.452   3.188  25.435  0.00  0.00    +0.022 C 
ATOM     30  C   UNL     1      -6.151   2.858  25.722  0.00  0.00    +0.002 C 
ATOM     31  C   UNL     1      -6.259   2.039  25.702  0.00  0.00    +0.000 C 
ATOM     32  C   UNL     1      -5.668   1.552  25.396  0.00  0.00    +0.002 C 
ATOM     33  C   UNL     1      -4.969   1.882  25.108  0.00  0.00    +0.022 C 
ENDBRANCH  27  28
ENDBRANCH   2  25
ENDBRANCH   3   2
TORSDOF 5
ENDMDL
MODEL 6
REMARK VINA RESULT:     -10.3      3.873      5.257
REMARK  Name = 
REMARK  5 active torsions:
REMARK  status: ('A' for Active; 'I' for Inactive)
REMARK    1  A    between atoms: C_2  and  C_3
REMARK    2  A    between atoms: C_2  and  C_25
REMARK    3  A    between atoms: C_10  and  N_11
REMARK    4  A    between atoms: C_12  and  C_14
REMARK    5  A    between atoms: N_27  and  C_28
REMARK                            x       y       z     vdW  Elec       q    Type
REMARK                         _______ _______ _______ _____ _____    ______ ____
ROOT
ATOM      3  C   UNL     1       0.282  -0.120  23.462  0.00  0.00    +0.039 C 
ATOM      4  C   UNL     1       0.357  -0.712  24.033  0.00  0.00    +0.003 C 
ATOM      5  C   UNL     1      -0.200  -0.775  24.637  0.00  0.00    +0.000 C 
ATOM      6  C   UNL     1      -0.832  -0.246  24.673  0.00  0.00    +0.002 C 
ATOM      7  C   UNL     1      -0.757  -0.837  25.242  0.00  0.00    +0.000 C 
ATOM      8  C   UNL     1      -1.390  -0.309  25.278  0.00  0.00    +0.002 C 
ATOM      9  C   UNL     1      -2.022   0.220  25.313  0.00  0.00    +0.022 C 
ATOM     10  C   UNL     1      -2.096   0.812  24.742  0.00  0.00    +0.096 C 
ATOM     20  C   UNL     1      -1.540   0.875  24.138  0.00  0.00    +0.022 C 
ATOM     21  C   UNL     1      -1.614   1.467  23.568  0.00  0.00    +0.002 C 
ATOM     22  C   UNL     1      -0.907   0.346  24.102  0.00  0.00    +0.032 C 
ATOM     23  C   UNL     1      -0.350   0.409  23.498  0.00  0.00    +0.152 C 
ATOM     24  O   UNL     1      -0.425   1.001  22.928  0.00  0.00    -0.223 OA
ENDROOT
BRANCH  10  11
ATOM     11  N   UNL     1      -2.729   1.341  24.778  0.00  0.00    -0.203 NA
ATOM     12  C   UNL     1      -3.490   1.065  24.936  0.00  0.00    +0.265 C 
ATOM     13  O   UNL     1      -3.619   0.259  25.059  0.00  0.00    -0.268 OA
BRANCH  12  14
ATOM     14  C   UNL     1      -4.122   1.594  24.972  0.00  0.00    +0.058 A 
ATOM     15  C   UNL     1      -3.987   2.387  25.150  0.00  0.00    +0.025 A 
ATOM     16  C   UNL     1      -4.620   2.916  25.185  0.00  0.00    +0.099 A 
ATOM     17  N   UNL     1      -5.388   2.650  25.043  0.00  0.00    -0.242 NA
ATOM     18  C   UNL     1      -5.523   1.855  24.864  0.00  0.00    +0.099 A 
ATOM     19  C   UNL     1      -4.890   1.328  24.829  0.00  0.00    +0.025 A 
ENDBRANCH  12  14
ENDBRANCH  10  11
BRANCH   3   2
ATOM      1  C   UNL     1       0.626  -0.234  22.080  0.00  0.00    +0.010 C 
ATOM      2  C   UNL     1       0.840  -0.057  22.857  0.00  0.00    +0.081 C 
BRANCH   2  25
ATOM     25  C   UNL     1       1.611   0.181  23.029  0.00  0.00    +0.241 C 
ATOM     26  O   UNL     1       1.746   0.753  23.609  0.00  0.00    -0.273 OA
ATOM     27  N   UNL     1       2.246  -0.150  22.620  0.00  0.00    -0.207 NA
BRANCH  27  28
ATOM     28  C   UNL     1       3.016   0.089  22.792  0.00  0.00    +0.095 C 
ATOM     29  C   UNL     1       3.283   0.831  22.549  0.00  0.00    +0.022 C 
ATOM     30  C   UNL     1       4.053   1.069  22.720  0.00  0.00    +0.002 C 
ATOM     31  C   UNL     1       4.558   0.565  23.136  0.00  0.00    +0.000 C 
ATOM     32  C   UNL     1       4.292  -0.176  23.379  0.00  0.00    +0.002 C 
ATOM     33  C   UNL     1       3.521  -0.415  23.207  0.00  0.00    +0.022 C 
ENDBRANCH  27  28
ENDBRANCH   2  25
ENDBRANCH   3   2
TORSDOF 5
ENDMDL
MODEL 7
REMARK VINA RESULT:     -10.2      2.679      4.939
REMARK  Name = 
REMARK  5 active torsions:
REMARK  status: ('A' for Active; 'I' for Inactive)
REMARK    1  A    between atoms: C_2  and  C_3
REMARK    2  A    between atoms: C_2  and  C_25
REMARK    3  A    between atoms: C_10  and  N_11
REMARK    4  A    between atoms: C_12  and  C_14
REMARK    5  A    between atoms: N_27  and  C_28
REMARK                            x       y       z     vdW  Elec       q    Type
REMARK                         _______ _______ _______ _____ _____    ______ ____
ROOT
ATOM      3  C   UNL     1      -1.667  -1.127  24.739  0.00  0.00    +0.039 C 
ATOM      4  C   UNL     1      -2.123  -1.701  24.358  0.00  0.00    +0.003 C 
ATOM      5  C   UNL     1      -2.933  -1.585  24.260  0.00  0.00    +0.000 C 
ATOM      6  C   UNL     1      -3.289  -0.897  24.542  0.00  0.00    +0.002 C 
ATOM      7  C   UNL     1      -3.743  -1.469  24.162  0.00  0.00    +0.000 C 
ATOM      8  C   UNL     1      -4.100  -0.781  24.445  0.00  0.00    +0.002 C 
ATOM      9  C   UNL     1      -4.456  -0.093  24.727  0.00  0.00    +0.022 C 
ATOM     10  C   UNL     1      -4.000   0.481  25.108  0.00  0.00    +0.096 C 
ATOM     20  C   UNL     1      -3.189   0.365  25.206  0.00  0.00    +0.022 C 
ATOM     21  C   UNL     1      -2.734   0.938  25.587  0.00  0.00    +0.002 C 
ATOM     22  C   UNL     1      -2.833  -0.323  24.924  0.00  0.00    +0.032 C 
ATOM     23  C   UNL     1      -2.023  -0.439  25.022  0.00  0.00    +0.152 C 
ATOM     24  O   UNL     1      -1.567   0.134  25.402  0.00  0.00    -0.223 OA
ENDROOT
BRANCH  10  11
ATOM     11  N   UNL     1      -4.356   1.169  25.391  0.00  0.00    -0.203 NA
ATOM     12  C   UNL     1      -4.779   1.656  24.878  0.00  0.00    +0.265 C 
ATOM     13  O   UNL     1      -4.847   1.454  24.080  0.00  0.00    -0.268 OA
BRANCH  12  14
ATOM     14  C   UNL     1      -5.136   2.344  25.160  0.00  0.00    +0.058 A 
ATOM     15  C   UNL     1      -5.831   2.299  25.601  0.00  0.00    +0.025 A 
ATOM     16  C   UNL     1      -6.187   2.987  25.884  0.00  0.00    +0.099 A 
ATOM     17  N   UNL     1      -5.848   3.722  25.725  0.00  0.00    -0.242 NA
ATOM     18  C   UNL     1      -5.151   3.768  25.284  0.00  0.00    +0.099 A 
ATOM     19  C   UNL     1      -4.796   3.079  25.002  0.00  0.00    +0.025 A 
ENDBRANCH  12  14
ENDBRANCH  10  11
BRANCH   3   2
ATOM      1  C   UNL     1      -0.558  -1.466  25.573  0.00  0.00    +0.010 C 
ATOM      2  C   UNL     1      -0.856  -1.243  24.837  0.00  0.00    +0.081 C 
BRANCH   2  25
ATOM     25  C   UNL     1      -0.343  -1.136  24.199  0.00  0.00    +0.241 C 
ATOM     26  O   UNL     1      -0.275  -1.723  23.622  0.00  0.00    -0.273 OA
ATOM     27  N   UNL     1       0.102  -0.445  24.138  0.00  0.00    -0.207 NA
BRANCH  27  28
ATOM     28  C   UNL     1       0.614  -0.339  23.502  0.00  0.00    +0.095 C 
ATOM     29  C   UNL     1       1.430  -0.388  23.615  0.00  0.00    +0.022 C 
ATOM     30  C   UNL     1       1.943  -0.282  22.978  0.00  0.00    +0.002 C 
ATOM     31  C   UNL     1       1.639  -0.126  22.226  0.00  0.00    +0.000 C 
ATOM     32  C   UNL     1       0.824  -0.076  22.112  0.00  0.00    +0.002 C 
ATOM     33  C   UNL     1       0.311  -0.183  22.749  0.00  0.00    +0.022 C 
ENDBRANCH  27  28
ENDBRANCH   2  25
ENDBRANCH   3   2
TORSDOF 5
ENDMDL
MODEL 8
REMARK VINA RESULT:     -10.2      2.120      2.792
REMARK  Name = 
REMARK  5 active torsions:
REMARK  status: ('A' for Active; 'I' for Inactive)
REMARK    1  A    between atoms: C_2  and  C_3
REMARK    2  A    between atoms: C_2  and  C_25
REMARK    3  A    between atoms: C_10  and  N_11
REMARK    4  A    between atoms: C_12  and  C_14
REMARK    5  A    between atoms: N_27  and  C_28
REMARK                            x       y       z     vdW  Elec       q    Type
REMARK                         _______ _______ _______ _____ _____    ______ ____
ROOT
ATOM      3  C   UNL     1      -0.483   1.652  25.031  0.00  0.00    +0.039 C 
ATOM      4  C   UNL     1      -0.278   1.475  25.811  0.00  0.00    +0.003 C 
ATOM      5  C   UNL     1      -0.556   0.784  26.164  0.00  0.00    +0.000 C 
ATOM      6  C   UNL     1      -1.040   0.270  25.738  0.00  0.00    +0.002 C 
ATOM      7  C   UNL     1      -0.835   0.093  26.517  0.00  0.00    +0.000 C 
ATOM      8  C   UNL     1      -1.319  -0.422  26.091  0.00  0.00    +0.002 C 
ATOM      9  C   UNL     1      -1.802  -0.937  25.665  0.00  0.00    +0.022 C 
ATOM     10  C   UNL     1      -2.007  -0.760  24.885  0.00  0.00    +0.096 C 
ATOM     20  C   UNL     1      -1.728  -0.069  24.532  0.00  0.00    +0.022 C 
ATOM     21  C   UNL     1      -1.933   0.107  23.753  0.00  0.00    +0.002 C 
ATOM     22  C   UNL     1      -1.245   0.446  24.958  0.00  0.00    +0.032 C 
ATOM     23  C   UNL     1      -0.966   1.137  24.605  0.00  0.00    +0.152 C 
ATOM     24  O   UNL     1      -1.170   1.314  23.825  0.00  0.00    -0.223 OA
ENDROOT
BRANCH  10  11
ATOM     11  N   UNL     1      -2.491  -1.275  24.459  0.00  0.00    -0.203 NA
ATOM     12  C   UNL     1      -3.167  -1.591  24.809  0.00  0.00    +0.265 C 
ATOM     13  O   UNL     1      -3.361  -1.392  25.587  0.00  0.00    -0.268 OA
BRANCH  12  14
ATOM     14  C   UNL     1      -3.651  -2.107  24.384  0.00  0.00    +0.058 A 
ATOM     15  C   UNL     1      -4.280  -1.811  23.940  0.00  0.00    +0.025 A 
ATOM     16  C   UNL     1      -4.763  -2.327  23.514  0.00  0.00    +0.099 A 
ATOM     17  N   UNL     1      -4.617  -3.138  23.533  0.00  0.00    -0.242 NA
ATOM     18  C   UNL     1      -3.987  -3.435  23.977  0.00  0.00    +0.099 A 
ATOM     19  C   UNL     1      -3.505  -2.918  24.402  0.00  0.00    +0.025 A 
ENDBRANCH  12  14
ENDBRANCH  10  11
BRANCH   3   2
ATOM      1  C   UNL     1       0.344   2.300  24.062  0.00  0.00    +0.010 C 
ATOM      2  C   UNL     1      -0.203   2.344  24.678  0.00  0.00    +0.081 C 
BRANCH   2  25
ATOM     25  C   UNL     1      -0.470   3.079  24.940  0.00  0.00    +0.241 C 
ATOM     26  O   UNL     1      -0.180   3.395  25.646  0.00  0.00    -0.273 OA
ATOM     27  N   UNL     1      -1.027   3.498  24.499  0.00  0.00    -0.207 NA
BRANCH  27  28
ATOM     28  C   UNL     1      -1.293   4.232  24.762  0.00  0.00    +0.095 C 
ATOM     29  C   UNL     1      -0.836   4.908  24.633  0.00  0.00    +0.022 C 
ATOM     30  C   UNL     1      -1.103   5.642  24.896  0.00  0.00    +0.002 C 
ATOM     31  C   UNL     1      -1.828   5.703  25.288  0.00  0.00    +0.000 C 
ATOM     32  C   UNL     1      -2.284   5.028  25.416  0.00  0.00    +0.002 C 
ATOM     33  C   UNL     1      -2.018   4.293  25.154  0.00  0.00    +0.022 C 
ENDBRANCH  27  28
ENDBRANCH   2  25
ENDBRANCH   3   2
TORSDOF 5
ENDMDL
MODEL 9
REMARK VINA RESULT:      -9.6      3.298      5.293
REMARK  Name = 
REMARK  5 active torsions:
REMARK  status: ('A' for Active; 'I' for Inactive)
REMARK    1  A    between atoms: C_2  and  C_3
REMARK    2  A    between atoms: C_2  and  C_25
REMARK    3  A    between atoms: C_10  and  N_11
REMARK    4  A    between atoms: C_12  and  C_14
REMARK    5  A    between atoms: N_27  and  C_28
REMARK                            x       y       z     vdW  Elec       q    Type
REMARK                         _______ _______ _______ _____ _____    ______ ____
ROOT
ATOM      3  C   UNL     1      -0.371   0.981  24.410  0.00  0.00    +0.039 C 
ATOM      4  C   UNL     1       0.135   1.538  24.751  0.00  0.00    +0.003 C 
ATOM      5  C   UNL     1      -0.173   2.226  25.084  0.00  0.00    +0.000 C 
ATOM      6  C   UNL     1      -0.986   2.359  25.077  0.00  0.00    +0.002 C 
ATOM      7  C   UNL     1      -0.481   2.915  25.417  0.00  0.00    +0.000 C 
ATOM      8  C   UNL     1      -1.295   3.048  25.410  0.00  0.00    +0.002 C 
ATOM      9  C   UNL     1      -2.109   3.181  25.403  0.00  0.00    +0.022 C 
ATOM     10  C   UNL     1      -2.615   2.625  25.063  0.00  0.00    +0.096 C 
ATOM     20  C   UNL     1      -2.307   1.936  24.730  0.00  0.00    +0.022 C 
ATOM     21  C   UNL     1      -2.813   1.380  24.390  0.00  0.00    +0.002 C 
ATOM     22  C   UNL     1      -1.493   1.803  24.737  0.00  0.00    +0.032 C 
ATOM     23  C   UNL     1      -1.185   1.114  24.404  0.00  0.00    +0.152 C 
ATOM     24  O   UNL     1      -1.691   0.558  24.064  0.00  0.00    -0.223 OA
ENDROOT
BRANCH  10  11
ATOM     11  N   UNL     1      -3.430   2.758  25.057  0.00  0.00    -0.203 NA
ATOM     12  C   UNL     1      -3.778   3.215  25.648  0.00  0.00    +0.265 C 
ATOM     13  O   UNL     1      -3.312   3.540  26.247  0.00  0.00    -0.268 OA
BRANCH  12  14
ATOM     14  C   UNL     1      -4.592   3.349  25.641  0.00  0.00    +0.058 A 
ATOM     15  C   UNL     1      -4.888   4.088  25.427  0.00  0.00    +0.025 A 
ATOM     16  C   UNL     1      -5.702   4.222  25.421  0.00  0.00    +0.099 A 
ATOM     17  N   UNL     1      -6.221   3.615  25.629  0.00  0.00    -0.242 NA
ATOM     18  C   UNL     1      -5.925   2.874  25.843  0.00  0.00    +0.099 A 
ATOM     19  C   UNL     1      -5.111   2.742  25.849  0.00  0.00    +0.025 A 
ENDBRANCH  12  14
ENDBRANCH  10  11
BRANCH   3   2
ATOM      1  C   UNL     1      -0.316  -0.445  24.346  0.00  0.00    +0.010 C 
ATOM      2  C   UNL     1      -0.062   0.293  24.077  0.00  0.00    +0.081 C 
BRANCH   2  25
ATOM     25  C   UNL     1       0.500   0.340  23.475  0.00  0.00    +0.241 C 
ATOM     26  O   UNL     1       0.328   0.756  22.782  0.00  0.00    -0.273 OA
ATOM     27  N   UNL     1       1.233  -0.027  23.564  0.00  0.00    -0.207 NA
BRANCH  27  28
ATOM     28  C   UNL     1       1.794   0.021  22.963  0.00  0.00    +0.095 C 
ATOM     29  C   UNL     1       1.657  -0.349  22.238  0.00  0.00    +0.022 C 
ATOM     30  C   UNL     1       2.218  -0.301  21.637  0.00  0.00    +0.002 C 
ATOM     31  C   UNL     1       2.919   0.118  21.759  0.00  0.00    +0.000 C 
ATOM     32  C   UNL     1       3.057   0.488  22.482  0.00  0.00    +0.002 C 
ATOM     33  C   UNL     1       2.496   0.440  23.085  0.00  0.00    +0.022 C 
ENDBRANCH  27  28
ENDBRANCH   2  25
ENDBRANCH   3   2
TORSDOF 5
ENDMDL
