MODEL 1
REMARK VINA RESULT:     -10.9      0.000      0.000
REMARK  Name = 
REMARK  6 active torsions:
REMARK  status: ('A' for Active; 'I' for Inactive)
REMARK    1  A    between atoms: C_7  and  C_8
REMARK    2  A    between atoms: C_8  and  C_9
REMARK    3  A    between atoms: C_12  and  C_13
REMARK    4  A    between atoms: C_13  and  C_14
REMARK    5  A    between atoms: C_14  and  N_15
REMARK    6  A    between atoms: N_18  and  C_21
REMARK                            x       y       z     vdW  Elec       q    Type
REMARK                         _______ _______ _______ _____ _____    ______ ____
ROOT
ATOM     13  C   UNL     1      -3.482   2.264  24.580  0.00  0.00    +0.019 C 
ENDROOT
BRANCH  13  12
ATOM      1  C   UNL     1      -1.481   5.175  25.258  0.00  0.00    +0.095 C 
ATOM      2  C   UNL     1      -1.638   4.406  25.002  0.00  0.00    +0.226 C 
ATOM      3  O   UNL     1      -1.027   3.941  24.701  0.00  0.00    -0.275 OA
ATOM      4  N   UNL     1      -2.404   4.104  25.047  0.00  0.00    -0.280 N 
ATOM      5  C   UNL     1      -3.014   4.570  25.348  0.00  0.00    +0.093 C 
ATOM      6  C   UNL     1      -3.781   4.267  25.393  0.00  0.00    +0.022 C 
ATOM      7  C   UNL     1      -3.936   3.499  25.137  0.00  0.00    +0.015 C 
ATOM     12  C   UNL     1      -3.326   3.033  24.836  0.00  0.00    +0.022 C 
ATOM     28  C   UNL     1      -2.559   3.336  24.791  0.00  0.00    +0.093 C 
BRANCH   7   8
ATOM      8  C   UNL     1      -4.702   3.197  25.182  0.00  0.00    +0.114 C 
BRANCH   8   9
ATOM      9  C   UNL     1      -5.256   3.548  25.682  0.00  0.00    +0.365 C 
ATOM     10  O   UNL     1      -5.384   3.239  26.438  0.00  0.00    -0.246 OA
ATOM     11  O   UNL     1      -5.682   4.206  25.429  0.00  0.00    -0.246 OA
ENDBRANCH   8   9
ENDBRANCH   7   8
ENDBRANCH  13  12
BRANCH  13  14
ATOM     14  C   UNL     1      -2.860   1.733  24.472  0.00  0.00    +0.072 C 
BRANCH  14  15
ATOM     15  N   UNL     1      -3.011   0.922  24.440  0.00  0.00    -0.270 NA
ATOM     16  C   UNL     1      -3.472   0.612  23.831  0.00  0.00    +0.094 C 
ATOM     17  C   UNL     1      -3.623  -0.199  23.799  0.00  0.00    +0.108 C 
ATOM     18  N   UNL     1      -3.311  -0.698  24.377  0.00  0.00    -0.305 N 
ATOM     19  C   UNL     1      -2.850  -0.388  24.985  0.00  0.00    +0.108 C 
ATOM     20  C   UNL     1      -2.699   0.422  25.017  0.00  0.00    +0.094 C 
BRANCH  18  21
ATOM     21  C   UNL     1      -3.462  -1.509  24.345  0.00  0.00    +0.048 A 
ATOM     22  C   UNL     1      -2.972  -2.037  24.747  0.00  0.00    +0.017 A 
ATOM     23  C   UNL     1      -3.122  -2.846  24.715  0.00  0.00    +0.031 A 
ATOM     24  C   UNL     1      -3.764  -3.130  24.281  0.00  0.00    +0.140 A 
ATOM     25  F   UNL     1      -3.914  -3.940  24.248  0.00  0.00    -0.204 F 
ATOM     26  C   UNL     1      -4.254  -2.603  23.878  0.00  0.00    +0.031 A 
ATOM     27  C   UNL     1      -4.103  -1.792  23.910  0.00  0.00    +0.017 A 
ENDBRANCH  18  21
ENDBRANCH  14  15
ENDBRANCH  13  14
TORSDOF 6
ENDMDL
MODEL 2
REMARK VINA RESULT:     -10.6      2.923      6.116
REMARK  Name = 
REMARK  6 active torsions:
REMARK  status: ('A' for Active; 'I' for Inactive)
REMARK    1  A    between atoms: C_7  and  C_8
REMARK    2  A    between atoms: C_8  and  C_9
REMARK    3  A    between atoms: C_12  and  C_13
REMARK    4  A    between atoms: C_13  and  C_14
REMARK    5  A    between atoms: C_14  and  N_15
REMARK    6  A    between atoms: N_18  and  C_21
REMARK                            x       y       z     vdW  Elec       q    Type
REMARK                         _______ _______ _______ _____ _____    ______ ____
ROOT
ATOM     13  C   UNL     1      -2.228   0.021  24.995  0.00  0.00    +0.019 C 
ENDROOT
BRANCH  13  12
ATOM      1  C   UNL     1      -4.134  -2.832  23.917  0.00  0.00    +0.095 C 
ATOM      2  C   UNL     1      -3.989  -2.037  24.084  0.00  0.00    +0.226 C 
ATOM      3  O   UNL     1      -4.582  -1.477  23.962  0.00  0.00    -0.275 OA
ATOM      4  N   UNL     1      -3.253  -1.803  24.372  0.00  0.00    -0.280 N 
ATOM      5  C   UNL     1      -2.660  -2.364  24.493  0.00  0.00    +0.093 C 
ATOM      6  C   UNL     1      -1.923  -2.129  24.782  0.00  0.00    +0.022 C 
ATOM      7  C   UNL     1      -1.779  -1.335  24.949  0.00  0.00    +0.015 C 
ATOM     12  C   UNL     1      -2.371  -0.774  24.828  0.00  0.00    +0.022 C 
ATOM     28  C   UNL     1      -3.109  -1.009  24.539  0.00  0.00    +0.093 C 
BRANCH   7   8
ATOM      8  C   UNL     1      -1.043  -1.101  25.237  0.00  0.00    +0.114 C 
BRANCH   8   9
ATOM      9  C   UNL     1      -0.373  -1.556  25.079  0.00  0.00    +0.365 C 
ATOM     10  O   UNL     1      -0.146  -2.151  25.605  0.00  0.00    -0.246 OA
ATOM     11  O   UNL     1       0.068  -1.419  24.397  0.00  0.00    -0.246 OA
ENDBRANCH   8   9
ENDBRANCH   7   8
ENDBRANCH  13  12
BRANCH  13  14
ATOM     14  C   UNL     1      -2.665   0.607  24.613  0.00  0.00    +0.072 C 
BRANCH  14  15
ATOM     15  N   UNL     1      -2.449   1.400  24.691  0.00  0.00    -0.270 NA
ATOM     16  C   UNL     1      -2.611   1.805  25.390  0.00  0.00    +0.094 C 
ATOM     17  C   UNL     1      -2.395   2.597  25.469  0.00  0.00    +0.108 C 
ATOM     18  N   UNL     1      -2.017   2.984  24.846  0.00  0.00    -0.305 N 
ATOM     19  C   UNL     1      -1.855   2.579  24.146  0.00  0.00    +0.108 C 
ATOM     20  C   UNL     1      -2.070   1.787  24.068  0.00  0.00    +0.094 C 
BRANCH  18  21
ATOM     21  C   UNL     1      -1.800   3.777  24.924  0.00  0.00    +0.048 A 
ATOM     22  C   UNL     1      -1.012   4.000  24.832  0.00  0.00    +0.017 A 
ATOM     23  C   UNL     1      -0.796   4.792  24.910  0.00  0.00    +0.031 A 
ATOM     24  C   UNL     1      -1.369   5.362  25.080  0.00  0.00    +0.140 A 
ATOM     25  F   UNL     1      -1.153   6.154  25.158  0.00  0.00    -0.204 F 
ATOM     26  C   UNL     1      -2.158   5.138  25.171  0.00  0.00    +0.031 A 
ATOM     27  C   UNL     1      -2.374   4.345  25.093  0.00  0.00    +0.017 A 
ENDBRANCH  18  21
ENDBRANCH  14  15
ENDBRANCH  13  14
TORSDOF 6
ENDMDL
MODEL 3
REMARK VINA RESULT:     -10.3      1.364      2.508
REMARK  Name = 
REMARK  6 active torsions:
REMARK  status: ('A' for Active; 'I' for Inactive)
REMARK    1  A    between atoms: C_7  and  C_8
REMARK    2  A    between atoms: C_8  and  C_9
REMARK    3  A    between atoms: C_12  and  C_13
REMARK    4  A    between atoms: C_13  and  C_14
REMARK    5  A    between atoms: C_14  and  N_15
REMARK    6  A    between atoms: N_18  and  C_21
REMARK                            x       y       z     vdW  Elec       q    Type
REMARK                         _______ _______ _______ _____ _____    ______ ____
ROOT
ATOM     13  C   UNL     1      -2.052   1.979  25.387  0.00  0.00    +0.019 C 
ENDROOT
BRANCH  13  12
ATOM      1  C   UNL     1      -2.094   5.553  24.994  0.00  0.00    +0.095 C 
ATOM      2  C   UNL     1      -2.397   4.786  24.978  0.00  0.00    +0.226 C 
ATOM      3  O   UNL     1      -3.176   4.656  24.740  0.00  0.00    -0.275 OA
ATOM      4  N   UNL     1      -1.921   4.150  25.199  0.00  0.00    -0.280 N 
ATOM      5  C   UNL     1      -1.142   4.280  25.437  0.00  0.00    +0.093 C 
ATOM      6  C   UNL     1      -0.666   3.643  25.658  0.00  0.00    +0.022 C 
ATOM      7  C   UNL     1      -0.969   2.876  25.642  0.00  0.00    +0.015 C 
ATOM     12  C   UNL     1      -1.748   2.746  25.404  0.00  0.00    +0.022 C 
ATOM     28  C   UNL     1      -2.224   3.383  25.183  0.00  0.00    +0.093 C 
BRANCH   7   8
ATOM      8  C   UNL     1      -0.493   2.240  25.863  0.00  0.00    +0.114 C 
BRANCH   8   9
ATOM      9  C   UNL     1       0.322   2.340  25.939  0.00  0.00    +0.365 C 
ATOM     10  O   UNL     1       0.642   2.581  26.661  0.00  0.00    -0.246 OA
ATOM     11  O   UNL     1       0.817   2.201  25.295  0.00  0.00    -0.246 OA
ENDBRANCH   8   9
ENDBRANCH   7   8
ENDBRANCH  13  12
BRANCH  13  14
ATOM     14  C   UNL     1      -2.660   1.788  24.864  0.00  0.00    +0.072 C 
BRANCH  14  15
ATOM     15  N   UNL     1      -2.880   1.000  24.755  0.00  0.00    -0.270 NA
ATOM     16  C   UNL     1      -3.554   0.705  25.126  0.00  0.00    +0.094 C 
ATOM     17  C   UNL     1      -3.774  -0.083  25.018  0.00  0.00    +0.108 C 
ATOM     18  N   UNL     1      -3.318  -0.575  24.538  0.00  0.00    -0.305 N 
ATOM     19  C   UNL     1      -2.644  -0.280  24.168  0.00  0.00    +0.108 C 
ATOM     20  C   UNL     1      -2.424   0.508  24.276  0.00  0.00    +0.094 C 
BRANCH  18  21
ATOM     21  C   UNL     1      -3.538  -1.363  24.429  0.00  0.00    +0.048 A 
ATOM     22  C   UNL     1      -3.181  -1.956  24.878  0.00  0.00    +0.017 A 
ATOM     23  C   UNL     1      -3.401  -2.744  24.770  0.00  0.00    +0.031 A 
ATOM     24  C   UNL     1      -3.977  -2.939  24.212  0.00  0.00    +0.140 A 
ATOM     25  F   UNL     1      -4.196  -3.726  24.103  0.00  0.00    -0.204 F 
ATOM     26  C   UNL     1      -4.333  -2.346  23.763  0.00  0.00    +0.031 A 
ATOM     27  C   UNL     1      -4.113  -1.557  23.871  0.00  0.00    +0.017 A 
ENDBRANCH  18  21
ENDBRANCH  14  15
ENDBRANCH  13  14
TORSDOF 6
ENDMDL
MODEL 4
REMARK VINA RESULT:      -9.2      3.009      5.818
REMARK  Name = 
REMARK  6 active torsions:
REMARK  status: ('A' for Active; 'I' for Inactive)
REMARK    1  A    between atoms: C_7  and  C_8
REMARK    2  A    between atoms: C_8  and  C_9
REMARK    3  A    between atoms: C_12  and  C_13
REMARK    4  A    between atoms: C_13  and  C_14
REMARK    5  A    between atoms: C_14  and  N_15
REMARK    6  A    between atoms: N_18  and  C_21
REMARK                            x       y       z     vdW  Elec       q    Type
REMARK                         _______ _______ _______ _____ _____    ______ ____
ROOT
ATOM     13  C   UNL     1      -2.162   0.126  24.561  0.00  0.00    +0.019 C 
ENDROOT
BRANCH  13  12
ATOM      1  C   UNL     1      -0.718  -3.108  25.189  0.00  0.00    +0.095 C 
ATOM      2  C   UNL     1      -0.742  -2.284  25.148  0.00  0.00    +0.226 C 
ATOM      3  O   UNL     1      -0.078  -1.842  25.360  0.00  0.00    -0.275 OA
ATOM      4  N   UNL     1      -1.428  -1.903  24.895  0.00  0.00    -0.280 N 
ATOM      5  C   UNL     1      -2.091  -2.345  24.684  0.00  0.00    +0.093 C 
ATOM      6  C   UNL     1      -2.778  -1.963  24.430  0.00  0.00    +0.022 C 
ATOM      7  C   UNL     1      -2.802  -1.140  24.390  0.00  0.00    +0.015 C 
ATOM     12  C   UNL     1      -2.139  -0.698  24.602  0.00  0.00    +0.022 C 
ATOM     28  C   UNL     1      -1.452  -1.080  24.855  0.00  0.00    +0.093 C 
BRANCH   7   8
ATOM      8  C   UNL     1      -3.488  -0.759  24.137  0.00  0.00    +0.114 C 
BRANCH   8   9
ATOM      9  C   UNL     1      -4.206  -1.166  24.125  0.00  0.00    +0.365 C 
ATOM     10  O   UNL     1      -4.386  -1.665  23.492  0.00  0.00    -0.246 OA
ATOM     11  O   UNL     1      -4.743  -1.074  24.743  0.00  0.00    -0.246 OA
ENDBRANCH   8   9
ENDBRANCH   7   8
ENDBRANCH  13  12
BRANCH  13  14
ATOM     14  C   UNL     1      -1.463   0.553  24.462  0.00  0.00    +0.072 C 
BRANCH  14  15
ATOM     15  N   UNL     1      -1.459   1.371  24.574  0.00  0.00    -0.270 NA
ATOM     16  C   UNL     1      -1.663   1.872  23.952  0.00  0.00    +0.094 C 
ATOM     17  C   UNL     1      -1.660   2.690  24.063  0.00  0.00    +0.108 C 
ATOM     18  N   UNL     1      -1.452   3.004  24.797  0.00  0.00    -0.305 N 
ATOM     19  C   UNL     1      -1.248   2.503  25.418  0.00  0.00    +0.108 C 
ATOM     20  C   UNL     1      -1.252   1.686  25.307  0.00  0.00    +0.094 C 
BRANCH  18  21
ATOM     21  C   UNL     1      -1.448   3.822  24.908  0.00  0.00    +0.048 A 
ATOM     22  C   UNL     1      -0.776   4.261  24.721  0.00  0.00    +0.017 A 
ATOM     23  C   UNL     1      -0.772   5.078  24.833  0.00  0.00    +0.031 A 
ATOM     24  C   UNL     1      -1.442   5.457  25.131  0.00  0.00    +0.140 A 
ATOM     25  F   UNL     1      -1.439   6.274  25.243  0.00  0.00    -0.204 F 
ATOM     26  C   UNL     1      -2.115   5.018  25.318  0.00  0.00    +0.031 A 
ATOM     27  C   UNL     1      -2.118   4.200  25.207  0.00  0.00    +0.017 A 
ENDBRANCH  18  21
ENDBRANCH  14  15
ENDBRANCH  13  14
TORSDOF 6
ENDMDL
MODEL 5
REMARK VINA RESULT:      -9.2      0.780      2.256
REMARK  Name = 
REMARK  6 active torsions:
REMARK  status: ('A' for Active; 'I' for Inactive)
REMARK    1  A    between atoms: C_7  and  C_8
REMARK    2  A    between atoms: C_8  and  C_9
REMARK    3  A    between atoms: C_12  and  C_13
REMARK    4  A    between atoms: C_13  and  C_14
REMARK    5  A    between atoms: C_14  and  N_15
REMARK    6  A    between atoms: N_18  and  C_21
REMARK                            x       y       z     vdW  Elec       q    Type
REMARK                         _______ _______ _______ _____ _____    ______ ____
ROOT
ATOM     13  C   UNL     1      -3.257   2.168  24.784  0.00  0.00    +0.019 C 
ENDROOT
BRANCH  13  12
ATOM      1  C   UNL     1      -5.469   4.793  25.857  0.00  0.00    +0.095 C 
ATOM      2  C   UNL     1      -5.260   4.044  25.581  0.00  0.00    +0.226 C 
ATOM      3  O   UNL     1      -5.847   3.485  25.428  0.00  0.00    -0.275 OA
ATOM      4  N   UNL     1      -4.467   3.856  25.459  0.00  0.00    -0.280 N 
ATOM      5  C   UNL     1      -3.882   4.416  25.612  0.00  0.00    +0.093 C 
ATOM      6  C   UNL     1      -3.087   4.227  25.489  0.00  0.00    +0.022 C 
ATOM      7  C   UNL     1      -2.879   3.478  25.213  0.00  0.00    +0.015 C 
ATOM     12  C   UNL     1      -3.465   2.918  25.060  0.00  0.00    +0.022 C 
ATOM     28  C   UNL     1      -4.259   3.107  25.183  0.00  0.00    +0.093 C 
BRANCH   7   8
ATOM      8  C   UNL     1      -2.086   3.289  25.091  0.00  0.00    +0.114 C 
BRANCH   8   9
ATOM      9  C   UNL     1      -1.496   3.704  25.491  0.00  0.00    +0.365 C 
ATOM     10  O   UNL     1      -1.159   4.375  25.148  0.00  0.00    -0.246 OA
ATOM     11  O   UNL     1      -1.243   3.449  26.233  0.00  0.00    -0.246 OA
ENDBRANCH   8   9
ENDBRANCH   7   8
ENDBRANCH  13  12
BRANCH  13  14
ATOM     14  C   UNL     1      -3.787   1.740  24.318  0.00  0.00    +0.072 C 
BRANCH  14  15
ATOM     15  N   UNL     1      -3.771   0.915  24.328  0.00  0.00    -0.270 NA
ATOM     16  C   UNL     1      -3.157   0.509  23.958  0.00  0.00    +0.094 C 
ATOM     17  C   UNL     1      -3.142  -0.315  23.967  0.00  0.00    +0.108 C 
ATOM     18  N   UNL     1      -3.742  -0.733  24.349  0.00  0.00    -0.305 N 
ATOM     19  C   UNL     1      -4.356  -0.328  24.719  0.00  0.00    +0.108 C 
ATOM     20  C   UNL     1      -4.372   0.497  24.709  0.00  0.00    +0.094 C 
BRANCH  18  21
ATOM     21  C   UNL     1      -3.727  -1.559  24.359  0.00  0.00    +0.048 A 
ATOM     22  C   UNL     1      -4.155  -1.986  23.798  0.00  0.00    +0.017 A 
ATOM     23  C   UNL     1      -4.140  -2.811  23.808  0.00  0.00    +0.031 A 
ATOM     24  C   UNL     1      -3.697  -3.209  24.379  0.00  0.00    +0.140 A 
ATOM     25  F   UNL     1      -3.681  -4.033  24.390  0.00  0.00    -0.204 F 
ATOM     26  C   UNL     1      -3.268  -2.781  24.940  0.00  0.00    +0.031 A 
ATOM     27  C   UNL     1      -3.284  -1.956  24.930  0.00  0.00    +0.017 A 
ENDBRANCH  18  21
ENDBRANCH  14  15
ENDBRANCH  13  14
TORSDOF 6
ENDMDL
MODEL 6
REMARK VINA RESULT:      -9.1      2.951      5.465
REMARK  Name = 
REMARK  6 active torsions:
REMARK  status: ('A' for Active; 'I' for Inactive)
REMARK    1  A    between atoms: C_7  and  C_8
REMARK    2  A    between atoms: C_8  and  C_9
REMARK    3  A    between atoms: C_12  and  C_13
REMARK    4  A    between atoms: C_13  and  C_14
REMARK    5  A    between atoms: C_14  and  N_15
REMARK    6  A    between atoms: N_18  and  C_21
REMARK                            x       y       z     vdW  Elec       q    Type
REMARK                         _______ _______ _______ _____ _____    ______ ____
ROOT
ATOM     13  C   UNL     1      -3.086  -0.373  24.694  0.00  0.00    +0.019 C 
ENDROOT
BRANCH  13  12
ATOM      1  C   UNL     1       0.269  -1.664  24.599  0.00  0.00    +0.095 C 
ATOM      2  C   UNL     1      -0.320  -1.086  24.620  0.00  0.00    +0.226 C 
ATOM      3  O   UNL     1      -0.113  -0.288  24.625  0.00  0.00    -0.275 OA
ATOM      4  N   UNL     1      -1.115  -1.307  24.636  0.00  0.00    -0.280 N 
ATOM      5  C   UNL     1      -1.321  -2.106  24.630  0.00  0.00    +0.093 C 
ATOM      6  C   UNL     1      -2.116  -2.327  24.646  0.00  0.00    +0.022 C 
ATOM      7  C   UNL     1      -2.704  -1.749  24.667  0.00  0.00    +0.015 C 
ATOM     12  C   UNL     1      -2.498  -0.951  24.673  0.00  0.00    +0.022 C 
ATOM     28  C   UNL     1      -1.703  -0.730  24.657  0.00  0.00    +0.093 C 
BRANCH   7   8
ATOM      8  C   UNL     1      -3.499  -1.970  24.683  0.00  0.00    +0.114 C 
BRANCH   8   9
ATOM      9  C   UNL     1      -3.710  -2.760  24.572  0.00  0.00    +0.365 C 
ATOM     10  O   UNL     1      -3.659  -3.292  25.201  0.00  0.00    -0.246 OA
ATOM     11  O   UNL     1      -3.973  -3.016  23.834  0.00  0.00    -0.246 OA
ENDBRANCH   8   9
ENDBRANCH   7   8
ENDBRANCH  13  12
BRANCH  13  14
ATOM     14  C   UNL     1      -2.956   0.360  24.338  0.00  0.00    +0.072 C 
BRANCH  14  15
ATOM     15  N   UNL     1      -3.429   1.007  24.540  0.00  0.00    -0.270 NA
ATOM     16  C   UNL     1      -3.087   1.680  24.871  0.00  0.00    +0.094 C 
ATOM     17  C   UNL     1      -3.559   2.326  25.072  0.00  0.00    +0.108 C 
ATOM     18  N   UNL     1      -4.373   2.297  24.942  0.00  0.00    -0.305 N 
ATOM     19  C   UNL     1      -4.714   1.625  24.611  0.00  0.00    +0.108 C 
ATOM     20  C   UNL     1      -4.243   0.979  24.409  0.00  0.00    +0.094 C 
BRANCH  18  21
ATOM     21  C   UNL     1      -4.845   2.944  25.143  0.00  0.00    +0.048 A 
ATOM     22  C   UNL     1      -4.584   3.711  24.986  0.00  0.00    +0.017 A 
ATOM     23  C   UNL     1      -5.056   4.356  25.187  0.00  0.00    +0.031 A 
ATOM     24  C   UNL     1      -5.790   4.236  25.546  0.00  0.00    +0.140 A 
ATOM     25  F   UNL     1      -6.262   4.881  25.747  0.00  0.00    -0.204 F 
ATOM     26  C   UNL     1      -6.051   3.469  25.703  0.00  0.00    +0.031 A 
ATOM     27  C   UNL     1      -5.578   2.822  25.502  0.00  0.00    +0.017 A 
ENDBRANCH  18  21
ENDBRANCH  14  15
ENDBRANCH  13  14
TORSDOF 6
ENDMDL
MODEL 7
REMARK VINA RESULT:      -9.0      3.768      5.065
REMARK  Name = 
REMARK  6 active torsions:
REMARK  status: ('A' for Active; 'I' for Inactive)
REMARK    1  A    between atoms: C_7  and  C_8
REMARK    2  A    between atoms: C_8  and  C_9
REMARK    3  A    between atoms: C_12  and  C_13
REMARK    4  A    between atoms: C_13  and  C_14
REMARK    5  A    between atoms: C_14  and  N_15
REMARK    6  A    between atoms: N_18  and  C_21
REMARK                            x       y       z     vdW  Elec       q    Type
REMARK                         _______ _______ _______ _____ _____    ______ ____
ROOT
ATOM     13  C   UNL     1      -2.270  -0.245  24.247  0.00  0.00    +0.019 C 
ENDROOT
BRANCH  13  12
ATOM      1  C   UNL     1      -5.199   1.602  25.220  0.00  0.00    +0.095 C 
ATOM      2  C   UNL     1      -4.405   1.488  25.027  0.00  0.00    +0.226 C 
ATOM      3  O   UNL     1      -3.885   2.128  25.030  0.00  0.00    -0.275 OA
ATOM      4  N   UNL     1      -4.132   0.735  24.830  0.00  0.00    -0.280 N 
ATOM      5  C   UNL     1      -4.652   0.095  24.827  0.00  0.00    +0.093 C 
ATOM      6  C   UNL     1      -4.378  -0.659  24.631  0.00  0.00    +0.022 C 
ATOM      7  C   UNL     1      -3.585  -0.772  24.438  0.00  0.00    +0.015 C 
ATOM     12  C   UNL     1      -3.065  -0.132  24.441  0.00  0.00    +0.022 C 
ATOM     28  C   UNL     1      -3.338   0.622  24.637  0.00  0.00    +0.093 C 
BRANCH   7   8
ATOM      8  C   UNL     1      -3.311  -1.525  24.241  0.00  0.00    +0.114 C 
BRANCH   8   9
ATOM      9  C   UNL     1      -3.791  -2.184  24.366  0.00  0.00    +0.365 C 
ATOM     10  O   UNL     1      -3.727  -2.614  25.068  0.00  0.00    -0.246 OA
ATOM     11  O   UNL     1      -4.335  -2.414  23.791  0.00  0.00    -0.246 OA
ENDBRANCH   8   9
ENDBRANCH   7   8
ENDBRANCH  13  12
BRANCH  13  14
ATOM     14  C   UNL     1      -1.700   0.283  24.524  0.00  0.00    +0.072 C 
BRANCH  14  15
ATOM     15  N   UNL     1      -0.949   0.296  24.183  0.00  0.00    -0.270 NA
ATOM     16  C   UNL     1      -0.477  -0.379  24.198  0.00  0.00    +0.094 C 
ATOM     17  C   UNL     1       0.273  -0.367  23.856  0.00  0.00    +0.108 C 
ATOM     18  N   UNL     1       0.552   0.323  23.500  0.00  0.00    -0.305 N 
ATOM     19  C   UNL     1       0.081   0.999  23.485  0.00  0.00    +0.108 C 
ATOM     20  C   UNL     1      -0.670   0.986  23.826  0.00  0.00    +0.094 C 
BRANCH  18  21
ATOM     21  C   UNL     1       1.304   0.336  23.159  0.00  0.00    +0.048 A 
ATOM     22  C   UNL     1       1.481  -0.171  22.533  0.00  0.00    +0.017 A 
ATOM     23  C   UNL     1       2.232  -0.158  22.192  0.00  0.00    +0.031 A 
ATOM     24  C   UNL     1       2.806   0.362  22.476  0.00  0.00    +0.140 A 
ATOM     25  F   UNL     1       3.556   0.375  22.135  0.00  0.00    -0.204 F 
ATOM     26  C   UNL     1       2.628   0.869  23.102  0.00  0.00    +0.031 A 
ATOM     27  C   UNL     1       1.877   0.856  23.444  0.00  0.00    +0.017 A 
ENDBRANCH  18  21
ENDBRANCH  14  15
ENDBRANCH  13  14
TORSDOF 6
ENDMDL
