MODEL 1
REMARK VINA RESULT:     -12.5      0.000      0.000
REMARK  Name = 
REMARK  7 active torsions:
REMARK  status: ('A' for Active; 'I' for Inactive)
REMARK    1  A    between atoms: C_2  and  C_3
REMARK    2  A    between atoms: C_2  and  C_24
REMARK    3  A    between atoms: C_10  and  N_11
REMARK    4  A    between atoms: C_12  and  C_14
REMARK    5  A    between atoms: C_14  and  C_15
REMARK    6  A    between atoms: N_26  and  C_28
REMARK    7  A    between atoms: C_28  and  C_29
REMARK                            x       y       z     vdW  Elec       q    Type
REMARK                         _______ _______ _______ _____ _____    ______ ____
ROOT
ATOM      3  C   UNL     1      -4.470   2.783  24.886  0.00  0.00    +0.039 C 
ATOM      4  C   UNL     1      -5.101   2.660  25.402  0.00  0.00    +0.003 C 
ATOM      5  C   UNL     1      -5.388   1.898  25.529  0.00  0.00    +0.000 C 
ATOM      6  C   UNL     1      -5.044   1.256  25.138  0.00  0.00    +0.002 C 
ATOM      7  C   UNL     1      -5.675   1.134  25.656  0.00  0.00    +0.000 C 
ATOM      8  C   UNL     1      -5.331   0.494  25.265  0.00  0.00    +0.002 C 
ATOM      9  C   UNL     1      -4.988  -0.147  24.875  0.00  0.00    +0.022 C 
ATOM     10  C   UNL     1      -4.356  -0.024  24.357  0.00  0.00    +0.095 C 
ATOM     19  C   UNL     1      -4.069   0.739  24.231  0.00  0.00    +0.022 C 
ATOM     20  C   UNL     1      -3.438   0.861  23.714  0.00  0.00    +0.002 C 
ATOM     21  C   UNL     1      -4.413   1.379  24.622  0.00  0.00    +0.032 C 
ATOM     22  C   UNL     1      -4.126   2.141  24.495  0.00  0.00    +0.152 C 
ATOM     23  O   UNL     1      -3.495   2.265  23.978  0.00  0.00    -0.223 OA
ENDROOT
BRANCH  10  11
ATOM     11  N   UNL     1      -4.012  -0.664  23.967  0.00  0.00    -0.207 NA
ATOM     12  C   UNL     1      -3.791  -1.336  24.392  0.00  0.00    +0.241 C 
ATOM     13  O   UNL     1      -3.915  -1.368  25.208  0.00  0.00    -0.273 OA
BRANCH  12  14
ATOM     14  C   UNL     1      -3.448  -1.977  24.002  0.00  0.00    +0.087 C 
BRANCH  14  15
ATOM     15  C   UNL     1      -3.316  -2.684  24.407  0.00  0.00    +0.009 C 
ATOM     16  C   UNL     1      -3.184  -3.390  24.812  0.00  0.00    +0.000 C 
ATOM     17  C   UNL     1      -4.056  -2.958  24.167  0.00  0.00    +0.000 C 
ATOM     18  C   UNL     1      -2.576  -2.408  24.646  0.00  0.00    +0.000 C 
ENDBRANCH  14  15
ENDBRANCH  12  14
ENDBRANCH  10  11
BRANCH   3   2
ATOM      1  C   UNL     1      -4.453   3.986  24.116  0.00  0.00    +0.010 C 
ATOM      2  C   UNL     1      -4.182   3.545  24.759  0.00  0.00    +0.079 C 
BRANCH   2  24
ATOM     24  C   UNL     1      -3.624   3.867  25.273  0.00  0.00    +0.226 C 
ATOM     25  O   UNL     1      -3.687   3.734  26.086  0.00  0.00    -0.275 OA
ATOM     26  N   UNL     1      -3.003   4.323  24.977  0.00  0.00    -0.274 N 
ATOM     27  C   UNL     1      -2.941   4.456  24.165  0.00  0.00    +0.115 C 
BRANCH  26  28
ATOM     28  C   UNL     1      -2.445   4.645  25.491  0.00  0.00    +0.120 C 
BRANCH  28  29
ATOM     29  C   UNL     1      -1.653   4.693  25.264  0.00  0.00    -0.002 A 
ATOM     30  C   UNL     1      -1.358   5.393  24.943  0.00  0.00    -0.003 A 
ATOM     31  C   UNL     1      -0.566   5.441  24.716  0.00  0.00    -0.000 A 
ATOM     32  C   UNL     1      -0.070   4.789  24.811  0.00  0.00    -0.000 A 
ATOM     33  C   UNL     1      -0.365   4.088  25.132  0.00  0.00    -0.000 A 
ATOM     34  C   UNL     1      -1.157   4.041  25.358  0.00  0.00    -0.003 A 
ENDBRANCH  28  29
ENDBRANCH  26  28
ENDBRANCH   2  24
ENDBRANCH   3   2
TORSDOF 7
ENDMDL
MODEL 2
REMARK VINA RESULT:     -11.7      0.838      5.310
REMARK  Name = 
REMARK  7 active torsions:
REMARK  status: ('A' for Active; 'I' for Inactive)
REMARK    1  A    between atoms: C_2  and  C_3
REMARK    2  A    between atoms: C_2  and  C_24
REMARK    3  A    between atoms: C_10  and  N_11
REMARK    4  A    between atoms: C_12  and  C_14
REMARK    5  A    between atoms: C_14  and  C_15
REMARK    6  A    between atoms: N_26  and  C_28
REMARK    7  A    between atoms: C_28  and  C_29
REMARK                            x       y       z     vdW  Elec       q    Type
REMARK                         _______ _______ _______ _____ _____    ______ ____
ROOT
ATOM      3  C   UNL     1      -4.631   0.703  24.818  0.00  0.00    +0.039 C 
ATOM      4  C   UNL     1      -5.211   0.978  25.335  0.00  0.00    +0.003 C 
ATOM      5  C   UNL     1      -5.242   1.778  25.531  0.00  0.00    +0.000 C 
ATOM      6  C   UNL     1      -4.692   2.304  25.209  0.00  0.00    +0.002 C 
ATOM      7  C   UNL     1      -5.273   2.580  25.727  0.00  0.00    +0.000 C 
ATOM      8  C   UNL     1      -4.724   3.105  25.405  0.00  0.00    +0.002 C 
ATOM      9  C   UNL     1      -4.176   3.630  25.083  0.00  0.00    +0.022 C 
ATOM     10  C   UNL     1      -3.595   3.355  24.565  0.00  0.00    +0.095 C 
ATOM     19  C   UNL     1      -3.564   2.554  24.369  0.00  0.00    +0.022 C 
ATOM     20  C   UNL     1      -2.984   2.279  23.851  0.00  0.00    +0.002 C 
ATOM     21  C   UNL     1      -4.113   2.029  24.691  0.00  0.00    +0.032 C 
ATOM     22  C   UNL     1      -4.082   1.228  24.495  0.00  0.00    +0.152 C 
ATOM     23  O   UNL     1      -3.502   0.952  23.977  0.00  0.00    -0.223 OA
ENDROOT
BRANCH  10  11
ATOM     11  N   UNL     1      -3.047   3.879  24.243  0.00  0.00    -0.207 NA
ATOM     12  C   UNL     1      -2.516   4.275  24.736  0.00  0.00    +0.241 C 
ATOM     13  O   UNL     1      -2.534   4.145  25.551  0.00  0.00    -0.273 OA
BRANCH  12  14
ATOM     14  C   UNL     1      -1.967   4.800  24.414  0.00  0.00    +0.087 C 
BRANCH  14  15
ATOM     15  C   UNL     1      -1.296   5.011  24.846  0.00  0.00    +0.009 C 
ATOM     16  C   UNL     1      -0.626   5.223  25.278  0.00  0.00    +0.000 C 
ATOM     17  C   UNL     1      -0.883   4.380  24.513  0.00  0.00    +0.000 C 
ATOM     18  C   UNL     1      -1.710   5.643  25.179  0.00  0.00    +0.000 C 
ENDBRANCH  14  15
ENDBRANCH  12  14
ENDBRANCH  10  11
BRANCH   3   2
ATOM      1  C   UNL     1      -4.998  -0.375  23.954  0.00  0.00    +0.010 C 
ATOM      2  C   UNL     1      -4.599  -0.098  24.621  0.00  0.00    +0.079 C 
BRANCH   2  24
ATOM     24  C   UNL     1      -4.170  -0.622  25.091  0.00  0.00    +0.226 C 
ATOM     25  O   UNL     1      -4.053  -0.457  25.892  0.00  0.00    -0.275 OA
ATOM     26  N   UNL     1      -3.857  -1.311  24.762  0.00  0.00    -0.274 N 
ATOM     27  C   UNL     1      -3.974  -1.476  23.962  0.00  0.00    +0.115 C 
BRANCH  26  28
ATOM     28  C   UNL     1      -3.428  -1.835  25.232  0.00  0.00    +0.120 C 
BRANCH  28  29
ATOM     29  C   UNL     1      -2.674  -2.076  25.000  0.00  0.00    -0.002 A 
ATOM     30  C   UNL     1      -2.586  -2.701  24.469  0.00  0.00    -0.003 A 
ATOM     31  C   UNL     1      -1.832  -2.943  24.237  0.00  0.00    -0.000 A 
ATOM     32  C   UNL     1      -1.166  -2.558  24.535  0.00  0.00    -0.000 A 
ATOM     33  C   UNL     1      -1.254  -1.932  25.067  0.00  0.00    -0.000 A 
ATOM     34  C   UNL     1      -2.008  -1.692  25.299  0.00  0.00    -0.003 A 
ENDBRANCH  28  29
ENDBRANCH  26  28
ENDBRANCH   2  24
ENDBRANCH   3   2
TORSDOF 7
ENDMDL
MODEL 3
REMARK VINA RESULT:     -11.5      2.154      3.580
REMARK  Name = 
REMARK  7 active torsions:
REMARK  status: ('A' for Active; 'I' for Inactive)
REMARK    1  A    between atoms: C_2  and  C_3
REMARK    2  A    between atoms: C_2  and  C_24
REMARK    3  A    between atoms: C_10  and  N_11
REMARK    4  A    between atoms: C_12  and  C_14
REMARK    5  A    between atoms: C_14  and  C_15
REMARK    6  A    between atoms: N_26  and  C_28
REMARK    7  A    between atoms: C_28  and  C_29
REMARK                            x       y       z     vdW  Elec       q    Type
REMARK                         _______ _______ _______ _____ _____    ______ ____
ROOT
ATOM      3  C   UNL     1      -0.200   1.760  24.952  0.00  0.00    +0.039 C 
ATOM      4  C   UNL     1       0.254   1.685  24.268  0.00  0.00    +0.003 C 
ATOM      5  C   UNL     1       0.290   0.961  23.874  0.00  0.00    +0.000 C 
ATOM      6  C   UNL     1      -0.130   0.312  24.164  0.00  0.00    +0.002 C 
ATOM      7  C   UNL     1       0.325   0.237  23.479  0.00  0.00    +0.000 C 
ATOM      8  C   UNL     1      -0.094  -0.412  23.770  0.00  0.00    +0.002 C 
ATOM      9  C   UNL     1      -0.513  -1.061  24.060  0.00  0.00    +0.022 C 
ATOM     10  C   UNL     1      -0.968  -0.986  24.745  0.00  0.00    +0.095 C 
ATOM     19  C   UNL     1      -1.003  -0.262  25.139  0.00  0.00    +0.022 C 
ATOM     20  C   UNL     1      -1.457  -0.187  25.823  0.00  0.00    +0.002 C 
ATOM     21  C   UNL     1      -0.584   0.387  24.848  0.00  0.00    +0.032 C 
ATOM     22  C   UNL     1      -0.619   1.110  25.242  0.00  0.00    +0.152 C 
ATOM     23  O   UNL     1      -1.073   1.186  25.927  0.00  0.00    -0.223 OA
ENDROOT
BRANCH  10  11
ATOM     11  N   UNL     1      -1.386  -1.634  25.035  0.00  0.00    -0.207 NA
ATOM     12  C   UNL     1      -2.023  -1.939  24.608  0.00  0.00    +0.241 C 
ATOM     13  O   UNL     1      -2.241  -1.594  23.890  0.00  0.00    -0.273 OA
BRANCH  12  14
ATOM     14  C   UNL     1      -2.442  -2.587  24.898  0.00  0.00    +0.087 C 
BRANCH  14  15
ATOM     15  C   UNL     1      -3.185  -2.770  24.589  0.00  0.00    +0.009 C 
ATOM     16  C   UNL     1      -3.928  -2.952  24.281  0.00  0.00    +0.000 C 
ATOM     17  C   UNL     1      -2.829  -3.234  24.008  0.00  0.00    +0.000 C 
ATOM     18  C   UNL     1      -3.541  -2.306  25.172  0.00  0.00    +0.000 C 
ENDBRANCH  14  15
ENDBRANCH  12  14
ENDBRANCH  10  11
BRANCH   3   2
ATOM      1  C   UNL     1       0.192   2.595  26.043  0.00  0.00    +0.010 C 
ATOM      2  C   UNL     1      -0.236   2.484  25.346  0.00  0.00    +0.079 C 
BRANCH   2  24
ATOM     24  C   UNL     1      -0.699   3.096  25.045  0.00  0.00    +0.226 C 
ATOM     25  O   UNL     1      -0.623   3.319  24.254  0.00  0.00    -0.275 OA
ATOM     26  N   UNL     1      -1.238   3.485  25.534  0.00  0.00    -0.274 N 
ATOM     27  C   UNL     1      -1.313   3.262  26.325  0.00  0.00    +0.115 C 
BRANCH  26  28
ATOM     28  C   UNL     1      -1.701   4.097  25.233  0.00  0.00    +0.120 C 
BRANCH  28  29
ATOM     29  C   UNL     1      -2.522   4.067  25.304  0.00  0.00    -0.002 A 
ATOM     30  C   UNL     1      -2.880   4.227  26.030  0.00  0.00    -0.003 A 
ATOM     31  C   UNL     1      -3.701   4.197  26.101  0.00  0.00    -0.000 A 
ATOM     32  C   UNL     1      -4.165   4.008  25.446  0.00  0.00    -0.000 A 
ATOM     33  C   UNL     1      -3.807   3.848  24.719  0.00  0.00    -0.000 A 
ATOM     34  C   UNL     1      -2.986   3.878  24.649  0.00  0.00    -0.003 A 
ENDBRANCH  28  29
ENDBRANCH  26  28
ENDBRANCH   2  24
ENDBRANCH   3   2
TORSDOF 7
ENDMDL
MODEL 4
REMARK VINA RESULT:     -11.2      2.233      6.362
REMARK  Name = 
REMARK  7 active torsions:
REMARK  status: ('A' for Active; 'I' for Inactive)
REMARK    1  A    between atoms: C_2  and  C_3
REMARK    2  A    between atoms: C_2  and  C_24
REMARK    3  A    between atoms: C_10  and  N_11
REMARK    4  A    between atoms: C_12  and  C_14
REMARK    5  A    between atoms: C_14  and  C_15
REMARK    6  A    between atoms: N_26  and  C_28
REMARK    7  A    between atoms: C_28  and  C_29
REMARK                            x       y       z     vdW  Elec       q    Type
REMARK                         _______ _______ _______ _____ _____    ______ ____
ROOT
ATOM      3  C   UNL     1      -0.751  -0.440  24.940  0.00  0.00    +0.039 C 
ATOM      4  C   UNL     1      -0.560  -0.482  24.139  0.00  0.00    +0.003 C 
ATOM      5  C   UNL     1      -0.366   0.204  23.725  0.00  0.00    +0.000 C 
ATOM      6  C   UNL     1      -0.362   0.933  24.113  0.00  0.00    +0.002 C 
ATOM      7  C   UNL     1      -0.171   0.891  23.311  0.00  0.00    +0.000 C 
ATOM      8  C   UNL     1      -0.167   1.619  23.699  0.00  0.00    +0.002 C 
ATOM      9  C   UNL     1      -0.163   2.348  24.086  0.00  0.00    +0.022 C 
ATOM     10  C   UNL     1      -0.354   2.390  24.889  0.00  0.00    +0.095 C 
ATOM     19  C   UNL     1      -0.548   1.703  25.302  0.00  0.00    +0.022 C 
ATOM     20  C   UNL     1      -0.739   1.745  26.103  0.00  0.00    +0.002 C 
ATOM     21  C   UNL     1      -0.552   0.975  24.914  0.00  0.00    +0.032 C 
ATOM     22  C   UNL     1      -0.747   0.289  25.328  0.00  0.00    +0.152 C 
ATOM     23  O   UNL     1      -0.937   0.330  26.130  0.00  0.00    -0.223 OA
ENDROOT
BRANCH  10  11
ATOM     11  N   UNL     1      -0.350   3.117  25.276  0.00  0.00    -0.207 NA
ATOM     12  C   UNL     1      -0.841   3.727  25.014  0.00  0.00    +0.241 C 
ATOM     13  O   UNL     1      -1.336   3.608  24.364  0.00  0.00    -0.273 OA
BRANCH  12  14
ATOM     14  C   UNL     1      -0.837   4.455  25.401  0.00  0.00    +0.087 C 
BRANCH  14  15
ATOM     15  C   UNL     1      -1.315   5.070  25.128  0.00  0.00    +0.009 C 
ATOM     16  C   UNL     1      -1.793   5.684  24.855  0.00  0.00    +0.000 C 
ATOM     17  C   UNL     1      -0.686   5.360  24.680  0.00  0.00    +0.000 C 
ATOM     18  C   UNL     1      -1.944   4.780  25.576  0.00  0.00    +0.000 C 
ENDBRANCH  14  15
ENDBRANCH  12  14
ENDBRANCH  10  11
BRANCH   3   2
ATOM      1  C   UNL     1      -0.351  -1.647  25.592  0.00  0.00    +0.010 C 
ATOM      2  C   UNL     1      -0.945  -1.127  25.355  0.00  0.00    +0.079 C 
BRANCH   2  24
ATOM     24  C   UNL     1      -1.733  -1.293  25.532  0.00  0.00    +0.226 C 
ATOM     25  O   UNL     1      -2.138  -0.830  26.084  0.00  0.00    -0.275 OA
ATOM     26  N   UNL     1      -2.118  -1.920  25.159  0.00  0.00    -0.274 N 
ATOM     27  C   UNL     1      -1.713  -2.381  24.607  0.00  0.00    +0.115 C 
BRANCH  26  28
ATOM     28  C   UNL     1      -2.906  -2.086  25.336  0.00  0.00    +0.120 C 
BRANCH  28  29
ATOM     29  C   UNL     1      -3.455  -2.180  24.728  0.00  0.00    -0.002 A 
ATOM     30  C   UNL     1      -3.579  -2.923  24.394  0.00  0.00    -0.003 A 
ATOM     31  C   UNL     1      -4.128  -3.018  23.786  0.00  0.00    -0.000 A 
ATOM     32  C   UNL     1      -4.555  -2.367  23.512  0.00  0.00    -0.000 A 
ATOM     33  C   UNL     1      -4.431  -1.622  23.846  0.00  0.00    -0.000 A 
ATOM     34  C   UNL     1      -3.882  -1.529  24.454  0.00  0.00    -0.003 A 
ENDBRANCH  28  29
ENDBRANCH  26  28
ENDBRANCH   2  24
ENDBRANCH   3   2
TORSDOF 7
ENDMDL
MODEL 5
REMARK VINA RESULT:     -10.9      3.500      5.471
REMARK  Name = 
REMARK  7 active torsions:
REMARK  status: ('A' for Active; 'I' for Inactive)
REMARK    1  A    between atoms: C_2  and  C_3
REMARK    2  A    between atoms: C_2  and  C_24
REMARK    3  A    between atoms: C_10  and  N_11
REMARK    4  A    between atoms: C_12  and  C_14
REMARK    5  A    between atoms: C_14  and  C_15
REMARK    6  A    between atoms: N_26  and  C_28
REMARK    7  A    between atoms: C_28  and  C_29
REMARK                            x       y       z     vdW  Elec       q    Type
REMARK                         _______ _______ _______ _____ _____    ______ ____
ROOT
ATOM      3  C   UNL     1      -1.591   0.884  24.429  0.00  0.00    +0.039 C 
ATOM      4  C   UNL     1      -1.428   1.617  24.767  0.00  0.00    +0.003 C 
ATOM      5  C   UNL     1      -0.672   1.941  24.705  0.00  0.00    +0.000 C 
ATOM      6  C   UNL     1      -0.078   1.530  24.305  0.00  0.00    +0.002 C 
ATOM      7  C   UNL     1       0.085   2.265  24.644  0.00  0.00    +0.000 C 
ATOM      8  C   UNL     1       0.678   1.854  24.243  0.00  0.00    +0.002 C 
ATOM      9  C   UNL     1       1.271   1.444  23.843  0.00  0.00    +0.022 C 
ATOM     10  C   UNL     1       1.108   0.709  23.504  0.00  0.00    +0.095 C 
ATOM     19  C   UNL     1       0.351   0.386  23.566  0.00  0.00    +0.022 C 
ATOM     20  C   UNL     1       0.189  -0.349  23.227  0.00  0.00    +0.002 C 
ATOM     21  C   UNL     1      -0.242   0.796  23.966  0.00  0.00    +0.032 C 
ATOM     22  C   UNL     1      -0.997   0.473  24.028  0.00  0.00    +0.152 C 
ATOM     23  O   UNL     1      -1.161  -0.262  23.689  0.00  0.00    -0.223 OA
ENDROOT
BRANCH  10  11
ATOM     11  N   UNL     1       1.700   0.298  23.104  0.00  0.00    -0.207 NA
ATOM     12  C   UNL     1       2.473   0.588  23.101  0.00  0.00    +0.241 C 
ATOM     13  O   UNL     1       2.653   1.289  23.499  0.00  0.00    -0.273 OA
BRANCH  12  14
ATOM     14  C   UNL     1       3.066   0.177  22.701  0.00  0.00    +0.087 C 
BRANCH  14  15
ATOM     15  C   UNL     1       3.859   0.324  22.876  0.00  0.00    +0.009 C 
ATOM     16  C   UNL     1       4.652   0.469  23.053  0.00  0.00    +0.000 C 
ATOM     17  C   UNL     1       3.853   0.973  22.369  0.00  0.00    +0.000 C 
ATOM     18  C   UNL     1       3.866  -0.327  23.384  0.00  0.00    +0.000 C 
ENDBRANCH  14  15
ENDBRANCH  12  14
ENDBRANCH  10  11
BRANCH   3   2
ATOM      1  C   UNL     1      -2.457  -0.159  24.881  0.00  0.00    +0.010 C 
ATOM      2  C   UNL     1      -2.347   0.559  24.490  0.00  0.00    +0.079 C 
BRANCH   2  24
ATOM     24  C   UNL     1      -2.993   0.952  24.161  0.00  0.00    +0.226 C 
ATOM     25  O   UNL     1      -2.949   1.246  23.391  0.00  0.00    -0.275 OA
ATOM     26  N   UNL     1      -3.684   1.053  24.602  0.00  0.00    -0.274 N 
ATOM     27  C   UNL     1      -3.728   0.759  25.372  0.00  0.00    +0.115 C 
BRANCH  26  28
ATOM     28  C   UNL     1      -4.329   1.446  24.273  0.00  0.00    +0.120 C 
BRANCH  28  29
ATOM     29  C   UNL     1      -4.834   1.886  24.755  0.00  0.00    -0.002 A 
ATOM     30  C   UNL     1      -4.680   2.684  24.895  0.00  0.00    -0.003 A 
ATOM     31  C   UNL     1      -5.185   3.124  25.377  0.00  0.00    -0.000 A 
ATOM     32  C   UNL     1      -5.845   2.766  25.719  0.00  0.00    -0.000 A 
ATOM     33  C   UNL     1      -5.999   1.967  25.579  0.00  0.00    -0.000 A 
ATOM     34  C   UNL     1      -5.494   1.528  25.097  0.00  0.00    -0.003 A 
ENDBRANCH  28  29
ENDBRANCH  26  28
ENDBRANCH   2  24
ENDBRANCH   3   2
TORSDOF 7
ENDMDL
MODEL 6
REMARK VINA RESULT:     -10.8      3.508      4.982
REMARK  Name = 
REMARK  7 active torsions:
REMARK  status: ('A' for Active; 'I' for Inactive)
REMARK    1  A    between atoms: C_2  and  C_3
REMARK    2  A    between atoms: C_2  and  C_24
REMARK    3  A    between atoms: C_10  and  N_11
REMARK    4  A    between atoms: C_12  and  C_14
REMARK    5  A    between atoms: C_14  and  C_15
REMARK    6  A    between atoms: N_26  and  C_28
REMARK    7  A    between atoms: C_28  and  C_29
REMARK                            x       y       z     vdW  Elec       q    Type
REMARK                         _______ _______ _______ _____ _____    ______ ____
ROOT
ATOM      3  C   UNL     1      -0.482   0.580  24.058  0.00  0.00    +0.039 C 
ATOM      4  C   UNL     1      -0.535  -0.155  24.429  0.00  0.00    +0.003 C 
ATOM      5  C   UNL     1      -1.269  -0.446  24.664  0.00  0.00    +0.000 C 
ATOM      6  C   UNL     1      -1.953  -0.002  24.528  0.00  0.00    +0.002 C 
ATOM      7  C   UNL     1      -2.005  -0.738  24.899  0.00  0.00    +0.000 C 
ATOM      8  C   UNL     1      -2.688  -0.295  24.763  0.00  0.00    +0.002 C 
ATOM      9  C   UNL     1      -3.370   0.149  24.627  0.00  0.00    +0.022 C 
ATOM     10  C   UNL     1      -3.317   0.884  24.256  0.00  0.00    +0.095 C 
ATOM     19  C   UNL     1      -2.582   1.175  24.021  0.00  0.00    +0.022 C 
ATOM     20  C   UNL     1      -2.530   1.910  23.650  0.00  0.00    +0.002 C 
ATOM     21  C   UNL     1      -1.900   0.732  24.157  0.00  0.00    +0.032 C 
ATOM     22  C   UNL     1      -1.166   1.023  23.922  0.00  0.00    +0.152 C 
ATOM     23  O   UNL     1      -1.112   1.758  23.550  0.00  0.00    -0.223 OA
ENDROOT
BRANCH  10  11
ATOM     11  N   UNL     1      -3.999   1.327  24.120  0.00  0.00    -0.207 NA
ATOM     12  C   UNL     1      -4.531   1.466  24.737  0.00  0.00    +0.241 C 
ATOM     13  O   UNL     1      -4.380   1.160  25.489  0.00  0.00    -0.273 OA
BRANCH  12  14
ATOM     14  C   UNL     1      -5.213   1.909  24.601  0.00  0.00    +0.087 C 
BRANCH  14  15
ATOM     15  C   UNL     1      -5.706   2.111  25.231  0.00  0.00    +0.009 C 
ATOM     16  C   UNL     1      -6.199   2.311  25.861  0.00  0.00    +0.000 C 
ATOM     17  C   UNL     1      -5.262   2.793  25.361  0.00  0.00    +0.000 C 
ATOM     18  C   UNL     1      -6.150   1.427  25.101  0.00  0.00    +0.000 C 
ENDBRANCH  14  15
ENDBRANCH  12  14
ENDBRANCH  10  11
BRANCH   3   2
ATOM      1  C   UNL     1       0.513   1.604  24.100  0.00  0.00    +0.010 C 
ATOM      2  C   UNL     1       0.253   0.872  23.822  0.00  0.00    +0.079 C 
BRANCH   2  24
ATOM     24  C   UNL     1       0.726   0.433  23.309  0.00  0.00    +0.226 C 
ATOM     25  O   UNL     1       0.396  -0.179  22.864  0.00  0.00    -0.275 OA
ATOM     26  N   UNL     1       1.530   0.605  23.241  0.00  0.00    -0.274 N 
ATOM     27  C   UNL     1       1.860   1.217  23.686  0.00  0.00    +0.115 C 
BRANCH  26  28
ATOM     28  C   UNL     1       2.004   0.167  22.728  0.00  0.00    +0.120 C 
BRANCH  28  29
ATOM     29  C   UNL     1       2.826   0.194  22.799  0.00  0.00    -0.002 A 
ATOM     30  C   UNL     1       3.247   0.830  22.485  0.00  0.00    -0.003 A 
ATOM     31  C   UNL     1       4.068   0.857  22.556  0.00  0.00    -0.000 A 
ATOM     32  C   UNL     1       4.469   0.248  22.942  0.00  0.00    -0.000 A 
ATOM     33  C   UNL     1       4.048  -0.389  23.257  0.00  0.00    -0.000 A 
ATOM     34  C   UNL     1       3.226  -0.415  23.185  0.00  0.00    -0.003 A 
ENDBRANCH  28  29
ENDBRANCH  26  28
ENDBRANCH   2  24
ENDBRANCH   3   2
TORSDOF 7
ENDMDL
MODEL 7
REMARK VINA RESULT:     -10.6      1.840      5.622
REMARK  Name = 
REMARK  7 active torsions:
REMARK  status: ('A' for Active; 'I' for Inactive)
REMARK    1  A    between atoms: C_2  and  C_3
REMARK    2  A    between atoms: C_2  and  C_24
REMARK    3  A    between atoms: C_10  and  N_11
REMARK    4  A    between atoms: C_12  and  C_14
REMARK    5  A    between atoms: C_14  and  C_15
REMARK    6  A    between atoms: N_26  and  C_28
REMARK    7  A    between atoms: C_28  and  C_29
REMARK                            x       y       z     vdW  Elec       q    Type
REMARK                         _______ _______ _______ _____ _____    ______ ____
ROOT
ATOM      3  C   UNL     1      -0.798   0.952  24.941  0.00  0.00    +0.039 C 
ATOM      4  C   UNL     1      -0.326   1.357  25.482  0.00  0.00    +0.003 C 
ATOM      5  C   UNL     1      -0.555   2.101  25.753  0.00  0.00    +0.000 C 
ATOM      6  C   UNL     1      -1.257   2.441  25.482  0.00  0.00    +0.002 C 
ATOM      7  C   UNL     1      -0.784   2.846  26.025  0.00  0.00    +0.000 C 
ATOM      8  C   UNL     1      -1.485   3.186  25.754  0.00  0.00    +0.002 C 
ATOM      9  C   UNL     1      -2.187   3.526  25.483  0.00  0.00    +0.022 C 
ATOM     10  C   UNL     1      -2.659   3.121  24.941  0.00  0.00    +0.095 C 
ATOM     19  C   UNL     1      -2.430   2.377  24.670  0.00  0.00    +0.022 C 
ATOM     20  C   UNL     1      -2.902   1.973  24.128  0.00  0.00    +0.002 C 
ATOM     21  C   UNL     1      -1.729   2.037  24.941  0.00  0.00    +0.032 C 
ATOM     22  C   UNL     1      -1.500   1.293  24.670  0.00  0.00    +0.152 C 
ATOM     23  O   UNL     1      -1.972   0.887  24.127  0.00  0.00    -0.223 OA
ENDROOT
BRANCH  10  11
ATOM     11  N   UNL     1      -3.360   3.461  24.670  0.00  0.00    -0.207 NA
ATOM     12  C   UNL     1      -3.983   3.596  25.195  0.00  0.00    +0.241 C 
ATOM     13  O   UNL     1      -3.904   3.390  25.991  0.00  0.00    -0.273 OA
BRANCH  12  14
ATOM     14  C   UNL     1      -4.684   3.936  24.924  0.00  0.00    +0.087 C 
BRANCH  14  15
ATOM     15  C   UNL     1      -5.377   3.856  25.365  0.00  0.00    +0.009 C 
ATOM     16  C   UNL     1      -6.070   3.779  25.806  0.00  0.00    +0.000 C 
ATOM     17  C   UNL     1      -5.485   3.098  25.061  0.00  0.00    +0.000 C 
ATOM     18  C   UNL     1      -5.270   4.616  25.669  0.00  0.00    +0.000 C 
ENDBRANCH  14  15
ENDBRANCH  12  14
ENDBRANCH  10  11
BRANCH   3   2
ATOM      1  C   UNL     1      -0.108   0.141  23.988  0.00  0.00    +0.010 C 
ATOM      2  C   UNL     1      -0.569   0.207  24.669  0.00  0.00    +0.079 C 
BRANCH   2  24
ATOM     24  C   UNL     1      -0.802  -0.470  25.077  0.00  0.00    +0.226 C 
ATOM     25  O   UNL     1      -0.806  -0.474  25.903  0.00  0.00    -0.275 OA
ATOM     26  N   UNL     1      -1.031  -1.145  24.660  0.00  0.00    -0.274 N 
ATOM     27  C   UNL     1      -1.028  -1.141  23.835  0.00  0.00    +0.115 C 
BRANCH  26  28
ATOM     28  C   UNL     1      -1.264  -1.822  25.068  0.00  0.00    +0.120 C 
BRANCH  28  29
ATOM     29  C   UNL     1      -1.994  -2.172  24.906  0.00  0.00    -0.002 A 
ATOM     30  C   UNL     1      -2.067  -2.703  24.279  0.00  0.00    -0.003 A 
ATOM     31  C   UNL     1      -2.796  -3.053  24.117  0.00  0.00    -0.000 A 
ATOM     32  C   UNL     1      -3.453  -2.872  24.583  0.00  0.00    -0.000 A 
ATOM     33  C   UNL     1      -3.380  -2.340  25.210  0.00  0.00    -0.000 A 
ATOM     34  C   UNL     1      -2.650  -1.991  25.372  0.00  0.00    -0.003 A 
ENDBRANCH  28  29
ENDBRANCH  26  28
ENDBRANCH   2  24
ENDBRANCH   3   2
TORSDOF 7
ENDMDL
MODEL 8
REMARK VINA RESULT:     -10.2      1.796      3.705
REMARK  Name = 
REMARK  7 active torsions:
REMARK  status: ('A' for Active; 'I' for Inactive)
REMARK    1  A    between atoms: C_2  and  C_3
REMARK    2  A    between atoms: C_2  and  C_24
REMARK    3  A    between atoms: C_10  and  N_11
REMARK    4  A    between atoms: C_12  and  C_14
REMARK    5  A    between atoms: C_14  and  C_15
REMARK    6  A    between atoms: N_26  and  C_28
REMARK    7  A    between atoms: C_28  and  C_29
REMARK                            x       y       z     vdW  Elec       q    Type
REMARK                         _______ _______ _______ _____ _____    ______ ____
ROOT
ATOM      3  C   UNL     1      -2.218   3.365  25.165  0.00  0.00    +0.039 C 
ATOM      4  C   UNL     1      -1.707   3.599  25.768  0.00  0.00    +0.003 C 
ATOM      5  C   UNL     1      -1.071   3.119  25.980  0.00  0.00    +0.000 C 
ATOM      6  C   UNL     1      -0.947   2.402  25.589  0.00  0.00    +0.002 C 
ATOM      7  C   UNL     1      -0.435   2.638  26.193  0.00  0.00    +0.000 C 
ATOM      8  C   UNL     1      -0.311   1.922  25.803  0.00  0.00    +0.002 C 
ATOM      9  C   UNL     1      -0.187   1.205  25.412  0.00  0.00    +0.022 C 
ATOM     10  C   UNL     1      -0.699   0.970  24.809  0.00  0.00    +0.095 C 
ATOM     19  C   UNL     1      -1.334   1.451  24.597  0.00  0.00    +0.022 C 
ATOM     20  C   UNL     1      -1.845   1.215  23.994  0.00  0.00    +0.002 C 
ATOM     21  C   UNL     1      -1.458   2.167  24.987  0.00  0.00    +0.032 C 
ATOM     22  C   UNL     1      -2.094   2.648  24.774  0.00  0.00    +0.152 C 
ATOM     23  O   UNL     1      -2.606   2.413  24.171  0.00  0.00    -0.223 OA
ENDROOT
BRANCH  10  11
ATOM     11  N   UNL     1      -0.575   0.255  24.419  0.00  0.00    -0.207 NA
ATOM     12  C   UNL     1      -0.663  -0.458  24.826  0.00  0.00    +0.241 C 
ATOM     13  O   UNL     1      -0.876  -0.454  25.624  0.00  0.00    -0.273 OA
BRANCH  12  14
ATOM     14  C   UNL     1      -0.539  -1.175  24.436  0.00  0.00    +0.087 C 
BRANCH  14  15
ATOM     15  C   UNL     1      -0.863  -1.870  24.739  0.00  0.00    +0.009 C 
ATOM     16  C   UNL     1      -1.188  -2.566  25.041  0.00  0.00    +0.000 C 
ATOM     17  C   UNL     1      -0.232  -1.935  25.266  0.00  0.00    +0.000 C 
ATOM     18  C   UNL     1      -1.494  -1.805  24.211  0.00  0.00    +0.000 C 
ENDBRANCH  14  15
ENDBRANCH  12  14
ENDBRANCH  10  11
BRANCH   3   2
ATOM      1  C   UNL     1      -2.797   4.335  24.291  0.00  0.00    +0.010 C 
ATOM      2  C   UNL     1      -2.854   3.845  24.952  0.00  0.00    +0.079 C 
BRANCH   2  24
ATOM     24  C   UNL     1      -3.547   3.836  25.399  0.00  0.00    +0.226 C 
ATOM     25  O   UNL     1      -3.511   3.938  26.218  0.00  0.00    -0.275 OA
ATOM     26  N   UNL     1      -4.276   3.725  25.029  0.00  0.00    -0.274 N 
ATOM     27  C   UNL     1      -4.312   3.623  24.211  0.00  0.00    +0.115 C 
BRANCH  26  28
ATOM     28  C   UNL     1      -4.968   3.716  25.476  0.00  0.00    +0.120 C 
BRANCH  28  29
ATOM     29  C   UNL     1      -5.435   3.036  25.501  0.00  0.00    -0.002 A 
ATOM     30  C   UNL     1      -5.757   2.730  24.806  0.00  0.00    -0.003 A 
ATOM     31  C   UNL     1      -6.224   2.050  24.831  0.00  0.00    -0.000 A 
ATOM     32  C   UNL     1      -6.369   1.676  25.552  0.00  0.00    -0.000 A 
ATOM     33  C   UNL     1      -6.047   1.982  26.248  0.00  0.00    -0.000 A 
ATOM     34  C   UNL     1      -5.581   2.662  26.222  0.00  0.00    -0.003 A 
ENDBRANCH  28  29
ENDBRANCH  26  28
ENDBRANCH   2  24
ENDBRANCH   3   2
TORSDOF 7
ENDMDL
MODEL 9
REMARK VINA RESULT:      -9.7      2.892      4.764
REMARK  Name = 
REMARK  7 active torsions:
REMARK  status: ('A' for Active; 'I' for Inactive)
REMARK    1  A    between atoms: C_2  and  C_3
REMARK    2  A    between atoms: C_2  and  C_24
REMARK    3  A    between atoms: C_10  and  N_11
REMARK    4  A    between atoms: C_12  and  C_14
REMARK    5  A    between atoms: C_14  and  C_15
REMARK    6  A    between atoms: N_26  and  C_28
REMARK    7  A    between atoms: C_28  and  C_29
REMARK                            x       y       z     vdW  Elec       q    Type
REMARK                         _______ _______ _______ _____ _____    ______ ____
ROOT
ATOM      3  C   UNL     1      -2.955  -0.481  24.586  0.00  0.00    +0.039 C 
ATOM      4  C   UNL     1      -2.739  -1.135  25.038  0.00  0.00    +0.003 C 
ATOM      5  C   UNL     1      -1.943  -1.334  25.122  0.00  0.00    +0.000 C 
ATOM      6  C   UNL     1      -1.363  -0.878  24.752  0.00  0.00    +0.002 C 
ATOM      7  C   UNL     1      -1.146  -1.533  25.205  0.00  0.00    +0.000 C 
ATOM      8  C   UNL     1      -0.566  -1.077  24.836  0.00  0.00    +0.002 C 
ATOM      9  C   UNL     1       0.014  -0.621  24.467  0.00  0.00    +0.022 C 
ATOM     10  C   UNL     1      -0.203   0.034  24.014  0.00  0.00    +0.095 C 
ATOM     19  C   UNL     1      -0.999   0.233  23.931  0.00  0.00    +0.022 C 
ATOM     20  C   UNL     1      -1.215   0.888  23.478  0.00  0.00    +0.002 C 
ATOM     21  C   UNL     1      -1.579  -0.223  24.300  0.00  0.00    +0.032 C 
ATOM     22  C   UNL     1      -2.375  -0.024  24.216  0.00  0.00    +0.152 C 
ATOM     23  O   UNL     1      -2.592   0.630  23.764  0.00  0.00    -0.223 OA
ENDROOT
BRANCH  10  11
ATOM     11  N   UNL     1       0.376   0.490  23.645  0.00  0.00    -0.207 NA
ATOM     12  C   UNL     1       0.981   0.123  23.218  0.00  0.00    +0.241 C 
ATOM     13  O   UNL     1       1.004  -0.700  23.161  0.00  0.00    -0.273 OA
BRANCH  12  14
ATOM     14  C   UNL     1       1.561   0.579  22.849  0.00  0.00    +0.087 C 
BRANCH  14  15
ATOM     15  C   UNL     1       2.274   0.232  22.620  0.00  0.00    +0.009 C 
ATOM     16  C   UNL     1       2.987  -0.114  22.392  0.00  0.00    +0.000 C 
ATOM     17  C   UNL     1       1.890  -0.144  21.994  0.00  0.00    +0.000 C 
ATOM     18  C   UNL     1       2.657   0.609  23.247  0.00  0.00    +0.000 C 
ENDBRANCH  14  15
ENDBRANCH  12  14
ENDBRANCH  10  11
BRANCH   3   2
ATOM      1  C   UNL     1      -4.145  -0.444  23.796  0.00  0.00    +0.010 C 
ATOM      2  C   UNL     1      -3.752  -0.282  24.502  0.00  0.00    +0.079 C 
BRANCH   2  24
ATOM     24  C   UNL     1      -4.154   0.080  25.124  0.00  0.00    +0.226 C 
ATOM     25  O   UNL     1      -4.071  -0.209  25.894  0.00  0.00    -0.275 OA
ATOM     26  N   UNL     1      -4.641   0.730  24.979  0.00  0.00    -0.274 N 
ATOM     27  C   UNL     1      -4.725   1.018  24.210  0.00  0.00    +0.115 C 
BRANCH  26  28
ATOM     28  C   UNL     1      -5.044   1.092  25.601  0.00  0.00    +0.120 C 
BRANCH  28  29
ATOM     29  C   UNL     1      -5.209   1.900  25.572  0.00  0.00    -0.002 A 
ATOM     30  C   UNL     1      -5.981   2.160  25.447  0.00  0.00    -0.003 A 
ATOM     31  C   UNL     1      -6.146   2.968  25.419  0.00  0.00    -0.000 A 
ATOM     32  C   UNL     1      -5.537   3.516  25.516  0.00  0.00    -0.000 A 
ATOM     33  C   UNL     1      -4.763   3.256  25.641  0.00  0.00    -0.000 A 
ATOM     34  C   UNL     1      -4.600   2.448  25.669  0.00  0.00    -0.003 A 
ENDBRANCH  28  29
ENDBRANCH  26  28
ENDBRANCH   2  24
ENDBRANCH   3   2
TORSDOF 7
ENDMDL
