MODEL 1
REMARK VINA RESULT:     -10.6      0.000      0.000
REMARK  Name = 
REMARK  9 active torsions:
REMARK  status: ('A' for Active; 'I' for Inactive)
REMARK    1  A    between atoms: S_2  and  C_3
REMARK    2  A    between atoms: C_7  and  N_8
REMARK    3  A    between atoms: N_11  and  C_12
REMARK    4  A    between atoms: C_16  and  C_17
REMARK    5  A    between atoms: N_19  and  C_20
REMARK    6  A    between atoms: C_20  and  C_21
REMARK    7  A    between atoms: C_20  and  C_28
REMARK    8  A    between atoms: C_21  and  C_22
REMARK    9  A    between atoms: C_31  and  C_33
REMARK                            x       y       z     vdW  Elec       q    Type
REMARK                         _______ _______ _______ _____ _____    ______ ____
ROOT
ATOM     12  C   UNL     1      -0.966   0.997  23.920  0.00  0.00    +0.126 C 
ATOM     13  C   UNL     1      -1.001   1.654  23.421  0.00  0.00    +0.045 C 
ATOM     14  C   UNL     1      -1.693   2.069  23.594  0.00  0.00    +0.096 C 
ATOM     15  N   UNL     1      -2.084   1.670  24.201  0.00  0.00    -0.267 N 
ATOM     16  C   UNL     1      -1.635   1.008  24.402  0.00  0.00    +0.174 C 
ATOM     31  C   UNL     1      -2.799   1.893  24.546  0.00  0.00    +0.265 C 
ATOM     32  O   UNL     1      -3.127   1.437  25.151  0.00  0.00    -0.268 OA
ENDROOT
BRANCH  31  33
ATOM     33  C   UNL     1      -3.188   2.573  24.286  0.00  0.00    +0.114 A 
ATOM     34  C   UNL     1      -3.495   2.697  23.529  0.00  0.00    +0.023 A 
ATOM     35  C   UNL     1      -3.835   3.448  23.513  0.00  0.00    +0.020 A 
ATOM     36  C   UNL     1      -3.739   3.789  24.258  0.00  0.00    +0.076 A 
ATOM     37  N   UNL     1      -3.339   3.248  24.736  0.00  0.00    -0.320 N 
ATOM     38  C   UNL     1      -3.128   3.362  25.525  0.00  0.00    +0.131 C 
ENDBRANCH  31  33
BRANCH  12  11
ATOM      8  N   UNL     1       0.873  -0.072  23.431  0.00  0.00    -0.161 NA
ATOM      9  C   UNL     1       0.273   0.494  23.416  0.00  0.00    +0.344 C 
ATOM     10  O   UNL     1       0.312   1.123  22.884  0.00  0.00    -0.249 OA
ATOM     11  N   UNL     1      -0.367   0.432  23.934  0.00  0.00    -0.186 NA
BRANCH   8   7
ATOM      3  C   UNL     1       2.847   0.422  22.641  0.00  0.00    +0.027 A 
ATOM      4  C   UNL     1       2.791   0.117  21.878  0.00  0.00    +0.006 A 
ATOM      5  C   UNL     1       2.094  -0.253  21.631  0.00  0.00    +0.002 A 
ATOM      6  C   UNL     1       1.456  -0.316  22.149  0.00  0.00    +0.017 A 
ATOM      7  C   UNL     1       1.511  -0.010  22.913  0.00  0.00    +0.075 A 
ATOM     39  C   UNL     1       2.208   0.360  23.160  0.00  0.00    +0.023 A 
BRANCH   3   2
ATOM      1  C   UNL     1       4.261   0.390  22.842  0.00  0.00    +0.074 C 
ATOM      2  S   UNL     1       3.542   0.791  22.887  0.00  0.00    -0.113 S 
ENDBRANCH   3   2
ENDBRANCH   8   7
ENDBRANCH  12  11
BRANCH  16  17
ATOM     17  C   UNL     1      -1.822   0.453  24.983  0.00  0.00    +0.262 C 
ATOM     18  O   UNL     1      -1.766   0.656  25.781  0.00  0.00    -0.271 OA
ATOM     19  N   UNL     1      -2.066  -0.306  24.766  0.00  0.00    -0.196 NA
BRANCH  19  20
ATOM     20  C   UNL     1      -2.253  -0.860  25.347  0.00  0.00    +0.179 C 
BRANCH  20  28
ATOM     28  C   UNL     1      -1.654  -1.200  25.802  0.00  0.00    +0.281 C 
ATOM     29  N   UNL     1      -1.628  -1.068  26.616  0.00  0.00    -0.086 NA
ATOM     30  O   UNL     1      -1.081  -1.672  25.442  0.00  0.00    -0.270 OA
ENDBRANCH  20  28
BRANCH  20  21
ATOM     21  C   UNL     1      -3.039  -1.075  25.474  0.00  0.00    +0.057 C 
BRANCH  21  22
ATOM     22  C   UNL     1      -3.416  -1.589  24.950  0.00  0.00    -0.020 A 
ATOM     23  C   UNL     1      -3.938  -1.292  24.385  0.00  0.00    -0.004 A 
ATOM     24  C   UNL     1      -4.315  -1.806  23.861  0.00  0.00    -0.000 A 
ATOM     25  C   UNL     1      -4.170  -2.617  23.903  0.00  0.00    -0.000 A 
ATOM     26  C   UNL     1      -3.648  -2.914  24.469  0.00  0.00    -0.000 A 
ATOM     27  C   UNL     1      -3.271  -2.400  24.992  0.00  0.00    -0.004 A 
ENDBRANCH  21  22
ENDBRANCH  20  21
ENDBRANCH  19  20
ENDBRANCH  16  17
TORSDOF 9
ENDMDL
MODEL 2
REMARK VINA RESULT:      -9.9      1.065      3.459
REMARK  Name = 
REMARK  9 active torsions:
REMARK  status: ('A' for Active; 'I' for Inactive)
REMARK    1  A    between atoms: S_2  and  C_3
REMARK    2  A    between atoms: C_7  and  N_8
REMARK    3  A    between atoms: N_11  and  C_12
REMARK    4  A    between atoms: C_16  and  C_17
REMARK    5  A    between atoms: N_19  and  C_20
REMARK    6  A    between atoms: C_20  and  C_21
REMARK    7  A    between atoms: C_20  and  C_28
REMARK    8  A    between atoms: C_21  and  C_22
REMARK    9  A    between atoms: C_31  and  C_33
REMARK                            x       y       z     vdW  Elec       q    Type
REMARK                         _______ _______ _______ _____ _____    ______ ____
ROOT
ATOM     12  C   UNL     1      -0.435  -0.035  24.062  0.00  0.00    +0.126 C 
ATOM     13  C   UNL     1      -0.488  -0.799  23.753  0.00  0.00    +0.045 C 
ATOM     14  C   UNL     1      -1.170  -1.151  24.058  0.00  0.00    +0.096 C 
ATOM     15  N   UNL     1      -1.537  -0.605  24.556  0.00  0.00    -0.267 N 
ATOM     16  C   UNL     1      -1.083   0.084  24.558  0.00  0.00    +0.174 C 
ATOM     31  C   UNL     1      -2.236  -0.726  24.977  0.00  0.00    +0.265 C 
ATOM     32  O   UNL     1      -2.540  -0.126  25.456  0.00  0.00    -0.268 OA
ENDROOT
BRANCH  31  33
ATOM     33  C   UNL     1      -2.632  -1.448  24.920  0.00  0.00    +0.114 A 
ATOM     34  C   UNL     1      -2.300  -2.194  25.040  0.00  0.00    +0.023 A 
ATOM     35  C   UNL     1      -2.892  -2.757  24.928  0.00  0.00    +0.020 A 
ATOM     36  C   UNL     1      -3.590  -2.360  24.739  0.00  0.00    +0.076 A 
ATOM     37  N   UNL     1      -3.430  -1.551  24.734  0.00  0.00    -0.320 N 
ATOM     38  C   UNL     1      -3.970  -0.950  24.572  0.00  0.00    +0.131 C 
ENDBRANCH  31  33
BRANCH  12  11
ATOM      8  N   UNL     1       1.431   0.825  23.327  0.00  0.00    -0.161 NA
ATOM      9  C   UNL     1       0.834   0.278  23.486  0.00  0.00    +0.344 C 
ATOM     10  O   UNL     1       0.909  -0.502  23.228  0.00  0.00    -0.249 OA
ATOM     11  N   UNL     1       0.161   0.511  23.904  0.00  0.00    -0.186 NA
BRANCH   8   7
ATOM      3  C   UNL     1       3.524   0.580  22.759  0.00  0.00    +0.027 A 
ATOM      4  C   UNL     1       3.448   0.126  22.075  0.00  0.00    +0.006 A 
ATOM      5  C   UNL     1       2.699  -0.095  21.808  0.00  0.00    +0.002 A 
ATOM      6  C   UNL     1       2.027   0.138  22.225  0.00  0.00    +0.017 A 
ATOM      7  C   UNL     1       2.103   0.592  22.910  0.00  0.00    +0.075 A 
ATOM     39  C   UNL     1       2.852   0.813  23.177  0.00  0.00    +0.023 A 
BRANCH   3   2
ATOM      1  C   UNL     1       4.856   0.229  23.141  0.00  0.00    +0.074 C 
ATOM      2  S   UNL     1       4.273   0.801  23.027  0.00  0.00    -0.113 S 
ENDBRANCH   3   2
ENDBRANCH   8   7
ENDBRANCH  12  11
BRANCH  16  17
ATOM     17  C   UNL     1      -1.248   0.773  24.983  0.00  0.00    +0.262 C 
ATOM     18  O   UNL     1      -1.144   0.788  25.801  0.00  0.00    -0.271 OA
ATOM     19  N   UNL     1      -1.519   1.446  24.588  0.00  0.00    -0.196 NA
BRANCH  19  20
ATOM     20  C   UNL     1      -1.684   2.133  25.012  0.00  0.00    +0.179 C 
BRANCH  20  28
ATOM     28  C   UNL     1      -1.084   2.681  25.160  0.00  0.00    +0.281 C 
ATOM     29  N   UNL     1      -0.872   2.859  25.938  0.00  0.00    -0.086 NA
ATOM     30  O   UNL     1      -0.698   3.049  24.532  0.00  0.00    -0.270 OA
ENDBRANCH  20  28
BRANCH  20  21
ATOM     21  C   UNL     1      -2.448   2.274  25.287  0.00  0.00    +0.057 C 
BRANCH  21  22
ATOM     22  C   UNL     1      -2.977   2.712  24.831  0.00  0.00    -0.020 A 
ATOM     23  C   UNL     1      -3.118   2.501  24.046  0.00  0.00    -0.004 A 
ATOM     24  C   UNL     1      -3.647   2.940  23.589  0.00  0.00    -0.000 A 
ATOM     25  C   UNL     1      -4.036   3.589  23.918  0.00  0.00    -0.000 A 
ATOM     26  C   UNL     1      -3.895   3.800  24.703  0.00  0.00    -0.000 A 
ATOM     27  C   UNL     1      -3.367   3.362  25.159  0.00  0.00    -0.004 A 
ENDBRANCH  21  22
ENDBRANCH  20  21
ENDBRANCH  19  20
ENDBRANCH  16  17
TORSDOF 9
ENDMDL
MODEL 3
REMARK VINA RESULT:      -8.9      1.811      4.673
REMARK  Name = 
REMARK  9 active torsions:
REMARK  status: ('A' for Active; 'I' for Inactive)
REMARK    1  A    between atoms: S_2  and  C_3
REMARK    2  A    between atoms: C_7  and  N_8
REMARK    3  A    between atoms: N_11  and  C_12
REMARK    4  A    between atoms: C_16  and  C_17
REMARK    5  A    between atoms: N_19  and  C_20
REMARK    6  A    between atoms: C_20  and  C_21
REMARK    7  A    between atoms: C_20  and  C_28
REMARK    8  A    between atoms: C_21  and  C_22
REMARK    9  A    between atoms: C_31  and  C_33
REMARK                            x       y       z     vdW  Elec       q    Type
REMARK                         _______ _______ _______ _____ _____    ______ ____
ROOT
ATOM     12  C   UNL     1      -0.562   1.226  24.702  0.00  0.00    +0.126 C 
ATOM     13  C   UNL     1      -0.088   1.714  24.234  0.00  0.00    +0.045 C 
ATOM     14  C   UNL     1       0.386   1.232  23.760  0.00  0.00    +0.096 C 
ATOM     15  N   UNL     1       0.205   0.446  23.936  0.00  0.00    -0.267 N 
ATOM     16  C   UNL     1      -0.381   0.442  24.518  0.00  0.00    +0.174 C 
ATOM     31  C   UNL     1       0.549  -0.219  23.590  0.00  0.00    +0.265 C 
ATOM     32  O   UNL     1       0.311  -0.975  23.823  0.00  0.00    -0.268 OA
ENDROOT
BRANCH  31  33
ATOM     33  C   UNL     1       1.131  -0.130  23.013  0.00  0.00    +0.114 A 
ATOM     34  C   UNL     1       1.871   0.221  23.119  0.00  0.00    +0.023 A 
ATOM     35  C   UNL     1       2.273   0.192  22.400  0.00  0.00    +0.020 A 
ATOM     36  C   UNL     1       1.783  -0.177  21.848  0.00  0.00    +0.076 A 
ATOM     37  N   UNL     1       1.077  -0.376  22.227  0.00  0.00    -0.320 N 
ATOM     38  C   UNL     1       0.431  -0.755  21.881  0.00  0.00    +0.131 C 
ENDBRANCH  31  33
BRANCH  12  11
ATOM      8  N   UNL     1      -2.074   2.442  25.699  0.00  0.00    -0.161 NA
ATOM      9  C   UNL     1      -1.518   2.191  25.144  0.00  0.00    +0.344 C 
ATOM     10  O   UNL     1      -1.361   2.651  24.479  0.00  0.00    -0.249 OA
ATOM     11  N   UNL     1      -1.118   1.477  25.256  0.00  0.00    -0.186 NA
BRANCH   8   7
ATOM      3  C   UNL     1      -3.657   3.866  25.217  0.00  0.00    +0.027 A 
ATOM      4  C   UNL     1      -3.274   4.581  25.365  0.00  0.00    +0.006 A 
ATOM      5  C   UNL     1      -2.490   4.583  25.624  0.00  0.00    +0.002 A 
ATOM      6  C   UNL     1      -2.091   3.871  25.735  0.00  0.00    +0.017 A 
ATOM      7  C   UNL     1      -2.474   3.155  25.588  0.00  0.00    +0.075 A 
ATOM     39  C   UNL     1      -3.258   3.152  25.328  0.00  0.00    +0.023 A 
BRANCH   3   2
ATOM      1  C   UNL     1      -5.046   3.645  25.473  0.00  0.00    +0.074 C 
ATOM      2  S   UNL     1      -4.440   3.864  24.957  0.00  0.00    -0.113 S 
ENDBRANCH   3   2
ENDBRANCH   8   7
ENDBRANCH  12  11
BRANCH  16  17
ATOM     17  C   UNL     1      -0.724  -0.227  24.856  0.00  0.00    +0.262 C 
ATOM     18  O   UNL     1      -0.258  -0.762  25.277  0.00  0.00    -0.271 OA
ATOM     19  N   UNL     1      -1.535  -0.362  24.772  0.00  0.00    -0.196 NA
BRANCH  19  20
ATOM     20  C   UNL     1      -1.878  -1.031  25.110  0.00  0.00    +0.179 C 
BRANCH  20  28
ATOM     28  C   UNL     1      -2.048  -1.045  25.917  0.00  0.00    +0.281 C 
ATOM     29  N   UNL     1      -1.599  -1.516  26.425  0.00  0.00    -0.086 NA
ATOM     30  O   UNL     1      -2.666  -0.589  26.216  0.00  0.00    -0.270 OA
ENDBRANCH  20  28
BRANCH  20  21
ATOM     21  C   UNL     1      -2.052  -1.686  24.640  0.00  0.00    +0.057 C 
BRANCH  21  22
ATOM     22  C   UNL     1      -2.819  -1.799  24.356  0.00  0.00    -0.020 A 
ATOM     23  C   UNL     1      -3.185  -2.534  24.437  0.00  0.00    -0.004 A 
ATOM     24  C   UNL     1      -3.952  -2.646  24.154  0.00  0.00    -0.000 A 
ATOM     25  C   UNL     1      -4.352  -2.023  23.789  0.00  0.00    -0.000 A 
ATOM     26  C   UNL     1      -3.986  -1.289  23.708  0.00  0.00    -0.000 A 
ATOM     27  C   UNL     1      -3.220  -1.176  23.992  0.00  0.00    -0.004 A 
ENDBRANCH  21  22
ENDBRANCH  20  21
ENDBRANCH  19  20
ENDBRANCH  16  17
TORSDOF 9
ENDMDL
MODEL 4
REMARK VINA RESULT:      -8.5      2.762      6.065
REMARK  Name = 
REMARK  9 active torsions:
REMARK  status: ('A' for Active; 'I' for Inactive)
REMARK    1  A    between atoms: S_2  and  C_3
REMARK    2  A    between atoms: C_7  and  N_8
REMARK    3  A    between atoms: N_11  and  C_12
REMARK    4  A    between atoms: C_16  and  C_17
REMARK    5  A    between atoms: N_19  and  C_20
REMARK    6  A    between atoms: C_20  and  C_21
REMARK    7  A    between atoms: C_20  and  C_28
REMARK    8  A    between atoms: C_21  and  C_22
REMARK    9  A    between atoms: C_31  and  C_33
REMARK                            x       y       z     vdW  Elec       q    Type
REMARK                         _______ _______ _______ _____ _____    ______ ____
ROOT
ATOM     12  C   UNL     1      -2.842   0.641  24.210  0.00  0.00    +0.126 C 
ATOM     13  C   UNL     1      -3.234  -0.075  24.330  0.00  0.00    +0.045 C 
ATOM     14  C   UNL     1      -2.665  -0.664  24.432  0.00  0.00    +0.096 C 
ATOM     15  N   UNL     1      -1.921  -0.311  24.375  0.00  0.00    -0.267 N 
ATOM     16  C   UNL     1      -2.031   0.495  24.239  0.00  0.00    +0.174 C 
ATOM     31  C   UNL     1      -1.195  -0.697  24.444  0.00  0.00    +0.265 C 
ATOM     32  O   UNL     1      -0.492  -0.270  24.375  0.00  0.00    -0.268 OA
ENDROOT
BRANCH  31  33
ATOM     33  C   UNL     1      -1.171  -1.510  24.582  0.00  0.00    +0.114 A 
ATOM     34  C   UNL     1      -1.544  -2.090  24.127  0.00  0.00    +0.023 A 
ATOM     35  C   UNL     1      -1.374  -2.825  24.462  0.00  0.00    +0.020 A 
ATOM     36  C   UNL     1      -0.895  -2.699  25.123  0.00  0.00    +0.076 A 
ATOM     37  N   UNL     1      -0.770  -1.887  25.196  0.00  0.00    -0.320 N 
ATOM     38  C   UNL     1      -0.323  -1.517  25.782  0.00  0.00    +0.131 C 
ENDBRANCH  31  33
BRANCH  12  11
ATOM      8  N   UNL     1      -4.246   2.304  24.366  0.00  0.00    -0.161 NA
ATOM      9  C   UNL     1      -3.889   1.571  24.491  0.00  0.00    +0.344 C 
ATOM     10  O   UNL     1      -4.222   1.035  25.023  0.00  0.00    -0.249 OA
ATOM     11  N   UNL     1      -3.199   1.373  24.085  0.00  0.00    -0.186 NA
BRANCH   8   7
ATOM      3  C   UNL     1      -5.674   3.415  25.587  0.00  0.00    +0.027 A 
ATOM      4  C   UNL     1      -6.317   2.898  25.585  0.00  0.00    +0.006 A 
ATOM      5  C   UNL     1      -6.269   2.182  25.176  0.00  0.00    +0.002 A 
ATOM      6  C   UNL     1      -5.579   1.985  24.770  0.00  0.00    +0.017 A 
ATOM      7  C   UNL     1      -4.936   2.502  24.772  0.00  0.00    +0.075 A 
ATOM     39  C   UNL     1      -4.984   3.218  25.181  0.00  0.00    +0.023 A 
BRANCH   3   2
ATOM      1  C   UNL     1      -6.005   4.805  25.616  0.00  0.00    +0.074 C 
ATOM      2  S   UNL     1      -5.722   4.130  25.996  0.00  0.00    -0.113 S 
ENDBRANCH   3   2
ENDBRANCH   8   7
ENDBRANCH  12  11
BRANCH  16  17
ATOM     17  C   UNL     1      -1.434   1.057  24.146  0.00  0.00    +0.262 C 
ATOM     18  O   UNL     1      -1.012   1.098  23.438  0.00  0.00    -0.271 OA
ATOM     19  N   UNL     1      -1.259   1.578  24.763  0.00  0.00    -0.196 NA
BRANCH  19  20
ATOM     20  C   UNL     1      -0.662   2.139  24.670  0.00  0.00    +0.179 C 
BRANCH  20  28
ATOM     28  C   UNL     1       0.065   2.036  25.048  0.00  0.00    +0.281 C 
ATOM     29  N   UNL     1       0.762   2.034  24.607  0.00  0.00    -0.086 NA
ATOM     30  O   UNL     1       0.093   1.934  25.866  0.00  0.00    -0.270 OA
ENDBRANCH  20  28
BRANCH  20  21
ATOM     21  C   UNL     1      -0.791   2.804  24.200  0.00  0.00    +0.057 C 
BRANCH  21  22
ATOM     22  C   UNL     1      -0.962   3.531  24.552  0.00  0.00    -0.020 A 
ATOM     23  C   UNL     1      -1.396   3.558  25.253  0.00  0.00    -0.004 A 
ATOM     24  C   UNL     1      -1.567   4.285  25.605  0.00  0.00    -0.000 A 
ATOM     25  C   UNL     1      -1.304   4.984  25.254  0.00  0.00    -0.000 A 
ATOM     26  C   UNL     1      -0.871   4.957  24.553  0.00  0.00    -0.000 A 
ATOM     27  C   UNL     1      -0.700   4.231  24.202  0.00  0.00    -0.004 A 
ENDBRANCH  21  22
ENDBRANCH  20  21
ENDBRANCH  19  20
ENDBRANCH  16  17
TORSDOF 9
ENDMDL
MODEL 5
REMARK VINA RESULT:      -7.3     13.901     17.279
REMARK  Name = 
REMARK  9 active torsions:
REMARK  status: ('A' for Active; 'I' for Inactive)
REMARK    1  A    between atoms: S_2  and  C_3
REMARK    2  A    between atoms: C_7  and  N_8
REMARK    3  A    between atoms: N_11  and  C_12
REMARK    4  A    between atoms: C_16  and  C_17
REMARK    5  A    between atoms: N_19  and  C_20
REMARK    6  A    between atoms: C_20  and  C_21
REMARK    7  A    between atoms: C_20  and  C_28
REMARK    8  A    between atoms: C_21  and  C_22
REMARK    9  A    between atoms: C_31  and  C_33
REMARK                            x       y       z     vdW  Elec       q    Type
REMARK                         _______ _______ _______ _____ _____    ______ ____
ROOT
ATOM     12  C   UNL     1      13.263   7.851  20.676  0.00  0.00    +0.126 C 
ATOM     13  C   UNL     1      13.194   7.504  21.422  0.00  0.00    +0.045 C 
ATOM     14  C   UNL     1      12.390   7.437  21.599  0.00  0.00    +0.096 C 
ATOM     15  N   UNL     1      11.963   7.743  20.963  0.00  0.00    -0.267 N 
ATOM     16  C   UNL     1      12.502   7.999  20.393  0.00  0.00    +0.174 C 
ATOM     31  C   UNL     1      11.141   7.785  20.906  0.00  0.00    +0.265 C 
ATOM     32  O   UNL     1      10.790   8.107  20.232  0.00  0.00    -0.268 OA
ENDROOT
BRANCH  31  33
ATOM     33  C   UNL     1      10.670   7.505  21.523  0.00  0.00    +0.114 A 
ATOM     34  C   UNL     1      10.524   6.712  21.700  0.00  0.00    +0.023 A 
ATOM     35  C   UNL     1      10.026   6.686  22.357  0.00  0.00    +0.020 A 
ATOM     36  C   UNL     1       9.864   7.462  22.586  0.00  0.00    +0.076 A 
ATOM     37  N   UNL     1      10.262   7.968  22.071  0.00  0.00    -0.320 N 
ATOM     38  C   UNL     1      10.253   8.792  22.097  0.00  0.00    +0.131 C 
ENDBRANCH  31  33
BRANCH  12  11
ATOM      8  N   UNL     1      15.355   7.759  20.063  0.00  0.00    -0.161 NA
ATOM      9  C   UNL     1      14.649   7.589  20.455  0.00  0.00    +0.344 C 
ATOM     10  O   UNL     1      14.625   6.987  21.019  0.00  0.00    -0.249 OA
ATOM     11  N   UNL     1      13.967   8.021  20.284  0.00  0.00    -0.186 NA
BRANCH   8   7
ATOM      3  C   UNL     1      17.002   6.340  19.863  0.00  0.00    +0.027 A 
ATOM      4  C   UNL     1      17.399   6.461  20.575  0.00  0.00    +0.006 A 
ATOM      5  C   UNL     1      17.114   7.014  21.118  0.00  0.00    +0.002 A 
ATOM      6  C   UNL     1      16.433   7.446  20.947  0.00  0.00    +0.017 A 
ATOM      7  C   UNL     1      16.036   7.326  20.234  0.00  0.00    +0.075 A 
ATOM     39  C   UNL     1      16.321   6.773  19.691  0.00  0.00    +0.023 A 
BRANCH   3   2
ATOM      1  C   UNL     1      16.985   5.769  18.553  0.00  0.00    +0.074 C 
ATOM      2  S   UNL     1      17.287   5.788  19.321  0.00  0.00    -0.113 S 
ENDBRANCH   3   2
ENDBRANCH   8   7
ENDBRANCH  12  11
BRANCH  16  17
ATOM     17  C   UNL     1      12.314   8.343  19.666  0.00  0.00    +0.262 C 
ATOM     18  O   UNL     1      11.965   9.090  19.642  0.00  0.00    -0.271 OA
ATOM     19  N   UNL     1      12.475   7.938  18.965  0.00  0.00    -0.196 NA
BRANCH  19  20
ATOM     20  C   UNL     1      12.286   8.282  18.239  0.00  0.00    +0.179 C 
BRANCH  20  28
ATOM     28  C   UNL     1      11.653   7.991  17.797  0.00  0.00    +0.281 C 
ATOM     29  N   UNL     1      11.639   7.199  17.567  0.00  0.00    -0.086 NA
ATOM     30  O   UNL     1      11.035   8.494  17.584  0.00  0.00    -0.270 OA
ENDBRANCH  20  28
BRANCH  20  21
ATOM     21  C   UNL     1      12.731   8.916  17.956  0.00  0.00    +0.057 C 
BRANCH  21  22
ATOM     22  C   UNL     1      13.213   8.818  17.293  0.00  0.00    -0.020 A 
ATOM     23  C   UNL     1      13.945   8.445  17.366  0.00  0.00    -0.004 A 
ATOM     24  C   UNL     1      14.426   8.348  16.702  0.00  0.00    -0.000 A 
ATOM     25  C   UNL     1      14.175   8.623  15.967  0.00  0.00    -0.000 A 
ATOM     26  C   UNL     1      13.443   8.996  15.894  0.00  0.00    -0.000 A 
ATOM     27  C   UNL     1      12.962   9.094  16.556  0.00  0.00    -0.004 A 
ENDBRANCH  21  22
ENDBRANCH  20  21
ENDBRANCH  19  20
ENDBRANCH  16  17
TORSDOF 9
ENDMDL
