MODEL 1
REMARK VINA RESULT:      -9.3      0.000      0.000
REMARK  Name = 
REMARK  3 active torsions:
REMARK  status: ('A' for Active; 'I' for Inactive)
REMARK    1  A    between atoms: N_4  and  C_5
REMARK    2  A    between atoms: C_8  and  C_11
REMARK    3  A    between atoms: CA_17  and  C_18
REMARK                            x       y       z     vdW  Elec       q    Type
REMARK                         _______ _______ _______ _____ _____    ______ ____
ROOT
ATOM      5  C   UNL     1      -3.969  -1.001  24.601  0.00  0.00    +0.073 A 
ATOM      6  C   UNL     1      -3.940  -0.624  25.334  0.00  0.00    +0.016 A 
ATOM      7  C   UNL     1      -3.891   0.199  25.373  0.00  0.00    -0.001 A 
ATOM      8  C   UNL     1      -3.872   0.645  24.679  0.00  0.00    +0.006 A 
ATOM      9  C   UNL     1      -3.902   0.267  23.945  0.00  0.00    -0.001 A 
ATOM     10  C   UNL     1      -3.951  -0.556  23.906  0.00  0.00    +0.016 A 
ENDROOT
BRANCH   8  11
ATOM     11  C   UNL     1      -3.823   1.466  24.718  0.00  0.00    +0.160 C 
ATOM     12  O   UNL     1      -3.089   1.839  24.676  0.00  0.00    -0.341 OA
ATOM     13  C   UNL     1      -3.040   2.662  24.715  0.00  0.00    +0.229 C 
ATOM     14  C   UNL     1      -3.726   3.112  24.796  0.00  0.00    +0.272 C 
ATOM     15  O   UNL     1      -3.677   3.935  24.835  0.00  0.00    -0.271 OA
ATOM     16  N   UNL     1      -4.462   2.740  24.839  0.00  0.00    -0.199 NA
ATOM     17  CA  UNL     1      -4.510   1.917  24.800  0.00  0.00    +0.159 C 
BRANCH  17  18
ATOM     18  C   UNL     1      -5.246   1.545  24.842  0.00  0.00    +0.206 C 
ATOM     19  O   UNL     1      -5.933   1.995  24.905  0.00  0.00    -0.218 OA
ENDBRANCH  17  18
ENDBRANCH   8  11
BRANCH   5   4
ATOM      1  C   UNL     1      -3.377  -3.100  24.506  0.00  0.00    +0.097 C 
ATOM      2  C   UNL     1      -3.329  -2.277  24.545  0.00  0.00    +0.246 C 
ATOM      3  O   UNL     1      -2.591  -1.909  24.567  0.00  0.00    -0.273 OA
ATOM      4  N   UNL     1      -4.018  -1.824  24.562  0.00  0.00    -0.179 NA
ENDBRANCH   5   4
TORSDOF 3
ENDMDL
MODEL 2
REMARK VINA RESULT:      -9.2      1.032      4.167
REMARK  Name = 
REMARK  3 active torsions:
REMARK  status: ('A' for Active; 'I' for Inactive)
REMARK    1  A    between atoms: N_4  and  C_5
REMARK    2  A    between atoms: C_8  and  C_11
REMARK    3  A    between atoms: CA_17  and  C_18
REMARK                            x       y       z     vdW  Elec       q    Type
REMARK                         _______ _______ _______ _____ _____    ______ ____
ROOT
ATOM      5  C   UNL     1      -4.158   1.699  24.424  0.00  0.00    +0.073 A 
ATOM      6  C   UNL     1      -3.637   1.352  23.887  0.00  0.00    +0.016 A 
ATOM      7  C   UNL     1      -3.543   0.532  23.874  0.00  0.00    -0.001 A 
ATOM      8  C   UNL     1      -3.970   0.060  24.398  0.00  0.00    +0.006 A 
ATOM      9  C   UNL     1      -4.492   0.407  24.936  0.00  0.00    -0.001 A 
ATOM     10  C   UNL     1      -4.585   1.227  24.949  0.00  0.00    +0.016 A 
ENDROOT
BRANCH   8  11
ATOM     11  C   UNL     1      -3.876  -0.759  24.386  0.00  0.00    +0.160 C 
ATOM     12  O   UNL     1      -4.344  -1.221  23.887  0.00  0.00    -0.341 OA
ATOM     13  C   UNL     1      -4.250  -2.040  23.875  0.00  0.00    +0.229 C 
ATOM     14  C   UNL     1      -3.689  -2.398  24.361  0.00  0.00    +0.272 C 
ATOM     15  O   UNL     1      -3.595  -3.219  24.348  0.00  0.00    -0.271 OA
ATOM     16  N   UNL     1      -3.220  -1.937  24.860  0.00  0.00    -0.199 NA
ATOM     17  CA  UNL     1      -3.314  -1.118  24.873  0.00  0.00    +0.159 C 
BRANCH  17  18
ATOM     18  C   UNL     1      -2.845  -0.656  25.372  0.00  0.00    +0.206 C 
ATOM     19  O   UNL     1      -2.269  -1.011  25.842  0.00  0.00    -0.218 OA
ENDBRANCH  17  18
ENDBRANCH   8  11
BRANCH   5   4
ATOM      1  C   UNL     1      -3.829   3.806  24.892  0.00  0.00    +0.097 C 
ATOM      2  C   UNL     1      -3.736   2.986  24.879  0.00  0.00    +0.246 C 
ATOM      3  O   UNL     1      -3.125   2.635  25.309  0.00  0.00    -0.273 OA
ATOM      4  N   UNL     1      -4.252   2.519  24.436  0.00  0.00    -0.179 NA
ENDBRANCH   5   4
TORSDOF 3
ENDMDL
