MODEL 1
REMARK VINA RESULT:     -10.5      0.000      0.000
REMARK  Name = 
REMARK  9 active torsions:
REMARK  status: ('A' for Active; 'I' for Inactive)
REMARK    1  A    between atoms: C_2  and  C_4
REMARK    2  A    between atoms: C_4  and  C_5
REMARK    3  A    between atoms: C_5  and  N_6
REMARK    4  A    between atoms: C_7  and  C_9
REMARK    5  A    between atoms: C_11  and  N_12
REMARK    6  A    between atoms: C_13  and  C_15
REMARK    7  A    between atoms: C_15  and  C_16
REMARK    8  A    between atoms: C_16  and  C_17
REMARK    9  A    between atoms: C_17  and  C_18
REMARK                            x       y       z     vdW  Elec       q    Type
REMARK                         _______ _______ _______ _____ _____    ______ ____
ROOT
ATOM      9  C   UNL     1      -3.962   2.292  24.644  0.00  0.00    +0.033 C 
ATOM     10  C   UNL     1      -3.741   1.553  24.937  0.00  0.00    -0.002 C 
ATOM     11  C   UNL     1      -4.319   1.004  25.151  0.00  0.00    +0.150 C 
ATOM     25  C   UNL     1      -5.118   1.195  25.073  0.00  0.00    +0.206 C 
ATOM     26  O   UNL     1      -5.695   0.646  25.287  0.00  0.00    -0.218 OA
ATOM     27  C   UNL     1      -5.338   1.934  24.780  0.00  0.00    +0.189 C 
ATOM     28  O   UNL     1      -6.138   2.124  24.702  0.00  0.00    -0.220 OA
ATOM     29  C   UNL     1      -4.761   2.482  24.566  0.00  0.00    +0.066 C 
ENDROOT
BRANCH   9   7
ATOM      6  N   UNL     1      -2.956   3.237  25.012  0.00  0.00    -0.201 NA
ATOM      7  C   UNL     1      -3.384   2.840  24.429  0.00  0.00    +0.261 C 
ATOM      8  O   UNL     1      -3.235   2.992  23.633  0.00  0.00    -0.269 OA
BRANCH   6   5
ATOM      5  C   UNL     1      -2.378   3.786  24.798  0.00  0.00    +0.125 C 
BRANCH   5   4
ATOM      4  C   UNL     1      -1.959   4.192  25.381  0.00  0.00    +0.112 C 
BRANCH   4   2
ATOM      1  N   UNL     1      -1.408   5.481  25.103  0.00  0.00    -0.088 NA
ATOM      2  C   UNL     1      -1.315   4.664  25.172  0.00  0.00    +0.263 C 
ATOM      3  O   UNL     1      -0.579   4.320  25.034  0.00  0.00    -0.272 OA
ENDBRANCH   4   2
ENDBRANCH   5   4
ENDBRANCH   6   5
ENDBRANCH   9   7
BRANCH  11  12
ATOM     12  N   UNL     1      -4.097   0.266  25.444  0.00  0.00    -0.200 NA
ATOM     13  C   UNL     1      -3.646  -0.244  24.979  0.00  0.00    +0.242 C 
ATOM     14  O   UNL     1      -3.416  -0.016  24.220  0.00  0.00    -0.273 OA
BRANCH  13  15
ATOM     15  C   UNL     1      -3.424  -0.983  25.272  0.00  0.00    +0.087 C 
BRANCH  15  16
ATOM     16  C   UNL     1      -2.817  -1.407  24.908  0.00  0.00    +0.019 C 
ATOM     21  C   UNL     1      -2.326  -0.947  25.387  0.00  0.00    +0.001 C 
ATOM     22  C   UNL     1      -1.546  -1.164  25.234  0.00  0.00    +0.000 C 
ATOM     23  C   UNL     1      -1.553  -1.758  24.661  0.00  0.00    +0.000 C 
ATOM     24  C   UNL     1      -2.339  -1.907  24.460  0.00  0.00    +0.001 C 
BRANCH  16  17
ATOM     17  C   UNL     1      -3.434  -1.777  24.506  0.00  0.00    +0.115 C 
BRANCH  17  18
ATOM     18  C   UNL     1      -3.605  -2.571  24.653  0.00  0.00    +0.365 C 
ATOM     19  O   UNL     1      -3.766  -3.082  24.026  0.00  0.00    -0.246 OA
ATOM     20  O   UNL     1      -3.615  -2.853  25.428  0.00  0.00    -0.246 OA
ENDBRANCH  17  18
ENDBRANCH  16  17
ENDBRANCH  15  16
ENDBRANCH  13  15
ENDBRANCH  11  12
TORSDOF 9
ENDMDL
MODEL 2
REMARK VINA RESULT:     -10.3      1.341      4.922
REMARK  Name = 
REMARK  9 active torsions:
REMARK  status: ('A' for Active; 'I' for Inactive)
REMARK    1  A    between atoms: C_2  and  C_4
REMARK    2  A    between atoms: C_4  and  C_5
REMARK    3  A    between atoms: C_5  and  N_6
REMARK    4  A    between atoms: C_7  and  C_9
REMARK    5  A    between atoms: C_11  and  N_12
REMARK    6  A    between atoms: C_13  and  C_15
REMARK    7  A    between atoms: C_15  and  C_16
REMARK    8  A    between atoms: C_16  and  C_17
REMARK    9  A    between atoms: C_17  and  C_18
REMARK                            x       y       z     vdW  Elec       q    Type
REMARK                         _______ _______ _______ _____ _____    ______ ____
ROOT
ATOM      9  C   UNL     1      -4.210   1.315  24.622  0.00  0.00    +0.033 C 
ATOM     10  C   UNL     1      -3.595   1.710  25.004  0.00  0.00    -0.002 C 
ATOM     11  C   UNL     1      -3.741   2.428  25.385  0.00  0.00    +0.150 C 
ATOM     25  C   UNL     1      -4.500   2.750  25.383  0.00  0.00    +0.206 C 
ATOM     26  O   UNL     1      -4.645   3.467  25.764  0.00  0.00    -0.218 OA
ATOM     27  C   UNL     1      -5.115   2.354  25.000  0.00  0.00    +0.189 C 
ATOM     28  O   UNL     1      -5.875   2.676  24.999  0.00  0.00    -0.220 OA
ATOM     29  C   UNL     1      -4.970   1.637  24.620  0.00  0.00    +0.066 C 
ENDROOT
BRANCH   9   7
ATOM      6  N   UNL     1      -4.122  -0.111  24.661  0.00  0.00    -0.201 NA
ATOM      7  C   UNL     1      -4.065   0.597  24.241  0.00  0.00    +0.261 C 
ATOM      8  O   UNL     1      -3.862   0.588  23.442  0.00  0.00    -0.269 OA
BRANCH   6   5
ATOM      5  C   UNL     1      -3.976  -0.829  24.280  0.00  0.00    +0.125 C 
BRANCH   5   4
ATOM      4  C   UNL     1      -3.969  -1.530  24.713  0.00  0.00    +0.112 C 
BRANCH   4   2
ATOM      1  N   UNL     1      -3.041  -2.583  24.443  0.00  0.00    -0.088 NA
ATOM      2  C   UNL     1      -3.785  -2.243  24.339  0.00  0.00    +0.263 C 
ATOM      3  O   UNL     1      -4.346  -2.616  23.863  0.00  0.00    -0.272 OA
ENDBRANCH   4   2
ENDBRANCH   5   4
ENDBRANCH   6   5
ENDBRANCH   9   7
BRANCH  11  12
ATOM     12  N   UNL     1      -3.126   2.824  25.767  0.00  0.00    -0.200 NA
ATOM     13  C   UNL     1      -2.474   3.087  25.337  0.00  0.00    +0.242 C 
ATOM     14  O   UNL     1      -2.435   2.955  24.524  0.00  0.00    -0.273 OA
BRANCH  13  15
ATOM     15  C   UNL     1      -1.859   3.482  25.720  0.00  0.00    +0.087 C 
BRANCH  15  16
ATOM     16  C   UNL     1      -1.261   3.841  25.279  0.00  0.00    +0.019 C 
ATOM     21  C   UNL     1      -1.718   4.522  25.374  0.00  0.00    +0.001 C 
ATOM     22  C   UNL     1      -1.334   5.142  24.991  0.00  0.00    +0.000 C 
ATOM     23  C   UNL     1      -0.638   4.846  24.659  0.00  0.00    +0.000 C 
ATOM     24  C   UNL     1      -0.594   4.042  24.837  0.00  0.00    +0.001 C 
BRANCH  16  17
ATOM     17  C   UNL     1      -0.929   3.086  25.276  0.00  0.00    +0.115 C 
BRANCH  17  18
ATOM     18  C   UNL     1      -0.220   2.946  25.675  0.00  0.00    +0.365 C 
ATOM     19  O   UNL     1      -0.186   3.024  26.496  0.00  0.00    -0.246 OA
ATOM     20  O   UNL     1       0.454   2.726  25.254  0.00  0.00    -0.246 OA
ENDBRANCH  17  18
ENDBRANCH  16  17
ENDBRANCH  15  16
ENDBRANCH  13  15
ENDBRANCH  11  12
TORSDOF 9
ENDMDL
MODEL 3
REMARK VINA RESULT:     -10.0      1.903      3.243
REMARK  Name = 
REMARK  9 active torsions:
REMARK  status: ('A' for Active; 'I' for Inactive)
REMARK    1  A    between atoms: C_2  and  C_4
REMARK    2  A    between atoms: C_4  and  C_5
REMARK    3  A    between atoms: C_5  and  N_6
REMARK    4  A    between atoms: C_7  and  C_9
REMARK    5  A    between atoms: C_11  and  N_12
REMARK    6  A    between atoms: C_13  and  C_15
REMARK    7  A    between atoms: C_15  and  C_16
REMARK    8  A    between atoms: C_16  and  C_17
REMARK    9  A    between atoms: C_17  and  C_18
REMARK                            x       y       z     vdW  Elec       q    Type
REMARK                         _______ _______ _______ _____ _____    ______ ____
ROOT
ATOM      9  C   UNL     1      -0.191   1.272  24.642  0.00  0.00    +0.033 C 
ATOM     10  C   UNL     1      -0.753   0.738  24.925  0.00  0.00    -0.002 C 
ATOM     11  C   UNL     1      -0.776  -0.032  24.628  0.00  0.00    +0.150 C 
ATOM     25  C   UNL     1      -0.237  -0.268  24.049  0.00  0.00    +0.206 C 
ATOM     26  O   UNL     1      -0.260  -1.037  23.754  0.00  0.00    -0.218 OA
ATOM     27  C   UNL     1       0.324   0.267  23.767  0.00  0.00    +0.189 C 
ATOM     28  O   UNL     1       0.864   0.031  23.188  0.00  0.00    -0.220 OA
ATOM     29  C   UNL     1       0.348   1.036  24.063  0.00  0.00    +0.066 C 
ENDROOT
BRANCH   9   7
ATOM      6  N   UNL     1      -0.689   2.611  24.646  0.00  0.00    -0.201 NA
ATOM      7  C   UNL     1      -0.168   2.042  24.938  0.00  0.00    +0.261 C 
ATOM      8  O   UNL     1       0.374   2.242  25.526  0.00  0.00    -0.269 OA
BRANCH   6   5
ATOM      5  C   UNL     1      -0.666   3.382  24.942  0.00  0.00    +0.125 C 
BRANCH   5   4
ATOM      4  C   UNL     1      -1.205   3.944  24.671  0.00  0.00    +0.112 C 
BRANCH   4   2
ATOM      1  N   UNL     1      -1.885   4.848  25.545  0.00  0.00    -0.088 NA
ATOM      2  C   UNL     1      -1.254   4.680  25.040  0.00  0.00    +0.263 C 
ATOM      3  O   UNL     1      -0.672   5.248  24.905  0.00  0.00    -0.272 OA
ENDBRANCH   4   2
ENDBRANCH   5   4
ENDBRANCH   6   5
ENDBRANCH   9   7
BRANCH  11  12
ATOM     12  N   UNL     1      -1.338  -0.565  24.911  0.00  0.00    -0.200 NA
ATOM     13  C   UNL     1      -2.130  -0.481  24.701  0.00  0.00    +0.242 C 
ATOM     14  O   UNL     1      -2.362   0.138  24.207  0.00  0.00    -0.273 OA
BRANCH  13  15
ATOM     15  C   UNL     1      -2.692  -1.015  24.984  0.00  0.00    +0.087 C 
BRANCH  15  16
ATOM     16  C   UNL     1      -3.477  -0.959  24.736  0.00  0.00    +0.019 C 
ATOM     21  C   UNL     1      -3.508  -0.325  25.263  0.00  0.00    +0.001 C 
ATOM     22  C   UNL     1      -4.270  -0.012  25.241  0.00  0.00    +0.000 C 
ATOM     23  C   UNL     1      -4.712  -0.453  24.700  0.00  0.00    +0.000 C 
ATOM     24  C   UNL     1      -4.221  -1.038  24.388  0.00  0.00    +0.001 C 
BRANCH  16  17
ATOM     17  C   UNL     1      -3.282  -1.604  24.261  0.00  0.00    +0.115 C 
BRANCH  17  18
ATOM     18  C   UNL     1      -3.611  -2.345  24.416  0.00  0.00    +0.365 C 
ATOM     19  O   UNL     1      -3.468  -2.717  25.138  0.00  0.00    -0.246 OA
ATOM     20  O   UNL     1      -4.083  -2.714  23.849  0.00  0.00    -0.246 OA
ENDBRANCH  17  18
ENDBRANCH  16  17
ENDBRANCH  15  16
ENDBRANCH  13  15
ENDBRANCH  11  12
TORSDOF 9
ENDMDL
MODEL 4
REMARK VINA RESULT:      -9.6      2.061      4.367
REMARK  Name = 
REMARK  9 active torsions:
REMARK  status: ('A' for Active; 'I' for Inactive)
REMARK    1  A    between atoms: C_2  and  C_4
REMARK    2  A    between atoms: C_4  and  C_5
REMARK    3  A    between atoms: C_5  and  N_6
REMARK    4  A    between atoms: C_7  and  C_9
REMARK    5  A    between atoms: C_11  and  N_12
REMARK    6  A    between atoms: C_13  and  C_15
REMARK    7  A    between atoms: C_15  and  C_16
REMARK    8  A    between atoms: C_16  and  C_17
REMARK    9  A    between atoms: C_17  and  C_18
REMARK                            x       y       z     vdW  Elec       q    Type
REMARK                         _______ _______ _______ _____ _____    ______ ____
ROOT
ATOM      9  C   UNL     1      -1.985  -0.788  24.636  0.00  0.00    +0.033 C 
ATOM     10  C   UNL     1      -2.562  -0.231  24.444  0.00  0.00    -0.002 C 
ATOM     11  C   UNL     1      -3.360  -0.444  24.451  0.00  0.00    +0.150 C 
ATOM     25  C   UNL     1      -3.579  -1.214  24.649  0.00  0.00    +0.206 C 
ATOM     26  O   UNL     1      -4.376  -1.427  24.655  0.00  0.00    -0.218 OA
ATOM     27  C   UNL     1      -3.001  -1.771  24.840  0.00  0.00    +0.189 C 
ATOM     28  O   UNL     1      -3.221  -2.542  25.039  0.00  0.00    -0.220 OA
ATOM     29  C   UNL     1      -2.205  -1.558  24.834  0.00  0.00    +0.066 C 
ENDROOT
BRANCH   9   7
ATOM      6  N   UNL     1      -0.806  -0.429  23.912  0.00  0.00    -0.201 NA
ATOM      7  C   UNL     1      -1.188  -0.575  24.629  0.00  0.00    +0.261 C 
ATOM      8  O   UNL     1      -0.773  -0.508  25.338  0.00  0.00    -0.269 OA
BRANCH   6   5
ATOM      5  C   UNL     1      -0.009  -0.215  23.906  0.00  0.00    +0.125 C 
BRANCH   5   4
ATOM      4  C   UNL     1       0.393  -0.146  23.189  0.00  0.00    +0.112 C 
BRANCH   4   2
ATOM      1  N   UNL     1       1.764  -0.139  22.786  0.00  0.00    -0.088 NA
ATOM      2  C   UNL     1       1.129   0.228  23.163  0.00  0.00    +0.263 C 
ATOM      3  O   UNL     1       1.227   0.967  23.513  0.00  0.00    -0.272 OA
ENDBRANCH   4   2
ENDBRANCH   5   4
ENDBRANCH   6   5
ENDBRANCH   9   7
BRANCH  11  12
ATOM     12  N   UNL     1      -3.937   0.113  24.259  0.00  0.00    -0.200 NA
ATOM     13  C   UNL     1      -3.994   0.813  24.691  0.00  0.00    +0.242 C 
ATOM     14  O   UNL     1      -3.475   0.956  25.316  0.00  0.00    -0.273 OA
BRANCH  13  15
ATOM     15  C   UNL     1      -4.572   1.370  24.499  0.00  0.00    +0.087 C 
BRANCH  15  16
ATOM     16  C   UNL     1      -4.492   2.152  24.751  0.00  0.00    +0.019 C 
ATOM     21  C   UNL     1      -4.063   2.243  24.052  0.00  0.00    +0.001 C 
ATOM     22  C   UNL     1      -3.812   3.026  24.007  0.00  0.00    +0.000 C 
ATOM     23  C   UNL     1      -4.084   3.421  24.679  0.00  0.00    +0.000 C 
ATOM     24  C   UNL     1      -4.504   2.880  25.139  0.00  0.00    +0.001 C 
BRANCH  16  17
ATOM     17  C   UNL     1      -4.936   1.898  25.397  0.00  0.00    +0.115 C 
BRANCH  17  18
ATOM     18  C   UNL     1      -5.699   2.192  25.515  0.00  0.00    +0.365 C 
ATOM     19  O   UNL     1      -6.297   2.016  24.975  0.00  0.00    -0.246 OA
ATOM     20  O   UNL     1      -5.862   2.662  26.173  0.00  0.00    -0.246 OA
ENDBRANCH  17  18
ENDBRANCH  16  17
ENDBRANCH  15  16
ENDBRANCH  13  15
ENDBRANCH  11  12
TORSDOF 9
ENDMDL
MODEL 5
REMARK VINA RESULT:      -9.6      1.744      3.138
REMARK  Name = 
REMARK  9 active torsions:
REMARK  status: ('A' for Active; 'I' for Inactive)
REMARK    1  A    between atoms: C_2  and  C_4
REMARK    2  A    between atoms: C_4  and  C_5
REMARK    3  A    between atoms: C_5  and  N_6
REMARK    4  A    between atoms: C_7  and  C_9
REMARK    5  A    between atoms: C_11  and  N_12
REMARK    6  A    between atoms: C_13  and  C_15
REMARK    7  A    between atoms: C_15  and  C_16
REMARK    8  A    between atoms: C_16  and  C_17
REMARK    9  A    between atoms: C_17  and  C_18
REMARK                            x       y       z     vdW  Elec       q    Type
REMARK                         _______ _______ _______ _____ _____    ______ ____
ROOT
ATOM      9  C   UNL     1      -1.951   2.765  25.212  0.00  0.00    +0.033 C 
ATOM     10  C   UNL     1      -1.911   1.977  25.450  0.00  0.00    -0.002 C 
ATOM     11  C   UNL     1      -1.268   1.510  25.225  0.00  0.00    +0.150 C 
ATOM     25  C   UNL     1      -0.666   1.833  24.762  0.00  0.00    +0.206 C 
ATOM     26  O   UNL     1      -0.024   1.368  24.538  0.00  0.00    -0.218 OA
ATOM     27  C   UNL     1      -0.708   2.623  24.524  0.00  0.00    +0.189 C 
ATOM     28  O   UNL     1      -0.105   2.946  24.061  0.00  0.00    -0.220 OA
ATOM     29  C   UNL     1      -1.350   3.088  24.749  0.00  0.00    +0.066 C 
ENDROOT
BRANCH   9   7
ATOM      6  N   UNL     1      -3.357   3.022  25.201  0.00  0.00    -0.201 NA
ATOM      7  C   UNL     1      -2.595   3.231  25.437  0.00  0.00    +0.261 C 
ATOM      8  O   UNL     1      -2.475   3.904  25.896  0.00  0.00    -0.269 OA
BRANCH   6   5
ATOM      5  C   UNL     1      -4.000   3.488  25.426  0.00  0.00    +0.125 C 
BRANCH   5   4
ATOM      4  C   UNL     1      -4.760   3.290  25.174  0.00  0.00    +0.112 C 
BRANCH   4   2
ATOM      1  N   UNL     1      -5.746   2.879  26.123  0.00  0.00    -0.088 NA
ATOM      2  C   UNL     1      -5.411   3.466  25.650  0.00  0.00    +0.263 C 
ATOM      3  O   UNL     1      -5.726   4.228  25.653  0.00  0.00    -0.272 OA
ENDBRANCH   4   2
ENDBRANCH   5   4
ENDBRANCH   6   5
ENDBRANCH   9   7
BRANCH  11  12
ATOM     12  N   UNL     1      -1.227   0.722  25.463  0.00  0.00    -0.200 NA
ATOM     13  C   UNL     1      -1.774   0.176  25.177  0.00  0.00    +0.242 C 
ATOM     14  O   UNL     1      -2.363   0.417  24.652  0.00  0.00    -0.273 OA
BRANCH  13  15
ATOM     15  C   UNL     1      -1.733  -0.614  25.416  0.00  0.00    +0.087 C 
BRANCH  15  16
ATOM     16  C   UNL     1      -2.332  -1.140  25.204  0.00  0.00    +0.019 C 
ATOM     21  C   UNL     1      -2.726  -0.821  25.855  0.00  0.00    +0.001 C 
ATOM     22  C   UNL     1      -3.458  -1.193  25.919  0.00  0.00    +0.000 C 
ATOM     23  C   UNL     1      -3.519  -1.744  25.307  0.00  0.00    +0.000 C 
ATOM     24  C   UNL     1      -2.823  -1.711  24.865  0.00  0.00    +0.001 C 
BRANCH  16  17
ATOM     17  C   UNL     1      -1.814  -1.350  24.597  0.00  0.00    +0.115 C 
BRANCH  17  18
ATOM     18  C   UNL     1      -1.448  -2.090  24.604  0.00  0.00    +0.365 C 
ATOM     19  O   UNL     1      -0.871  -2.258  25.168  0.00  0.00    -0.246 OA
ATOM     20  O   UNL     1      -1.660  -2.659  24.047  0.00  0.00    -0.246 OA
ENDBRANCH  17  18
ENDBRANCH  16  17
ENDBRANCH  15  16
ENDBRANCH  13  15
ENDBRANCH  11  12
TORSDOF 9
ENDMDL
MODEL 6
REMARK VINA RESULT:      -9.4      2.173      5.848
REMARK  Name = 
REMARK  9 active torsions:
REMARK  status: ('A' for Active; 'I' for Inactive)
REMARK    1  A    between atoms: C_2  and  C_4
REMARK    2  A    between atoms: C_4  and  C_5
REMARK    3  A    between atoms: C_5  and  N_6
REMARK    4  A    between atoms: C_7  and  C_9
REMARK    5  A    between atoms: C_11  and  N_12
REMARK    6  A    between atoms: C_13  and  C_15
REMARK    7  A    between atoms: C_15  and  C_16
REMARK    8  A    between atoms: C_16  and  C_17
REMARK    9  A    between atoms: C_17  and  C_18
REMARK                            x       y       z     vdW  Elec       q    Type
REMARK                         _______ _______ _______ _____ _____    ______ ____
ROOT
ATOM      9  C   UNL     1      -0.929   0.087  24.889  0.00  0.00    +0.033 C 
ATOM     10  C   UNL     1      -0.932   0.839  25.227  0.00  0.00    -0.002 C 
ATOM     11  C   UNL     1      -0.429   1.425  24.934  0.00  0.00    +0.150 C 
ATOM     25  C   UNL     1       0.076   1.257  24.303  0.00  0.00    +0.206 C 
ATOM     26  O   UNL     1       0.578   1.842  24.011  0.00  0.00    -0.218 OA
ATOM     27  C   UNL     1       0.078   0.504  23.966  0.00  0.00    +0.189 C 
ATOM     28  O   UNL     1       0.584   0.337  23.335  0.00  0.00    -0.220 OA
ATOM     29  C   UNL     1      -0.424  -0.080  24.258  0.00  0.00    +0.066 C 
ENDROOT
BRANCH   9   7
ATOM      6  N   UNL     1      -2.093  -0.729  24.746  0.00  0.00    -0.201 NA
ATOM      7  C   UNL     1      -1.432  -0.498  25.182  0.00  0.00    +0.261 C 
ATOM      8  O   UNL     1      -1.273  -0.852  25.909  0.00  0.00    -0.269 OA
BRANCH   6   5
ATOM      5  C   UNL     1      -2.596  -1.314  25.039  0.00  0.00    +0.125 C 
BRANCH   5   4
ATOM      4  C   UNL     1      -3.359  -1.391  24.736  0.00  0.00    +0.112 C 
BRANCH   4   2
ATOM      1  N   UNL     1      -4.113  -2.306  23.938  0.00  0.00    -0.088 NA
ATOM      2  C   UNL     1      -3.685  -2.142  24.623  0.00  0.00    +0.263 C 
ATOM      3  O   UNL     1      -3.582  -2.726  25.196  0.00  0.00    -0.272 OA
ENDBRANCH   4   2
ENDBRANCH   5   4
ENDBRANCH   6   5
ENDBRANCH   9   7
BRANCH  11  12
ATOM     12  N   UNL     1      -0.432   2.177  25.272  0.00  0.00    -0.200 NA
ATOM     13  C   UNL     1      -1.090   2.665  25.187  0.00  0.00    +0.242 C 
ATOM     14  O   UNL     1      -1.747   2.402  24.763  0.00  0.00    -0.273 OA
BRANCH  13  15
ATOM     15  C   UNL     1      -1.092   3.419  25.525  0.00  0.00    +0.087 C 
BRANCH  15  16
ATOM     16  C   UNL     1      -1.788   3.862  25.541  0.00  0.00    +0.019 C 
ATOM     21  C   UNL     1      -1.967   3.397  26.199  0.00  0.00    +0.001 C 
ATOM     22  C   UNL     1      -2.705   3.631  26.483  0.00  0.00    +0.000 C 
ATOM     23  C   UNL     1      -2.983   4.240  26.000  0.00  0.00    +0.000 C 
ATOM     24  C   UNL     1      -2.416   4.382  25.419  0.00  0.00    +0.001 C 
BRANCH  16  17
ATOM     17  C   UNL     1      -1.464   4.233  24.880  0.00  0.00    +0.115 C 
BRANCH  17  18
ATOM     18  C   UNL     1      -1.132   4.986  24.951  0.00  0.00    +0.365 C 
ATOM     19  O   UNL     1      -1.620   5.647  25.024  0.00  0.00    -0.246 OA
ATOM     20  O   UNL     1      -0.312   5.076  24.949  0.00  0.00    -0.246 OA
ENDBRANCH  17  18
ENDBRANCH  16  17
ENDBRANCH  15  16
ENDBRANCH  13  15
ENDBRANCH  11  12
TORSDOF 9
ENDMDL
MODEL 7
REMARK VINA RESULT:      -9.3      2.605      4.740
REMARK  Name = 
REMARK  9 active torsions:
REMARK  status: ('A' for Active; 'I' for Inactive)
REMARK    1  A    between atoms: C_2  and  C_4
REMARK    2  A    between atoms: C_4  and  C_5
REMARK    3  A    between atoms: C_5  and  N_6
REMARK    4  A    between atoms: C_7  and  C_9
REMARK    5  A    between atoms: C_11  and  N_12
REMARK    6  A    between atoms: C_13  and  C_15
REMARK    7  A    between atoms: C_15  and  C_16
REMARK    8  A    between atoms: C_16  and  C_17
REMARK    9  A    between atoms: C_17  and  C_18
REMARK                            x       y       z     vdW  Elec       q    Type
REMARK                         _______ _______ _______ _____ _____    ______ ____
ROOT
ATOM      9  C   UNL     1      -0.708   3.037  25.053  0.00  0.00    +0.033 C 
ATOM     10  C   UNL     1      -1.456   2.902  25.374  0.00  0.00    -0.002 C 
ATOM     11  C   UNL     1      -1.959   3.538  25.529  0.00  0.00    +0.150 C 
ATOM     25  C   UNL     1      -1.713   4.308  25.363  0.00  0.00    +0.206 C 
ATOM     26  O   UNL     1      -2.216   4.943  25.518  0.00  0.00    -0.218 OA
ATOM     27  C   UNL     1      -0.965   4.442  25.042  0.00  0.00    +0.189 C 
ATOM     28  O   UNL     1      -0.719   5.213  24.876  0.00  0.00    -0.220 OA
ATOM     29  C   UNL     1      -0.462   3.807  24.887  0.00  0.00    +0.066 C 
ENDROOT
BRANCH   9   7
ATOM      6  N   UNL     1      -0.375   1.883  24.279  0.00  0.00    -0.201 NA
ATOM      7  C   UNL     1      -0.205   2.401  24.898  0.00  0.00    +0.261 C 
ATOM      8  O   UNL     1       0.466   2.284  25.361  0.00  0.00    -0.269 OA
BRANCH   6   5
ATOM      5  C   UNL     1       0.128   1.247  24.124  0.00  0.00    +0.125 C 
BRANCH   5   4
ATOM      4  C   UNL     1      -0.083   0.683  23.559  0.00  0.00    +0.112 C 
BRANCH   4   2
ATOM      1  N   UNL     1       0.150  -0.700  23.829  0.00  0.00    -0.088 NA
ATOM      2  C   UNL     1       0.376   0.004  23.464  0.00  0.00    +0.263 C 
ATOM      3  O   UNL     1       1.059   0.029  23.004  0.00  0.00    -0.272 OA
ENDBRANCH   4   2
ENDBRANCH   5   4
ENDBRANCH   6   5
ENDBRANCH   9   7
BRANCH  11  12
ATOM     12  N   UNL     1      -2.707   3.403  25.850  0.00  0.00    -0.200 NA
ATOM     13  C   UNL     1      -3.292   3.044  25.394  0.00  0.00    +0.242 C 
ATOM     14  O   UNL     1      -3.131   2.820  24.617  0.00  0.00    -0.273 OA
BRANCH  13  15
ATOM     15  C   UNL     1      -4.041   2.909  25.716  0.00  0.00    +0.087 C 
BRANCH  15  16
ATOM     16  C   UNL     1      -4.632   2.566  25.254  0.00  0.00    +0.019 C 
ATOM     21  C   UNL     1      -4.211   1.868  25.388  0.00  0.00    +0.001 C 
ATOM     22  C   UNL     1      -4.604   1.255  25.002  0.00  0.00    +0.000 C 
ATOM     23  C   UNL     1      -5.269   1.573  24.629  0.00  0.00    +0.000 C 
ATOM     24  C   UNL     1      -5.285   2.382  24.785  0.00  0.00    +0.001 C 
BRANCH  16  17
ATOM     17  C   UNL     1      -4.929   3.334  25.216  0.00  0.00    +0.115 C 
BRANCH  17  18
ATOM     18  C   UNL     1      -5.556   3.559  25.704  0.00  0.00    +0.365 C 
ATOM     19  O   UNL     1      -5.763   3.091  26.351  0.00  0.00    -0.246 OA
ATOM     20  O   UNL     1      -5.975   4.251  25.543  0.00  0.00    -0.246 OA
ENDBRANCH  17  18
ENDBRANCH  16  17
ENDBRANCH  15  16
ENDBRANCH  13  15
ENDBRANCH  11  12
TORSDOF 9
ENDMDL
