MODEL 1
REMARK VINA RESULT:     -12.3      0.000      0.000
REMARK  Name = 
REMARK  4 active torsions:
REMARK  status: ('A' for Active; 'I' for Inactive)
REMARK    1  A    between atoms: C_4  and  C_14
REMARK    2  A    between atoms: N_5  and  C_6
REMARK    3  A    between atoms: C_6  and  C_7
REMARK    4  A    between atoms: C_16  and  C_19
REMARK                            x       y       z     vdW  Elec       q    Type
REMARK                         _______ _______ _______ _____ _____    ______ ____
ROOT
ATOM      1  O   UNL     1      -5.742   3.352  25.720  0.00  0.00    -0.222 OA
ATOM      2  C   UNL     1      -5.106   2.916  25.426  0.00  0.00    +0.170 C 
ATOM      3  C   UNL     1      -5.143   2.150  25.122  0.00  0.00    +0.060 C 
ATOM      4  C   UNL     1      -4.381   1.931  24.892  0.00  0.00    +0.140 C 
ATOM      5  N   UNL     1      -3.874   2.561  25.054  0.00  0.00    -0.260 NA
ATOM     13  C   UNL     1      -4.323   3.170  25.384  0.00  0.00    +0.106 C 
ENDROOT
BRANCH   4  14
ATOM     14  C   UNL     1      -4.165   1.208  24.558  0.00  0.00    +0.251 A 
ATOM     15  N   UNL     1      -4.156   0.479  24.944  0.00  0.00    -0.190 NA
ATOM     16  C   UNL     1      -3.905  -0.092  24.404  0.00  0.00    +0.203 A 
ATOM     17  N   UNL     1      -3.760   0.283  23.684  0.00  0.00    -0.056 NA
ATOM     18  O   UNL     1      -3.921   1.088  23.779  0.00  0.00    -0.336 OA
BRANCH  16  19
ATOM     19  C   UNL     1      -3.815  -0.898  24.557  0.00  0.00    +0.039 A 
ATOM     20  C   UNL     1      -4.076  -1.454  24.006  0.00  0.00    +0.005 A 
ATOM     21  C   UNL     1      -3.986  -2.259  24.159  0.00  0.00    +0.030 A 
ATOM     22  C   UNL     1      -3.636  -2.509  24.863  0.00  0.00    +0.140 A 
ATOM     23  F   UNL     1      -3.546  -3.315  25.016  0.00  0.00    -0.204 F 
ATOM     24  C   UNL     1      -3.375  -1.954  25.414  0.00  0.00    +0.030 A 
ATOM     25  C   UNL     1      -3.465  -1.147  25.261  0.00  0.00    +0.005 A 
ENDBRANCH  16  19
ENDBRANCH   4  14
BRANCH   5   6
ATOM      6  C   UNL     1      -3.062   2.580  24.911  0.00  0.00    +0.101 C 
BRANCH   6   7
ATOM      7  C   UNL     1      -2.629   3.259  25.084  0.00  0.00    +0.013 A 
ATOM      8  C   UNL     1      -2.210   3.313  25.793  0.00  0.00    +0.000 A 
ATOM      9  C   UNL     1      -1.776   3.994  25.965  0.00  0.00    +0.020 A 
ATOM     10  C   UNL     1      -1.760   4.619  25.429  0.00  0.00    +0.099 A 
ATOM     11  N   UNL     1      -2.179   4.566  24.719  0.00  0.00    -0.243 NA
ATOM     12  C   UNL     1      -2.612   3.886  24.548  0.00  0.00    +0.096 A 
ENDBRANCH   6   7
ENDBRANCH   5   6
TORSDOF 4
ENDMDL
MODEL 2
REMARK VINA RESULT:     -11.7      2.904      5.555
REMARK  Name = 
REMARK  4 active torsions:
REMARK  status: ('A' for Active; 'I' for Inactive)
REMARK    1  A    between atoms: C_4  and  C_14
REMARK    2  A    between atoms: N_5  and  C_6
REMARK    3  A    between atoms: C_6  and  C_7
REMARK    4  A    between atoms: C_16  and  C_19
REMARK                            x       y       z     vdW  Elec       q    Type
REMARK                         _______ _______ _______ _____ _____    ______ ____
ROOT
ATOM      1  O   UNL     1       0.056  -0.947  23.788  0.00  0.00    -0.222 OA
ATOM      2  C   UNL     1      -0.410  -0.426  24.226  0.00  0.00    +0.170 C 
ATOM      3  C   UNL     1      -0.179   0.318  24.498  0.00  0.00    +0.060 C 
ATOM      4  C   UNL     1      -0.815   0.647  24.909  0.00  0.00    +0.140 C 
ATOM      5  N   UNL     1      -1.438   0.106  24.890  0.00  0.00    -0.260 NA
ATOM     13  C   UNL     1      -1.187  -0.557  24.468  0.00  0.00    +0.106 C 
ENDROOT
BRANCH   4  14
ATOM     14  C   UNL     1      -0.826   1.386  25.274  0.00  0.00    +0.251 A 
ATOM     15  N   UNL     1      -1.065   2.095  24.926  0.00  0.00    -0.190 NA
ATOM     16  C   UNL     1      -0.986   2.694  25.489  0.00  0.00    +0.203 A 
ATOM     17  N   UNL     1      -0.699   2.356  26.184  0.00  0.00    -0.056 NA
ATOM     18  O   UNL     1      -0.599   1.547  26.051  0.00  0.00    -0.336 OA
BRANCH  16  19
ATOM     19  C   UNL     1      -1.164   3.492  25.376  0.00  0.00    +0.039 A 
ATOM     20  C   UNL     1      -0.610   3.992  25.024  0.00  0.00    +0.005 A 
ATOM     21  C   UNL     1      -0.788   4.790  24.911  0.00  0.00    +0.030 A 
ATOM     22  C   UNL     1      -1.519   5.087  25.150  0.00  0.00    +0.140 A 
ATOM     23  F   UNL     1      -1.697   5.885  25.038  0.00  0.00    -0.204 F 
ATOM     24  C   UNL     1      -2.073   4.587  25.502  0.00  0.00    +0.030 A 
ATOM     25  C   UNL     1      -1.895   3.789  25.615  0.00  0.00    +0.005 A 
ENDBRANCH  16  19
ENDBRANCH   4  14
BRANCH   5   6
ATOM      6  C   UNL     1      -2.180   0.209  25.233  0.00  0.00    +0.101 C 
BRANCH   6   7
ATOM      7  C   UNL     1      -2.776  -0.346  25.103  0.00  0.00    +0.013 A 
ATOM      8  C   UNL     1      -3.302  -0.247  24.475  0.00  0.00    +0.000 A 
ATOM      9  C   UNL     1      -3.898  -0.803  24.345  0.00  0.00    +0.020 A 
ATOM     10  C   UNL     1      -3.968  -1.457  24.842  0.00  0.00    +0.099 A 
ATOM     11  N   UNL     1      -3.442  -1.556  25.470  0.00  0.00    -0.243 NA
ATOM     12  C   UNL     1      -2.846  -1.000  25.600  0.00  0.00    +0.096 A 
ENDBRANCH   6   7
ENDBRANCH   5   6
TORSDOF 4
ENDMDL
MODEL 3
REMARK VINA RESULT:     -11.6      1.999      2.742
REMARK  Name = 
REMARK  4 active torsions:
REMARK  status: ('A' for Active; 'I' for Inactive)
REMARK    1  A    between atoms: C_4  and  C_14
REMARK    2  A    between atoms: N_5  and  C_6
REMARK    3  A    between atoms: C_6  and  C_7
REMARK    4  A    between atoms: C_16  and  C_19
REMARK                            x       y       z     vdW  Elec       q    Type
REMARK                         _______ _______ _______ _____ _____    ______ ____
ROOT
ATOM      1  O   UNL     1       0.753   1.830  24.131  0.00  0.00    -0.222 OA
ATOM      2  C   UNL     1       0.016   1.627  24.441  0.00  0.00    +0.170 C 
ATOM      3  C   UNL     1      -0.274   0.860  24.536  0.00  0.00    +0.060 C 
ATOM      4  C   UNL     1      -1.030   0.913  24.863  0.00  0.00    +0.140 C 
ATOM      5  N   UNL     1      -1.206   1.712  24.971  0.00  0.00    -0.260 NA
ATOM     13  C   UNL     1      -0.558   2.153  24.709  0.00  0.00    +0.106 C 
ENDROOT
BRANCH   4  14
ATOM     14  C   UNL     1      -1.522   0.279  25.051  0.00  0.00    +0.251 A 
ATOM     15  N   UNL     1      -2.030  -0.111  24.530  0.00  0.00    -0.190 NA
ATOM     16  C   UNL     1      -2.415  -0.708  24.950  0.00  0.00    +0.203 A 
ATOM     17  N   UNL     1      -2.147  -0.687  25.729  0.00  0.00    -0.056 NA
ATOM     18  O   UNL     1      -1.594  -0.077  25.792  0.00  0.00    -0.336 OA
BRANCH  16  19
ATOM     19  C   UNL     1      -2.972  -1.235  24.643  0.00  0.00    +0.039 A 
ATOM     20  C   UNL     1      -2.841  -2.048  24.688  0.00  0.00    +0.005 A 
ATOM     21  C   UNL     1      -3.397  -2.573  24.382  0.00  0.00    +0.030 A 
ATOM     22  C   UNL     1      -4.086  -2.286  24.030  0.00  0.00    +0.140 A 
ATOM     23  F   UNL     1      -4.643  -2.812  23.723  0.00  0.00    -0.204 F 
ATOM     24  C   UNL     1      -4.218  -1.473  23.984  0.00  0.00    +0.030 A 
ATOM     25  C   UNL     1      -3.661  -0.947  24.291  0.00  0.00    +0.005 A 
ENDBRANCH  16  19
ENDBRANCH   4  14
BRANCH   5   6
ATOM      6  C   UNL     1      -1.905   2.017  25.284  0.00  0.00    +0.101 C 
BRANCH   6   7
ATOM      7  C   UNL     1      -2.055   2.827  25.246  0.00  0.00    +0.013 A 
ATOM      8  C   UNL     1      -1.800   3.323  25.854  0.00  0.00    +0.000 A 
ATOM      9  C   UNL     1      -1.952   4.134  25.815  0.00  0.00    +0.020 A 
ATOM     10  C   UNL     1      -2.357   4.448  25.170  0.00  0.00    +0.099 A 
ATOM     11  N   UNL     1      -2.612   3.951  24.561  0.00  0.00    -0.243 NA
ATOM     12  C   UNL     1      -2.461   3.142  24.600  0.00  0.00    +0.096 A 
ENDBRANCH   6   7
ENDBRANCH   5   6
TORSDOF 4
ENDMDL
MODEL 4
REMARK VINA RESULT:     -11.6      2.069      4.721
REMARK  Name = 
REMARK  4 active torsions:
REMARK  status: ('A' for Active; 'I' for Inactive)
REMARK    1  A    between atoms: C_4  and  C_14
REMARK    2  A    between atoms: N_5  and  C_6
REMARK    3  A    between atoms: C_6  and  C_7
REMARK    4  A    between atoms: C_16  and  C_19
REMARK                            x       y       z     vdW  Elec       q    Type
REMARK                         _______ _______ _______ _____ _____    ______ ____
ROOT
ATOM      1  O   UNL     1      -6.333   1.541  25.996  0.00  0.00    -0.222 OA
ATOM      2  C   UNL     1      -5.618   1.586  25.586  0.00  0.00    +0.170 C 
ATOM      3  C   UNL     1      -5.225   2.279  25.373  0.00  0.00    +0.060 C 
ATOM      4  C   UNL     1      -4.535   2.068  24.973  0.00  0.00    +0.140 C 
ATOM      5  N   UNL     1      -4.503   1.244  24.939  0.00  0.00    -0.260 NA
ATOM     13  C   UNL     1      -5.173   0.947  25.318  0.00  0.00    +0.106 C 
ENDROOT
BRANCH   4  14
ATOM     14  C   UNL     1      -3.976   2.588  24.662  0.00  0.00    +0.251 A 
ATOM     15  N   UNL     1      -3.334   2.910  25.068  0.00  0.00    -0.190 NA
ATOM     16  C   UNL     1      -2.922   3.400  24.547  0.00  0.00    +0.203 A 
ATOM     17  N   UNL     1      -3.309   3.380  23.819  0.00  0.00    -0.056 NA
ATOM     18  O   UNL     1      -3.961   2.879  23.890  0.00  0.00    -0.336 OA
BRANCH  16  19
ATOM     19  C   UNL     1      -2.242   3.833  24.723  0.00  0.00    +0.039 A 
ATOM     20  C   UNL     1      -1.498   3.504  24.590  0.00  0.00    +0.005 A 
ATOM     21  C   UNL     1      -0.818   3.937  24.766  0.00  0.00    +0.030 A 
ATOM     22  C   UNL     1      -0.883   4.699  25.075  0.00  0.00    +0.140 A 
ATOM     23  F   UNL     1      -0.204   5.132  25.251  0.00  0.00    -0.204 F 
ATOM     24  C   UNL     1      -1.628   5.028  25.208  0.00  0.00    +0.030 A 
ATOM     25  C   UNL     1      -2.308   4.595  25.032  0.00  0.00    +0.005 A 
ENDBRANCH  16  19
ENDBRANCH   4  14
BRANCH   5   6
ATOM      6  C   UNL     1      -3.906   0.796  24.588  0.00  0.00    +0.101 C 
BRANCH   6   7
ATOM      7  C   UNL     1      -3.901  -0.024  24.672  0.00  0.00    +0.013 A 
ATOM      8  C   UNL     1      -4.228  -0.501  24.084  0.00  0.00    +0.000 A 
ATOM      9  C   UNL     1      -4.223  -1.323  24.169  0.00  0.00    +0.020 A 
ATOM     10  C   UNL     1      -3.892  -1.665  24.842  0.00  0.00    +0.099 A 
ATOM     11  N   UNL     1      -3.565  -1.188  25.430  0.00  0.00    -0.243 NA
ATOM     12  C   UNL     1      -3.570  -0.368  25.345  0.00  0.00    +0.096 A 
ENDBRANCH   6   7
ENDBRANCH   5   6
TORSDOF 4
ENDMDL
MODEL 5
REMARK VINA RESULT:     -11.3      2.223      4.987
REMARK  Name = 
REMARK  4 active torsions:
REMARK  status: ('A' for Active; 'I' for Inactive)
REMARK    1  A    between atoms: C_4  and  C_14
REMARK    2  A    between atoms: N_5  and  C_6
REMARK    3  A    between atoms: C_6  and  C_7
REMARK    4  A    between atoms: C_16  and  C_19
REMARK                            x       y       z     vdW  Elec       q    Type
REMARK                         _______ _______ _______ _____ _____    ______ ____
ROOT
ATOM      1  O   UNL     1      -0.424  -0.346  24.633  0.00  0.00    -0.222 OA
ATOM      2  C   UNL     1      -1.227  -0.163  24.585  0.00  0.00    +0.170 C 
ATOM      3  C   UNL     1      -1.545   0.576  24.400  0.00  0.00    +0.060 C 
ATOM      4  C   UNL     1      -2.368   0.509  24.414  0.00  0.00    +0.140 C 
ATOM      5  N   UNL     1      -2.557  -0.271  24.606  0.00  0.00    -0.260 NA
ATOM     13  C   UNL     1      -1.851  -0.686  24.712  0.00  0.00    +0.106 C 
ENDROOT
BRANCH   4  14
ATOM     14  C   UNL     1      -2.906   1.115  24.261  0.00  0.00    +0.251 A 
ATOM     15  N   UNL     1      -3.344   1.528  24.825  0.00  0.00    -0.190 NA
ATOM     16  C   UNL     1      -3.809   2.084  24.430  0.00  0.00    +0.203 A 
ATOM     17  N   UNL     1      -3.659   2.014  23.622  0.00  0.00    -0.056 NA
ATOM     18  O   UNL     1      -3.100   1.415  23.518  0.00  0.00    -0.336 OA
BRANCH  16  19
ATOM     19  C   UNL     1      -4.333   2.616  24.782  0.00  0.00    +0.039 A 
ATOM     20  C   UNL     1      -5.090   2.368  24.998  0.00  0.00    +0.005 A 
ATOM     21  C   UNL     1      -5.613   2.899  25.349  0.00  0.00    +0.030 A 
ATOM     22  C   UNL     1      -5.380   3.679  25.485  0.00  0.00    +0.140 A 
ATOM     23  F   UNL     1      -5.904   4.211  25.836  0.00  0.00    -0.204 F 
ATOM     24  C   UNL     1      -4.624   3.927  25.269  0.00  0.00    +0.030 A 
ATOM     25  C   UNL     1      -4.100   3.395  24.917  0.00  0.00    +0.005 A 
ENDBRANCH  16  19
ENDBRANCH   4  14
BRANCH   5   6
ATOM      6  C   UNL     1      -3.317  -0.581  24.680  0.00  0.00    +0.101 C 
BRANCH   6   7
ATOM      7  C   UNL     1      -3.432  -1.397  24.683  0.00  0.00    +0.013 A 
ATOM      8  C   UNL     1      -3.641  -1.787  23.986  0.00  0.00    +0.000 A 
ATOM      9  C   UNL     1      -3.755  -2.604  23.989  0.00  0.00    +0.020 A 
ATOM     10  C   UNL     1      -3.660  -3.031  24.687  0.00  0.00    +0.099 A 
ATOM     11  N   UNL     1      -3.450  -2.642  25.384  0.00  0.00    -0.243 NA
ATOM     12  C   UNL     1      -3.336  -1.825  25.381  0.00  0.00    +0.096 A 
ENDBRANCH   6   7
ENDBRANCH   5   6
TORSDOF 4
ENDMDL
MODEL 6
REMARK VINA RESULT:     -11.1      2.719      4.269
REMARK  Name = 
REMARK  4 active torsions:
REMARK  status: ('A' for Active; 'I' for Inactive)
REMARK    1  A    between atoms: C_4  and  C_14
REMARK    2  A    between atoms: N_5  and  C_6
REMARK    3  A    between atoms: C_6  and  C_7
REMARK    4  A    between atoms: C_16  and  C_19
REMARK                            x       y       z     vdW  Elec       q    Type
REMARK                         _______ _______ _______ _____ _____    ______ ____
ROOT
ATOM      1  O   UNL     1       0.421   2.641  26.350  0.00  0.00    -0.222 OA
ATOM      2  C   UNL     1      -0.188   2.435  25.833  0.00  0.00    +0.170 C 
ATOM      3  C   UNL     1      -0.922   2.807  25.776  0.00  0.00    +0.060 C 
ATOM      4  C   UNL     1      -1.357   2.423  25.190  0.00  0.00    +0.140 C 
ATOM      5  N   UNL     1      -0.892   1.814  24.885  0.00  0.00    -0.260 NA
ATOM     13  C   UNL     1      -0.168   1.822  25.283  0.00  0.00    +0.106 C 
ENDROOT
BRANCH   4  14
ATOM     14  C   UNL     1      -2.123   2.614  24.951  0.00  0.00    +0.251 A 
ATOM     15  N   UNL     1      -2.820   2.295  25.255  0.00  0.00    -0.190 NA
ATOM     16  C   UNL     1      -3.455   2.643  24.858  0.00  0.00    +0.203 A 
ATOM     17  N   UNL     1      -3.150   3.176  24.307  0.00  0.00    -0.056 NA
ATOM     18  O   UNL     1      -2.326   3.159  24.365  0.00  0.00    -0.336 OA
BRANCH  16  19
ATOM     19  C   UNL     1      -4.254   2.484  24.988  0.00  0.00    +0.039 A 
ATOM     20  C   UNL     1      -4.715   3.015  25.418  0.00  0.00    +0.005 A 
ATOM     21  C   UNL     1      -5.514   2.857  25.547  0.00  0.00    +0.030 A 
ATOM     22  C   UNL     1      -5.852   2.166  25.247  0.00  0.00    +0.140 A 
ATOM     23  F   UNL     1      -6.651   2.008  25.377  0.00  0.00    -0.204 F 
ATOM     24  C   UNL     1      -5.391   1.635  24.817  0.00  0.00    +0.030 A 
ATOM     25  C   UNL     1      -4.591   1.794  24.687  0.00  0.00    +0.005 A 
ENDBRANCH  16  19
ENDBRANCH   4  14
BRANCH   5   6
ATOM      6  C   UNL     1      -1.110   1.290  24.287  0.00  0.00    +0.101 C 
BRANCH   6   7
ATOM      7  C   UNL     1      -0.673   0.602  24.162  0.00  0.00    +0.013 A 
ATOM      8  C   UNL     1      -0.873  -0.092  24.562  0.00  0.00    +0.000 A 
ATOM      9  C   UNL     1      -0.435  -0.781  24.436  0.00  0.00    +0.020 A 
ATOM     10  C   UNL     1       0.201  -0.776  23.912  0.00  0.00    +0.099 A 
ATOM     11  N   UNL     1       0.400  -0.082  23.512  0.00  0.00    -0.243 NA
ATOM     12  C   UNL     1      -0.037   0.606  23.637  0.00  0.00    +0.096 A 
ENDBRANCH   6   7
ENDBRANCH   5   6
TORSDOF 4
ENDMDL
