MODEL 1
REMARK VINA RESULT:     -10.2      0.000      0.000
REMARK  Name = 
REMARK  4 active torsions:
REMARK  status: ('A' for Active; 'I' for Inactive)
REMARK    1  A    between atoms: N_5  and  C_8
REMARK    2  A    between atoms: C_11  and  C_14
REMARK    3  A    between atoms: C_17  and  C_19
REMARK    4  A    between atoms: N_23  and  C_24
REMARK                            x       y       z     vdW  Elec       q    Type
REMARK                         _______ _______ _______ _____ _____    ______ ____
ROOT
ATOM     14  C   UNL     1      -1.310   0.984  24.666  0.00  0.00    +0.205 A 
ATOM     15  N   UNL     1      -1.443   0.932  25.478  0.00  0.00    -0.056 NA
ATOM     16  O   UNL     1      -2.243   1.073  25.616  0.00  0.00    -0.336 OA
ATOM     17  C   UNL     1      -2.606   1.212  24.887  0.00  0.00    +0.251 A 
ATOM     18  N   UNL     1      -2.029   1.158  24.301  0.00  0.00    -0.190 NA
ENDROOT
BRANCH  14  11
ATOM      8  C   UNL     1       0.864   0.676  23.524  0.00  0.00    +0.132 A 
ATOM      9  C   UNL     1       0.357   0.034  23.626  0.00  0.00    +0.034 A 
ATOM     10  C   UNL     1      -0.368   0.136  24.006  0.00  0.00    +0.008 A 
ATOM     11  C   UNL     1      -0.586   0.881  24.285  0.00  0.00    +0.058 A 
ATOM     12  C   UNL     1      -0.077   1.524  24.184  0.00  0.00    +0.103 A 
ATOM     13  N   UNL     1       0.647   1.421  23.803  0.00  0.00    -0.229 NA
BRANCH   8   5
ATOM      1  C   UNL     1       3.763   0.264  22.002  0.00  0.00    +0.090 C 
ATOM      2  N   UNL     1       3.038   0.367  22.382  0.00  0.00    -0.269 NA
ATOM      3  C   UNL     1       2.964   0.926  22.984  0.00  0.00    +0.094 C 
ATOM      4  C   UNL     1       2.239   1.029  23.364  0.00  0.00    +0.109 C 
ATOM      5  N   UNL     1       1.589   0.573  23.144  0.00  0.00    -0.290 N 
ATOM      6  C   UNL     1       1.663   0.013  22.541  0.00  0.00    +0.109 C 
ATOM      7  C   UNL     1       2.387  -0.090  22.160  0.00  0.00    +0.094 C 
ENDBRANCH   8   5
ENDBRANCH  14  11
BRANCH  17  19
ATOM     19  C   UNL     1      -3.406   1.377  24.768  0.00  0.00    +0.138 C 
ATOM     20  C   UNL     1      -3.743   2.128  24.710  0.00  0.00    +0.027 C 
ATOM     21  C   UNL     1      -4.555   2.033  24.592  0.00  0.00    +0.019 C 
ATOM     22  C   UNL     1      -4.718   1.225  24.579  0.00  0.00    +0.072 C 
ATOM     23  N   UNL     1      -4.009   0.819  24.687  0.00  0.00    -0.268 NA
BRANCH  23  24
ATOM     24  C   UNL     1      -3.917  -0.000  24.711  0.00  0.00    +0.061 C 
ATOM     25  C   UNL     1      -3.884  -0.431  24.008  0.00  0.00    +0.038 C 
ATOM     26  C   UNL     1      -3.792  -1.251  24.031  0.00  0.00    +0.095 C 
ATOM     27  N   UNL     1      -3.732  -1.639  24.756  0.00  0.00    -0.279 N 
ATOM     28  C   UNL     1      -3.764  -1.208  25.459  0.00  0.00    +0.095 C 
ATOM     29  C   UNL     1      -3.857  -0.388  25.436  0.00  0.00    +0.038 C 
ATOM     30  C   UNL     1      -3.640  -2.459  24.779  0.00  0.00    +0.226 C 
ATOM     31  C   UNL     1      -3.607  -2.890  24.076  0.00  0.00    +0.095 C 
ATOM     32  O   UNL     1      -3.580  -2.848  25.504  0.00  0.00    -0.275 OA
ENDBRANCH  23  24
ENDBRANCH  17  19
TORSDOF 4
ENDMDL
MODEL 2
REMARK VINA RESULT:      -9.9      2.779      4.656
REMARK  Name = 
REMARK  4 active torsions:
REMARK  status: ('A' for Active; 'I' for Inactive)
REMARK    1  A    between atoms: N_5  and  C_8
REMARK    2  A    between atoms: C_11  and  C_14
REMARK    3  A    between atoms: C_17  and  C_19
REMARK    4  A    between atoms: N_23  and  C_24
REMARK                            x       y       z     vdW  Elec       q    Type
REMARK                         _______ _______ _______ _____ _____    ______ ____
ROOT
ATOM     14  C   UNL     1      -1.320   1.716  25.385  0.00  0.00    +0.205 A 
ATOM     15  N   UNL     1      -0.840   1.908  26.028  0.00  0.00    -0.056 NA
ATOM     16  O   UNL     1      -0.699   2.720  26.008  0.00  0.00    -0.336 OA
ATOM     17  C   UNL     1      -1.093   3.031  25.352  0.00  0.00    +0.251 A 
ATOM     18  N   UNL     1      -1.476   2.410  24.968  0.00  0.00    -0.190 NA
ENDROOT
BRANCH  14  11
ATOM      8  C   UNL     1      -2.145  -0.545  24.811  0.00  0.00    +0.132 A 
ATOM      9  C   UNL     1      -2.262  -0.244  25.569  0.00  0.00    +0.034 A 
ATOM     10  C   UNL     1      -1.987   0.509  25.761  0.00  0.00    +0.008 A 
ATOM     11  C   UNL     1      -1.595   0.962  25.194  0.00  0.00    +0.058 A 
ATOM     12  C   UNL     1      -1.478   0.661  24.434  0.00  0.00    +0.103 A 
ATOM     13  N   UNL     1      -1.754  -0.093  24.242  0.00  0.00    -0.229 NA
BRANCH   8   5
ATOM      1  C   UNL     1      -3.247  -3.560  24.044  0.00  0.00    +0.090 C 
ATOM      2  N   UNL     1      -2.971  -2.806  24.236  0.00  0.00    -0.269 NA
ATOM      3  C   UNL     1      -2.172  -2.690  24.403  0.00  0.00    +0.094 C 
ATOM      4  C   UNL     1      -1.897  -1.936  24.594  0.00  0.00    +0.109 C 
ATOM      5  N   UNL     1      -2.421  -1.299  24.619  0.00  0.00    -0.290 N 
ATOM      6  C   UNL     1      -3.221  -1.416  24.452  0.00  0.00    +0.109 C 
ATOM      7  C   UNL     1      -3.496  -2.170  24.260  0.00  0.00    +0.094 C 
ENDBRANCH   8   5
ENDBRANCH  14  11
BRANCH  17  19
ATOM     19  C   UNL     1      -1.101   3.823  25.123  0.00  0.00    +0.138 C 
ATOM     20  C   UNL     1      -0.447   4.267  24.889  0.00  0.00    +0.027 C 
ATOM     21  C   UNL     1      -0.708   5.029  24.709  0.00  0.00    +0.019 C 
ATOM     22  C   UNL     1      -1.523   5.055  24.832  0.00  0.00    +0.072 C 
ATOM     23  N   UNL     1      -1.767   4.311  25.087  0.00  0.00    -0.268 NA
BRANCH  23  24
ATOM     24  C   UNL     1      -2.539   4.090  25.275  0.00  0.00    +0.061 C 
ATOM     25  C   UNL     1      -3.052   3.841  24.678  0.00  0.00    +0.038 C 
ATOM     26  C   UNL     1      -3.825   3.619  24.866  0.00  0.00    +0.095 C 
ATOM     27  N   UNL     1      -4.084   3.647  25.649  0.00  0.00    -0.279 N 
ATOM     28  C   UNL     1      -3.571   3.896  26.244  0.00  0.00    +0.095 C 
ATOM     29  C   UNL     1      -2.798   4.118  26.057  0.00  0.00    +0.038 C 
ATOM     30  C   UNL     1      -4.857   3.426  25.835  0.00  0.00    +0.226 C 
ATOM     31  C   UNL     1      -5.371   3.177  25.239  0.00  0.00    +0.095 C 
ATOM     32  O   UNL     1      -5.117   3.454  26.618  0.00  0.00    -0.275 OA
ENDBRANCH  23  24
ENDBRANCH  17  19
TORSDOF 4
ENDMDL
MODEL 3
REMARK VINA RESULT:      -9.7      1.068      2.644
REMARK  Name = 
REMARK  4 active torsions:
REMARK  status: ('A' for Active; 'I' for Inactive)
REMARK    1  A    between atoms: N_5  and  C_8
REMARK    2  A    between atoms: C_11  and  C_14
REMARK    3  A    between atoms: C_17  and  C_19
REMARK    4  A    between atoms: N_23  and  C_24
REMARK                            x       y       z     vdW  Elec       q    Type
REMARK                         _______ _______ _______ _____ _____    ______ ____
ROOT
ATOM     14  C   UNL     1      -1.265  -0.075  24.471  0.00  0.00    +0.205 A 
ATOM     15  N   UNL     1      -1.458   0.061  25.262  0.00  0.00    -0.056 NA
ATOM     16  O   UNL     1      -2.258  -0.110  25.362  0.00  0.00    -0.336 OA
ATOM     17  C   UNL     1      -2.560  -0.353  24.633  0.00  0.00    +0.251 A 
ATOM     18  N   UNL     1      -1.946  -0.330  24.083  0.00  0.00    -0.190 NA
ENDROOT
BRANCH  14  11
ATOM      8  C   UNL     1       0.967   0.230  23.445  0.00  0.00    +0.132 A 
ATOM      9  C   UNL     1       0.490   0.885  23.597  0.00  0.00    +0.034 A 
ATOM     10  C   UNL     1      -0.254   0.783  23.939  0.00  0.00    +0.008 A 
ATOM     11  C   UNL     1      -0.521   0.027  24.129  0.00  0.00    +0.058 A 
ATOM     12  C   UNL     1      -0.043  -0.629  23.978  0.00  0.00    +0.103 A 
ATOM     13  N   UNL     1       0.701  -0.528  23.636  0.00  0.00    -0.229 NA
BRANCH   8   5
ATOM      1  C   UNL     1       3.942   0.637  22.078  0.00  0.00    +0.090 C 
ATOM      2  N   UNL     1       3.198   0.535  22.420  0.00  0.00    -0.269 NA
ATOM      3  C   UNL     1       2.984   0.980  23.080  0.00  0.00    +0.094 C 
ATOM      4  C   UNL     1       2.240   0.878  23.422  0.00  0.00    +0.109 C 
ATOM      5  N   UNL     1       1.710   0.332  23.103  0.00  0.00    -0.290 N 
ATOM      6  C   UNL     1       1.925  -0.113  22.442  0.00  0.00    +0.109 C 
ATOM      7  C   UNL     1       2.669  -0.012  22.100  0.00  0.00    +0.094 C 
ENDBRANCH   8   5
ENDBRANCH  14  11
BRANCH  17  19
ATOM     19  C   UNL     1      -3.340  -0.577  24.482  0.00  0.00    +0.138 C 
ATOM     20  C   UNL     1      -3.615  -1.350  24.401  0.00  0.00    +0.027 C 
ATOM     21  C   UNL     1      -4.427  -1.316  24.255  0.00  0.00    +0.019 C 
ATOM     22  C   UNL     1      -4.652  -0.523  24.246  0.00  0.00    +0.072 C 
ATOM     23  N   UNL     1      -3.981  -0.065  24.386  0.00  0.00    -0.268 NA
BRANCH  23  24
ATOM     24  C   UNL     1      -3.954   0.758  24.424  0.00  0.00    +0.061 C 
ATOM     25  C   UNL     1      -4.101   1.142  25.140  0.00  0.00    +0.038 C 
ATOM     26  C   UNL     1      -4.074   1.966  25.179  0.00  0.00    +0.095 C 
ATOM     27  N   UNL     1      -3.899   2.406  24.502  0.00  0.00    -0.279 N 
ATOM     28  C   UNL     1      -3.752   2.021  23.788  0.00  0.00    +0.095 C 
ATOM     29  C   UNL     1      -3.779   1.197  23.749  0.00  0.00    +0.038 C 
ATOM     30  C   UNL     1      -3.872   3.229  24.542  0.00  0.00    +0.226 C 
ATOM     31  C   UNL     1      -4.019   3.614  25.257  0.00  0.00    +0.095 C 
ATOM     32  O   UNL     1      -3.697   3.669  23.866  0.00  0.00    -0.275 OA
ENDBRANCH  23  24
ENDBRANCH  17  19
TORSDOF 4
ENDMDL
MODEL 4
REMARK VINA RESULT:      -9.1      2.564      5.145
REMARK  Name = 
REMARK  4 active torsions:
REMARK  status: ('A' for Active; 'I' for Inactive)
REMARK    1  A    between atoms: N_5  and  C_8
REMARK    2  A    between atoms: C_11  and  C_14
REMARK    3  A    between atoms: C_17  and  C_19
REMARK    4  A    between atoms: N_23  and  C_24
REMARK                            x       y       z     vdW  Elec       q    Type
REMARK                         _______ _______ _______ _____ _____    ______ ____
ROOT
ATOM     14  C   UNL     1      -3.729   1.853  24.527  0.00  0.00    +0.205 A 
ATOM     15  N   UNL     1      -3.902   2.383  23.920  0.00  0.00    -0.056 NA
ATOM     16  O   UNL     1      -3.814   3.148  24.215  0.00  0.00    -0.336 OA
ATOM     17  C   UNL     1      -3.586   3.090  25.006  0.00  0.00    +0.251 A 
ATOM     18  N   UNL     1      -3.533   2.290  25.198  0.00  0.00    -0.190 NA
ENDROOT
BRANCH  14  11
ATOM      8  C   UNL     1      -3.786  -0.616  24.364  0.00  0.00    +0.132 A 
ATOM      9  C   UNL     1      -4.283  -0.226  24.894  0.00  0.00    +0.034 A 
ATOM     10  C   UNL     1      -4.264   0.597  24.948  0.00  0.00    +0.008 A 
ATOM     11  C   UNL     1      -3.748   1.030  24.473  0.00  0.00    +0.058 A 
ATOM     12  C   UNL     1      -3.250   0.639  23.943  0.00  0.00    +0.103 A 
ATOM     13  N   UNL     1      -3.269  -0.184  23.888  0.00  0.00    -0.229 NA
BRANCH   8   5
ATOM      1  C   UNL     1      -3.862  -3.908  24.148  0.00  0.00    +0.090 C 
ATOM      2  N   UNL     1      -3.843  -3.085  24.202  0.00  0.00    -0.269 NA
ATOM      3  C   UNL     1      -4.358  -2.630  23.746  0.00  0.00    +0.094 C 
ATOM      4  C   UNL     1      -4.339  -1.807  23.800  0.00  0.00    +0.109 C 
ATOM      5  N   UNL     1      -3.805  -1.439  24.310  0.00  0.00    -0.290 N 
ATOM      6  C   UNL     1      -3.290  -1.895  24.767  0.00  0.00    +0.109 C 
ATOM      7  C   UNL     1      -3.309  -2.718  24.712  0.00  0.00    +0.094 C 
ENDBRANCH   8   5
ENDBRANCH  14  11
BRANCH  17  19
ATOM     19  C   UNL     1      -3.436   3.723  25.514  0.00  0.00    +0.138 C 
ATOM     20  C   UNL     1      -4.003   4.208  25.864  0.00  0.00    +0.027 C 
ATOM     21  C   UNL     1      -3.609   4.767  26.328  0.00  0.00    +0.019 C 
ATOM     22  C   UNL     1      -2.799   4.625  26.263  0.00  0.00    +0.072 C 
ATOM     23  N   UNL     1      -2.691   3.981  25.761  0.00  0.00    -0.268 NA
BRANCH  23  24
ATOM     24  C   UNL     1      -1.968   3.651  25.542  0.00  0.00    +0.061 C 
ATOM     25  C   UNL     1      -1.621   3.860  24.823  0.00  0.00    +0.038 C 
ATOM     26  C   UNL     1      -0.897   3.530  24.604  0.00  0.00    +0.095 C 
ATOM     27  N   UNL     1      -0.520   2.991  25.103  0.00  0.00    -0.279 N 
ATOM     28  C   UNL     1      -0.868   2.783  25.821  0.00  0.00    +0.095 C 
ATOM     29  C   UNL     1      -1.592   3.113  26.041  0.00  0.00    +0.038 C 
ATOM     30  C   UNL     1       0.203   2.662  24.883  0.00  0.00    +0.226 C 
ATOM     31  C   UNL     1       0.551   2.870  24.164  0.00  0.00    +0.095 C 
ATOM     32  O   UNL     1       0.580   2.123  25.382  0.00  0.00    -0.275 OA
ENDBRANCH  23  24
ENDBRANCH  17  19
TORSDOF 4
ENDMDL
MODEL 5
REMARK VINA RESULT:      -8.7      2.812      4.418
REMARK  Name = 
REMARK  4 active torsions:
REMARK  status: ('A' for Active; 'I' for Inactive)
REMARK    1  A    between atoms: N_5  and  C_8
REMARK    2  A    between atoms: C_11  and  C_14
REMARK    3  A    between atoms: C_17  and  C_19
REMARK    4  A    between atoms: N_23  and  C_24
REMARK                            x       y       z     vdW  Elec       q    Type
REMARK                         _______ _______ _______ _____ _____    ______ ____
ROOT
ATOM     14  C   UNL     1      -3.665   1.188  24.486  0.00  0.00    +0.205 A 
ATOM     15  N   UNL     1      -3.937   1.465  23.759  0.00  0.00    -0.056 NA
ATOM     16  O   UNL     1      -4.466   2.081  23.901  0.00  0.00    -0.336 OA
ATOM     17  C   UNL     1      -4.521   2.186  24.718  0.00  0.00    +0.251 A 
ATOM     18  N   UNL     1      -4.026   1.634  25.079  0.00  0.00    -0.190 NA
ENDROOT
BRANCH  14  11
ATOM      8  C   UNL     1      -2.049  -0.654  24.831  0.00  0.00    +0.132 A 
ATOM      9  C   UNL     1      -2.810  -0.710  25.143  0.00  0.00    +0.034 A 
ATOM     10  C   UNL     1      -3.349  -0.096  25.028  0.00  0.00    +0.008 A 
ATOM     11  C   UNL     1      -3.126   0.574  24.601  0.00  0.00    +0.058 A 
ATOM     12  C   UNL     1      -2.364   0.630  24.289  0.00  0.00    +0.103 A 
ATOM     13  N   UNL     1      -1.825   0.015  24.404  0.00  0.00    -0.229 NA
BRANCH   8   5
ATOM      1  C   UNL     1       0.105  -3.112  25.290  0.00  0.00    +0.090 C 
ATOM      2  N   UNL     1      -0.433  -2.497  25.175  0.00  0.00    -0.269 NA
ATOM      3  C   UNL     1      -0.271  -1.746  25.474  0.00  0.00    +0.094 C 
ATOM      4  C   UNL     1      -0.810  -1.132  25.360  0.00  0.00    +0.109 C 
ATOM      5  N   UNL     1      -1.510  -1.269  24.946  0.00  0.00    -0.290 N 
ATOM      6  C   UNL     1      -1.672  -2.021  24.646  0.00  0.00    +0.109 C 
ATOM      7  C   UNL     1      -1.133  -2.635  24.761  0.00  0.00    +0.094 C 
ENDBRANCH   8   5
ENDBRANCH  14  11
BRANCH  17  19
ATOM     19  C   UNL     1      -4.989   2.744  25.104  0.00  0.00    +0.138 C 
ATOM     20  C   UNL     1      -5.793   2.673  25.269  0.00  0.00    +0.027 C 
ATOM     21  C   UNL     1      -6.035   3.358  25.660  0.00  0.00    +0.019 C 
ATOM     22  C   UNL     1      -5.380   3.853  25.737  0.00  0.00    +0.072 C 
ATOM     23  N   UNL     1      -4.733   3.475  25.394  0.00  0.00    -0.268 NA
BRANCH  23  24
ATOM     24  C   UNL     1      -3.965   3.771  25.347  0.00  0.00    +0.061 C 
ATOM     25  C   UNL     1      -3.716   4.163  24.664  0.00  0.00    +0.038 C 
ATOM     26  C   UNL     1      -2.947   4.460  24.616  0.00  0.00    +0.095 C 
ATOM     27  N   UNL     1      -2.428   4.366  25.251  0.00  0.00    -0.279 N 
ATOM     28  C   UNL     1      -2.677   3.975  25.933  0.00  0.00    +0.095 C 
ATOM     29  C   UNL     1      -3.446   3.678  25.980  0.00  0.00    +0.038 C 
ATOM     30  C   UNL     1      -1.660   4.663  25.202  0.00  0.00    +0.226 C 
ATOM     31  C   UNL     1      -1.411   5.055  24.520  0.00  0.00    +0.095 C 
ATOM     32  O   UNL     1      -1.141   4.570  25.837  0.00  0.00    -0.275 OA
ENDBRANCH  23  24
ENDBRANCH  17  19
TORSDOF 4
ENDMDL
MODEL 6
REMARK VINA RESULT:      -7.2     14.410     16.836
REMARK  Name = 
REMARK  4 active torsions:
REMARK  status: ('A' for Active; 'I' for Inactive)
REMARK    1  A    between atoms: N_5  and  C_8
REMARK    2  A    between atoms: C_11  and  C_14
REMARK    3  A    between atoms: C_17  and  C_19
REMARK    4  A    between atoms: N_23  and  C_24
REMARK                            x       y       z     vdW  Elec       q    Type
REMARK                         _______ _______ _______ _____ _____    ______ ____
ROOT
ATOM     14  C   UNL     1      -5.021 -10.214  12.402  0.00  0.00    +0.205 A 
ATOM     15  N   UNL     1      -5.185 -10.779  11.824  0.00  0.00    -0.056 NA
ATOM     16  O   UNL     1      -4.688 -10.640  11.182  0.00  0.00    -0.336 OA
ATOM     17  C   UNL     1      -4.215  -9.987  11.363  0.00  0.00    +0.251 A 
ATOM     18  N   UNL     1      -4.422  -9.725  12.117  0.00  0.00    -0.190 NA
ENDROOT
BRANCH  14  11
ATOM      8  C   UNL     1      -6.132 -10.021  14.606  0.00  0.00    +0.132 A 
ATOM      9  C   UNL     1      -5.421 -10.433  14.537  0.00  0.00    +0.034 A 
ATOM     10  C   UNL     1      -5.051 -10.498  13.803  0.00  0.00    +0.008 A 
ATOM     11  C   UNL     1      -5.391 -10.150  13.137  0.00  0.00    +0.058 A 
ATOM     12  C   UNL     1      -6.103  -9.737  13.206  0.00  0.00    +0.103 A 
ATOM     13  N   UNL     1      -6.473  -9.673  13.940  0.00  0.00    -0.229 NA
BRANCH   8   5
ATOM      1  C   UNL     1      -7.613  -9.764  17.544  0.00  0.00    +0.090 C 
ATOM      2  N   UNL     1      -7.242  -9.828  16.809  0.00  0.00    -0.269 NA
ATOM      3  C   UNL     1      -6.471  -9.554  16.711  0.00  0.00    +0.094 C 
ATOM      4  C   UNL     1      -6.101  -9.618  15.977  0.00  0.00    +0.109 C 
ATOM      5  N   UNL     1      -6.502  -9.957  15.340  0.00  0.00    -0.290 N 
ATOM      6  C   UNL     1      -7.274 -10.231  15.439  0.00  0.00    +0.109 C 
ATOM      7  C   UNL     1      -7.645 -10.167  16.173  0.00  0.00    +0.094 C 
ENDBRANCH   8   5
ENDBRANCH  14  11
BRANCH  17  19
ATOM     19  C   UNL     1      -3.638  -9.657  10.875  0.00  0.00    +0.138 C 
ATOM     20  C   UNL     1      -2.823  -9.706  10.985  0.00  0.00    +0.027 C 
ATOM     21  C   UNL     1      -2.457  -9.298  10.367  0.00  0.00    +0.019 C 
ATOM     22  C   UNL     1      -3.048  -8.998   9.876  0.00  0.00    +0.072 C 
ATOM     23  N   UNL     1      -3.777  -9.219  10.188  0.00  0.00    -0.268 NA
BRANCH  23  24
ATOM     24  C   UNL     1      -4.517  -9.036   9.873  0.00  0.00    +0.061 C 
ATOM     25  C   UNL     1      -4.868  -9.543   9.324  0.00  0.00    +0.038 C 
ATOM     26  C   UNL     1      -5.608  -9.361   9.008  0.00  0.00    +0.095 C 
ATOM     27  N   UNL     1      -5.997  -8.671   9.240  0.00  0.00    -0.279 N 
ATOM     28  C   UNL     1      -5.646  -8.164   9.788  0.00  0.00    +0.095 C 
ATOM     29  C   UNL     1      -4.906  -8.347  10.104  0.00  0.00    +0.038 C 
ATOM     30  C   UNL     1      -6.737  -8.489   8.924  0.00  0.00    +0.226 C 
ATOM     31  C   UNL     1      -7.088  -8.996   8.375  0.00  0.00    +0.095 C 
ATOM     32  O   UNL     1      -7.126  -7.799   9.155  0.00  0.00    -0.275 OA
ENDBRANCH  23  24
ENDBRANCH  17  19
TORSDOF 4
ENDMDL
MODEL 7
REMARK VINA RESULT:      -6.5     14.731     16.964
REMARK  Name = 
REMARK  4 active torsions:
REMARK  status: ('A' for Active; 'I' for Inactive)
REMARK    1  A    between atoms: N_5  and  C_8
REMARK    2  A    between atoms: C_11  and  C_14
REMARK    3  A    between atoms: C_17  and  C_19
REMARK    4  A    between atoms: N_23  and  C_24
REMARK                            x       y       z     vdW  Elec       q    Type
REMARK                         _______ _______ _______ _____ _____    ______ ____
ROOT
ATOM     14  C   UNL     1      -5.937  -9.543  12.097  0.00  0.00    +0.205 A 
ATOM     15  N   UNL     1      -5.749  -8.799  11.796  0.00  0.00    -0.056 NA
ATOM     16  O   UNL     1      -5.530  -8.889  11.007  0.00  0.00    -0.336 OA
ATOM     17  C   UNL     1      -5.582  -9.692  10.819  0.00  0.00    +0.251 A 
ATOM     18  N   UNL     1      -5.833 -10.095  11.492  0.00  0.00    -0.190 NA
ENDROOT
BRANCH  14  11
ATOM      8  C   UNL     1      -6.678 -10.037  14.406  0.00  0.00    +0.132 A 
ATOM      9  C   UNL     1      -7.233  -9.980  13.799  0.00  0.00    +0.034 A 
ATOM     10  C   UNL     1      -6.985  -9.815  13.029  0.00  0.00    +0.008 A 
ATOM     11  C   UNL     1      -6.184  -9.708  12.867  0.00  0.00    +0.058 A 
ATOM     12  C   UNL     1      -5.629  -9.766  13.475  0.00  0.00    +0.103 A 
ATOM     13  N   UNL     1      -5.876  -9.930  14.245  0.00  0.00    -0.229 NA
BRANCH   8   5
ATOM      1  C   UNL     1      -7.668 -10.695  17.485  0.00  0.00    +0.090 C 
ATOM      2  N   UNL     1      -7.420 -10.531  16.715  0.00  0.00    -0.269 NA
ATOM      3  C   UNL     1      -7.927 -10.143  16.193  0.00  0.00    +0.094 C 
ATOM      4  C   UNL     1      -7.680  -9.979  15.424  0.00  0.00    +0.109 C 
ATOM      5  N   UNL     1      -6.926 -10.202  15.176  0.00  0.00    -0.290 N 
ATOM      6  C   UNL     1      -6.418 -10.590  15.698  0.00  0.00    +0.109 C 
ATOM      7  C   UNL     1      -6.665 -10.754  16.468  0.00  0.00    +0.094 C 
ENDBRANCH   8   5
ENDBRANCH  14  11
BRANCH  17  19
ATOM     19  C   UNL     1      -5.412 -10.029  10.085  0.00  0.00    +0.138 C 
ATOM     20  C   UNL     1      -5.959 -10.204   9.494  0.00  0.00    +0.027 C 
ATOM     21  C   UNL     1      -5.549 -10.534   8.858  0.00  0.00    +0.019 C 
ATOM     22  C   UNL     1      -4.749 -10.561   9.057  0.00  0.00    +0.072 C 
ATOM     23  N   UNL     1      -4.664 -10.250   9.815  0.00  0.00    -0.268 NA
BRANCH  23  24
ATOM     24  C   UNL     1      -3.956 -10.172  10.232  0.00  0.00    +0.061 C 
ATOM     25  C   UNL     1      -3.701 -10.781  10.727  0.00  0.00    +0.038 C 
ATOM     26  C   UNL     1      -2.993 -10.704  11.145  0.00  0.00    +0.095 C 
ATOM     27  N   UNL     1      -2.541 -10.017  11.067  0.00  0.00    -0.279 N 
ATOM     28  C   UNL     1      -2.796  -9.409  10.572  0.00  0.00    +0.095 C 
ATOM     29  C   UNL     1      -3.504  -9.487  10.155  0.00  0.00    +0.038 C 
ATOM     30  C   UNL     1      -1.834  -9.941  11.484  0.00  0.00    +0.226 C 
ATOM     31  C   UNL     1      -1.578 -10.549  11.980  0.00  0.00    +0.095 C 
ATOM     32  O   UNL     1      -1.381  -9.255  11.407  0.00  0.00    -0.275 OA
ENDBRANCH  23  24
ENDBRANCH  17  19
TORSDOF 4
ENDMDL
MODEL 8
REMARK VINA RESULT:      -6.4     16.483     18.042
REMARK  Name = 
REMARK  4 active torsions:
REMARK  status: ('A' for Active; 'I' for Inactive)
REMARK    1  A    between atoms: N_5  and  C_8
REMARK    2  A    between atoms: C_11  and  C_14
REMARK    3  A    between atoms: C_17  and  C_19
REMARK    4  A    between atoms: N_23  and  C_24
REMARK                            x       y       z     vdW  Elec       q    Type
REMARK                         _______ _______ _______ _____ _____    ______ ____
ROOT
ATOM     14  C   UNL     1      -6.385  -8.692   9.112  0.00  0.00    +0.205 A 
ATOM     15  N   UNL     1      -6.650  -9.044   8.415  0.00  0.00    -0.056 NA
ATOM     16  O   UNL     1      -7.287  -8.603   8.132  0.00  0.00    -0.336 OA
ATOM     17  C   UNL     1      -7.415  -7.977   8.655  0.00  0.00    +0.251 A 
ATOM     18  N   UNL     1      -6.858  -8.033   9.260  0.00  0.00    -0.190 NA
ENDROOT
BRANCH  14  11
ATOM      8  C   UNL     1      -4.502  -9.477  10.513  0.00  0.00    +0.132 A 
ATOM      9  C   UNL     1      -4.624  -8.669  10.402  0.00  0.00    +0.034 A 
ATOM     10  C   UNL     1      -5.252  -8.408   9.935  0.00  0.00    +0.008 A 
ATOM     11  C   UNL     1      -5.757  -8.954   9.579  0.00  0.00    +0.058 A 
ATOM     12  C   UNL     1      -5.634  -9.763   9.690  0.00  0.00    +0.103 A 
ATOM     13  N   UNL     1      -5.006 -10.024  10.157  0.00  0.00    -0.229 NA
BRANCH   8   5
ATOM      1  C   UNL     1      -1.990 -10.522  12.381  0.00  0.00    +0.090 C 
ATOM      2  N   UNL     1      -2.618 -10.261  11.914  0.00  0.00    -0.269 NA
ATOM      3  C   UNL     1      -2.474  -9.967  11.157  0.00  0.00    +0.094 C 
ATOM      4  C   UNL     1      -3.102  -9.706  10.690  0.00  0.00    +0.109 C 
ATOM      5  N   UNL     1      -3.874  -9.738  10.980  0.00  0.00    -0.290 N 
ATOM      6  C   UNL     1      -4.017 -10.033  11.738  0.00  0.00    +0.109 C 
ATOM      7  C   UNL     1      -3.390 -10.294  12.205  0.00  0.00    +0.094 C 
ENDBRANCH   8   5
ENDBRANCH  14  11
BRANCH  17  19
ATOM     19  C   UNL     1      -7.999  -7.399   8.584  0.00  0.00    +0.138 C 
ATOM     20  C   UNL     1      -7.890  -6.632   8.301  0.00  0.00    +0.027 C 
ATOM     21  C   UNL     1      -8.619  -6.246   8.326  0.00  0.00    +0.019 C 
ATOM     22  C   UNL     1      -9.178  -6.774   8.623  0.00  0.00    +0.072 C 
ATOM     23  N   UNL     1      -8.795  -7.487   8.783  0.00  0.00    -0.268 NA
BRANCH  23  24
ATOM     24  C   UNL     1      -9.145  -8.169   9.089  0.00  0.00    +0.061 C 
ATOM     25  C   UNL     1      -9.174  -8.286   9.905  0.00  0.00    +0.038 C 
ATOM     26  C   UNL     1      -9.524  -8.968  10.212  0.00  0.00    +0.095 C 
ATOM     27  N   UNL     1      -9.845  -9.532   9.701  0.00  0.00    -0.279 N 
ATOM     28  C   UNL     1      -9.817  -9.414   8.886  0.00  0.00    +0.095 C 
ATOM     29  C   UNL     1      -9.467  -8.732   8.580  0.00  0.00    +0.038 C 
ATOM     30  C   UNL     1     -10.195 -10.213  10.008  0.00  0.00    +0.226 C 
ATOM     31  C   UNL     1     -10.223 -10.331  10.824  0.00  0.00    +0.095 C 
ATOM     32  O   UNL     1     -10.516 -10.777   9.499  0.00  0.00    -0.275 OA
ENDBRANCH  23  24
ENDBRANCH  17  19
TORSDOF 4
ENDMDL
MODEL 9
REMARK VINA RESULT:      -6.4     14.739     17.022
REMARK  Name = 
REMARK  4 active torsions:
REMARK  status: ('A' for Active; 'I' for Inactive)
REMARK    1  A    between atoms: N_5  and  C_8
REMARK    2  A    between atoms: C_11  and  C_14
REMARK    3  A    between atoms: C_17  and  C_19
REMARK    4  A    between atoms: N_23  and  C_24
REMARK                            x       y       z     vdW  Elec       q    Type
REMARK                         _______ _______ _______ _____ _____    ______ ____
ROOT
ATOM     14  C   UNL     1      -7.086 -10.114  12.145  0.00  0.00    +0.205 A 
ATOM     15  N   UNL     1      -7.253 -10.766  11.668  0.00  0.00    -0.056 NA
ATOM     16  O   UNL     1      -7.574 -10.490  10.961  0.00  0.00    -0.336 OA
ATOM     17  C   UNL     1      -7.606  -9.666  11.000  0.00  0.00    +0.251 A 
ATOM     18  N   UNL     1      -7.304  -9.434  11.731  0.00  0.00    -0.190 NA
ENDROOT
BRANCH  14  11
ATOM      8  C   UNL     1      -6.104 -10.184  14.415  0.00  0.00    +0.132 A 
ATOM      9  C   UNL     1      -5.616 -10.081  13.758  0.00  0.00    +0.034 A 
ATOM     10  C   UNL     1      -5.944 -10.057  13.001  0.00  0.00    +0.008 A 
ATOM     11  C   UNL     1      -6.759 -10.137  12.901  0.00  0.00    +0.058 A 
ATOM     12  C   UNL     1      -7.247 -10.240  13.559  0.00  0.00    +0.103 A 
ATOM     13  N   UNL     1      -6.919 -10.264  14.316  0.00  0.00    -0.229 NA
BRANCH   8   5
ATOM      1  C   UNL     1      -4.794 -10.278  17.443  0.00  0.00    +0.090 C 
ATOM      2  N   UNL     1      -5.121 -10.254  16.686  0.00  0.00    -0.269 NA
ATOM      3  C   UNL     1      -5.709  -9.704  16.508  0.00  0.00    +0.094 C 
ATOM      4  C   UNL     1      -6.037  -9.681  15.751  0.00  0.00    +0.109 C 
ATOM      5  N   UNL     1      -5.776 -10.207  15.172  0.00  0.00    -0.290 N 
ATOM      6  C   UNL     1      -5.187 -10.758  15.350  0.00  0.00    +0.109 C 
ATOM      7  C   UNL     1      -4.860 -10.781  16.107  0.00  0.00    +0.094 C 
ENDBRANCH   8   5
ENDBRANCH  14  11
BRANCH  17  19
ATOM     19  C   UNL     1      -7.890  -9.164  10.410  0.00  0.00    +0.138 C 
ATOM     20  C   UNL     1      -8.658  -8.872  10.350  0.00  0.00    +0.027 C 
ATOM     21  C   UNL     1      -8.697  -8.393   9.678  0.00  0.00    +0.019 C 
ATOM     22  C   UNL     1      -7.952  -8.389   9.325  0.00  0.00    +0.072 C 
ATOM     23  N   UNL     1      -7.452  -8.865   9.776  0.00  0.00    -0.268 NA
BRANCH  23  24
ATOM     24  C   UNL     1      -6.656  -9.017   9.623  0.00  0.00    +0.061 C 
ATOM     25  C   UNL     1      -6.078  -8.497   9.900  0.00  0.00    +0.038 C 
ATOM     26  C   UNL     1      -5.281  -8.648   9.747  0.00  0.00    +0.095 C 
ATOM     27  N   UNL     1      -5.063  -9.319   9.318  0.00  0.00    -0.279 N 
ATOM     28  C   UNL     1      -5.641  -9.838   9.042  0.00  0.00    +0.095 C 
ATOM     29  C   UNL     1      -6.438  -9.686   9.195  0.00  0.00    +0.038 C 
ATOM     30  C   UNL     1      -4.267  -9.470   9.165  0.00  0.00    +0.226 C 
ATOM     31  C   UNL     1      -3.687  -8.950   9.441  0.00  0.00    +0.095 C 
ATOM     32  O   UNL     1      -4.048 -10.140   8.737  0.00  0.00    -0.275 OA
ENDBRANCH  23  24
ENDBRANCH  17  19
TORSDOF 4
ENDMDL
