MODEL 1
REMARK VINA RESULT:     -11.0      0.000      0.000
REMARK  Name = 
REMARK  2 active torsions:
REMARK  status: ('A' for Active; 'I' for Inactive)
REMARK    1  A    between atoms: C_3  and  N_5
REMARK    2  A    between atoms: C_8  and  C_10
REMARK                            x       y       z     vdW  Elec       q    Type
REMARK                         _______ _______ _______ _____ _____    ______ ____
ROOT
ATOM      5  N   UNL     1      -4.312   2.068  24.724  0.00  0.00    -0.274 NA
ATOM      6  C   UNL     1      -5.051   1.871  25.033  0.00  0.00    +0.073 C 
ATOM      7  C   UNL     1      -5.101   1.048  25.070  0.00  0.00    +0.025 C 
ATOM      8  C   UNL     1      -4.391   0.737  24.785  0.00  0.00    +0.064 C 
ATOM      9  C   UNL     1      -3.904   1.367  24.572  0.00  0.00    +0.079 C 
ENDROOT
BRANCH   8  10
ATOM     10  C   UNL     1      -4.203  -0.064  24.725  0.00  0.00    +0.089 A 
ATOM     11  N   UNL     1      -4.418  -0.568  24.108  0.00  0.00    -0.243 NA
ATOM     12  C   UNL     1      -4.115  -1.317  24.273  0.00  0.00    +0.087 A 
ATOM     13  C   UNL     1      -3.712  -1.276  24.992  0.00  0.00    +0.048 A 
ATOM     14  S   UNL     1      -3.766  -0.503  25.271  0.00  0.00    -0.071 S 
ATOM     15  C   UNL     1      -3.348  -1.950  25.298  0.00  0.00    +0.008 A 
ATOM     16  C   UNL     1      -3.386  -2.664  24.887  0.00  0.00    +0.001 A 
ATOM     17  C   UNL     1      -3.789  -2.704  24.168  0.00  0.00    +0.002 A 
ATOM     18  C   UNL     1      -4.154  -2.031  23.861  0.00  0.00    +0.020 A 
ENDBRANCH   8  10
BRANCH   5   3
ATOM      1  C   UNL     1      -3.629   3.911  24.405  0.00  0.00    +0.003 C 
ATOM      2  C   UNL     1      -3.726   3.432  25.070  0.00  0.00    +0.016 C 
ATOM      3  C   UNL     1      -4.029   2.831  24.592  0.00  0.00    +0.058 C 
ATOM      4  C   UNL     1      -3.932   3.311  23.927  0.00  0.00    +0.016 C 
ENDBRANCH   5   3
TORSDOF 2
ENDMDL
MODEL 2
REMARK VINA RESULT:     -10.3      1.039      4.334
REMARK  Name = 
REMARK  2 active torsions:
REMARK  status: ('A' for Active; 'I' for Inactive)
REMARK    1  A    between atoms: C_3  and  N_5
REMARK    2  A    between atoms: C_8  and  C_10
REMARK                            x       y       z     vdW  Elec       q    Type
REMARK                         _______ _______ _______ _____ _____    ______ ____
ROOT
ATOM      5  N   UNL     1      -3.724  -0.862  24.235  0.00  0.00    -0.274 NA
ATOM      6  C   UNL     1      -3.263  -0.448  23.691  0.00  0.00    +0.073 C 
ATOM      7  C   UNL     1      -3.418   0.357  23.786  0.00  0.00    +0.025 C 
ATOM      8  C   UNL     1      -3.976   0.440  24.389  0.00  0.00    +0.064 C 
ATOM      9  C   UNL     1      -4.164  -0.313  24.667  0.00  0.00    +0.079 C 
ENDROOT
BRANCH   8  10
ATOM     10  C   UNL     1      -4.289   1.151  24.666  0.00  0.00    +0.089 A 
ATOM     11  N   UNL     1      -5.029   1.252  25.015  0.00  0.00    -0.243 NA
ATOM     12  C   UNL     1      -5.114   2.050  25.207  0.00  0.00    +0.087 A 
ATOM     13  C   UNL     1      -4.426   2.442  24.976  0.00  0.00    +0.048 A 
ATOM     14  S   UNL     1      -3.916   1.887  24.642  0.00  0.00    -0.071 S 
ATOM     15  C   UNL     1      -4.354   3.255  25.101  0.00  0.00    +0.008 A 
ATOM     16  C   UNL     1      -4.968   3.674  25.455  0.00  0.00    +0.001 A 
ATOM     17  C   UNL     1      -5.656   3.282  25.686  0.00  0.00    +0.002 A 
ATOM     18  C   UNL     1      -5.730   2.470  25.562  0.00  0.00    +0.020 A 
ENDBRANCH   8  10
BRANCH   5   3
ATOM      1  C   UNL     1      -3.767  -2.840  24.468  0.00  0.00    +0.003 C 
ATOM      2  C   UNL     1      -4.100  -2.308  23.932  0.00  0.00    +0.016 C 
ATOM      3  C   UNL     1      -3.742  -1.681  24.332  0.00  0.00    +0.058 C 
ATOM      4  C   UNL     1      -3.409  -2.213  24.868  0.00  0.00    +0.016 C 
ENDBRANCH   5   3
TORSDOF 2
ENDMDL
MODEL 3
REMARK VINA RESULT:     -10.1      1.767      4.592
REMARK  Name = 
REMARK  2 active torsions:
REMARK  status: ('A' for Active; 'I' for Inactive)
REMARK    1  A    between atoms: C_3  and  N_5
REMARK    2  A    between atoms: C_8  and  C_10
REMARK                            x       y       z     vdW  Elec       q    Type
REMARK                         _______ _______ _______ _____ _____    ______ ____
ROOT
ATOM      5  N   UNL     1      -3.856   0.636  24.683  0.00  0.00    -0.274 NA
ATOM      6  C   UNL     1      -4.502   1.149  24.680  0.00  0.00    +0.073 C 
ATOM      7  C   UNL     1      -4.215   1.920  24.752  0.00  0.00    +0.025 C 
ATOM      8  C   UNL     1      -3.392   1.883  24.799  0.00  0.00    +0.064 C 
ATOM      9  C   UNL     1      -3.170   1.090  24.757  0.00  0.00    +0.079 C 
ENDROOT
BRANCH   8  10
ATOM     10  C   UNL     1      -2.881   2.526  24.876  0.00  0.00    +0.089 A 
ATOM     11  N   UNL     1      -2.082   2.537  24.675  0.00  0.00    -0.243 NA
ATOM     12  C   UNL     1      -1.787   3.289  24.842  0.00  0.00    +0.087 A 
ATOM     13  C   UNL     1      -2.405   3.743  25.146  0.00  0.00    +0.048 A 
ATOM     14  S   UNL     1      -3.081   3.272  25.167  0.00  0.00    -0.071 S 
ATOM     15  C   UNL     1      -2.271   4.528  25.364  0.00  0.00    +0.008 A 
ATOM     16  C   UNL     1      -1.521   4.858  25.278  0.00  0.00    +0.001 A 
ATOM     17  C   UNL     1      -0.903   4.404  24.974  0.00  0.00    +0.002 A 
ATOM     18  C   UNL     1      -1.035   3.619  24.756  0.00  0.00    +0.020 A 
ENDBRANCH   8  10
BRANCH   5   3
ATOM      1  C   UNL     1      -3.936  -1.348  24.538  0.00  0.00    +0.003 C 
ATOM      2  C   UNL     1      -3.947  -0.723  24.000  0.00  0.00    +0.016 C 
ATOM      3  C   UNL     1      -3.889  -0.186  24.623  0.00  0.00    +0.058 C 
ATOM      4  C   UNL     1      -3.878  -0.811  25.161  0.00  0.00    +0.016 C 
ENDBRANCH   5   3
TORSDOF 2
ENDMDL
