REMARK  Name = 
REMARK  6 active torsions:
REMARK  status: ('A' for Active; 'I' for Inactive)
REMARK    1  A    between atoms: C_1  and  C_2
REMARK    2  A    between atoms: C_1  and  C_23
REMARK    3  A    between atoms: C_2  and  N_3
REMARK    4  A    between atoms: C_8  and  C_9
REMARK    5  A    between atoms: C_11  and  C_14
REMARK    6  A    between atoms: C_23  and  C_24
REMARK                            x       y       z     vdW  Elec       q    Type
REMARK                         _______ _______ _______ _____ _____    ______ ____
ROOT
ATOM      3  N   UNL     1       2.070   1.110   0.000  0.00  0.00    -0.261 NA
ATOM      4  C   UNL     1       1.356   0.698   0.000  0.00  0.00    +0.120 C 
ATOM      5  C   UNL     1       0.641   1.110   0.000  0.00  0.00    +0.090 A 
ATOM      6  C   UNL     1       0.641   1.935   0.000  0.00  0.00    +0.077 A 
ATOM      7  C   UNL     1       1.356   2.348   0.000  0.00  0.00    +0.073 C 
ATOM      8  C   UNL     1       2.070   1.935   0.000  0.00  0.00    +0.144 C 
ATOM     20  N   UNL     1      -0.143   2.190   0.000  0.00  0.00    -0.227 NA
ATOM     21  C   UNL     1      -0.628   1.523   0.000  0.00  0.00    +0.198 A 
ATOM     22  N   UNL     1      -0.143   0.856   0.000  0.00  0.00    -0.226 NA
ENDROOT
BRANCH   8   9
ATOM      9  C   UNL     1       2.784   2.348   0.000  0.00  0.00    +0.251 A 
ATOM     10  N   UNL     1       2.871   3.168   0.000  0.00  0.00    -0.188 NA
ATOM     11  C   UNL     1       3.678   3.340   0.000  0.00  0.00    +0.223 A 
ATOM     12  N   UNL     1       4.090   2.626   0.000  0.00  0.00    -0.054 NA
ATOM     13  O   UNL     1       3.538   2.012   0.000  0.00  0.00    -0.336 OA
BRANCH  11  14
ATOM     14  C   UNL     1       4.013   4.094   0.000  0.00  0.00    +0.139 A 
ATOM     15  C   UNL     1       3.528   4.761   0.000  0.00  0.00    +0.121 A 
ATOM     16  N   UNL     1       3.864   5.515   0.000  0.00  0.00    -0.239 NA
ATOM     17  C   UNL     1       4.684   5.601   0.000  0.00  0.00    +0.120 A 
ATOM     18  C   UNL     1       5.169   4.934   0.000  0.00  0.00    +0.120 A 
ATOM     19  N   UNL     1       4.834   4.180   0.000  0.00  0.00    -0.237 NA
ENDBRANCH  11  14
ENDBRANCH   8   9
BRANCH   3   2
ATOM      2  C   UNL     1       2.784   0.698   0.000  0.00  0.00    +0.073 C 
BRANCH   2   1
ATOM      1  C   UNL     1       2.784  -0.127   0.000  0.00  0.00    +0.022 C 
BRANCH   1  23
ATOM     23  C   UNL     1       3.499  -0.540   0.000  0.00  0.00    +0.028 C 
BRANCH  23  24
ATOM     24  C   UNL     1       3.499  -1.365   0.000  0.00  0.00    -0.022 A 
ATOM     25  C   UNL     1       4.213  -1.777   0.000  0.00  0.00    -0.004 A 
ATOM     26  C   UNL     1       4.213  -2.602   0.000  0.00  0.00    -0.000 A 
ATOM     27  C   UNL     1       3.499  -3.015   0.000  0.00  0.00    -0.000 A 
ATOM     28  C   UNL     1       2.784  -2.602   0.000  0.00  0.00    -0.000 A 
ATOM     29  C   UNL     1       2.784  -1.777   0.000  0.00  0.00    -0.004 A 
ENDBRANCH  23  24
ENDBRANCH   1  23
ENDBRANCH   2   1
ENDBRANCH   3   2
TORSDOF 6
