MODEL 1
REMARK VINA RESULT:      -9.1      0.000      0.000
REMARK  Name = 
REMARK  11 active torsions:
REMARK  status: ('A' for Active; 'I' for Inactive)
REMARK    1  A    between atoms: O_2  and  C_3
REMARK    2  A    between atoms: C_3  and  C_4
REMARK    3  A    between atoms: C_4  and  O_5
REMARK    4  A    between atoms: O_5  and  C_6
REMARK    5  A    between atoms: C_8  and  C_12
REMARK    6  A    between atoms: C_15  and  C_17
REMARK    7  A    between atoms: N_21  and  C_22
REMARK    8  A    between atoms: C_22  and  C_23
REMARK    9  A    between atoms: C_25  and  O_26
REMARK   10  A    between atoms: C_28  and  O_29
REMARK   11  A    between atoms: C_31  and  O_32
REMARK                            x       y       z     vdW  Elec       q    Type
REMARK                         _______ _______ _______ _____ _____    ______ ____
ROOT
ATOM     17  C   UNL     1       0.018   1.139  24.287  0.00  0.00    +0.138 C 
ATOM     18  C   UNL     1       0.524   1.110  23.636  0.00  0.00    +0.027 C 
ATOM     19  C   UNL     1       0.508   0.342  23.335  0.00  0.00    +0.019 C 
ATOM     20  C   UNL     1      -0.008  -0.103  23.799  0.00  0.00    +0.073 C 
ATOM     21  N   UNL     1      -0.312   0.389  24.388  0.00  0.00    -0.263 NA
ENDROOT
BRANCH  17  15
ATOM     12  C   UNL     1      -0.661   2.940  25.211  0.00  0.00    +0.221 A 
ATOM     13  N   UNL     1      -0.070   2.704  25.737  0.00  0.00    -0.054 NA
ATOM     14  O   UNL     1       0.256   2.000  25.454  0.00  0.00    -0.336 OA
ATOM     15  C   UNL     1      -0.133   1.801  24.755  0.00  0.00    +0.251 A 
ATOM     16  N   UNL     1      -0.700   2.382  24.605  0.00  0.00    -0.188 NA
BRANCH  12   8
ATOM      6  C   UNL     1      -2.366   4.229  25.652  0.00  0.00    +0.142 A 
ATOM      7  C   UNL     1      -1.896   3.555  25.583  0.00  0.00    +0.059 A 
ATOM      8  C   UNL     1      -1.131   3.614  25.281  0.00  0.00    +0.123 A 
ATOM      9  N   UNL     1      -0.835   4.348  25.049  0.00  0.00    -0.240 NA
ATOM     10  C   UNL     1      -1.304   5.023  25.118  0.00  0.00    +0.102 A 
ATOM     11  C   UNL     1      -2.069   4.964  25.420  0.00  0.00    +0.058 A 
BRANCH   6   5
ATOM      5  O   UNL     1      -3.131   4.171  25.954  0.00  0.00    -0.473 OA
BRANCH   5   4
ATOM      4  C   UNL     1      -3.734   3.850  25.491  0.00  0.00    +0.237 C 
BRANCH   4   3
ATOM      3  C   UNL     1      -4.466   3.677  25.830  0.00  0.00    +0.189 C 
BRANCH   3   2
ATOM      1  C   UNL     1      -5.658   2.907  25.655  0.00  0.00    +0.174 C 
ATOM      2  O   UNL     1      -5.092   3.427  25.354  0.00  0.00    -0.347 OA
ENDBRANCH   3   2
ENDBRANCH   4   3
ENDBRANCH   5   4
ENDBRANCH   6   5
ENDBRANCH  12   8
ENDBRANCH  17  15
BRANCH  21  22
ATOM     22  C   UNL     1      -0.850   0.170  24.973  0.00  0.00    +0.100 C 
BRANCH  22  23
ATOM     23  C   UNL     1      -1.405  -0.420  24.823  0.00  0.00    +0.000 A 
ATOM     24  C   UNL     1      -2.159  -0.219  24.554  0.00  0.00    +0.037 A 
ATOM     25  C   UNL     1      -2.715  -0.810  24.404  0.00  0.00    +0.175 A 
ATOM     28  C   UNL     1      -2.517  -1.602  24.523  0.00  0.00    +0.206 A 
ATOM     31  C   UNL     1      -1.764  -1.804  24.792  0.00  0.00    +0.175 A 
ATOM     34  C   UNL     1      -1.208  -1.212  24.942  0.00  0.00    +0.037 A 
BRANCH  25  26
ATOM     26  O   UNL     1      -3.469  -0.609  24.135  0.00  0.00    -0.468 OA
ATOM     27  C   UNL     1      -3.663   0.183  24.005  0.00  0.00    +0.253 C 
ENDBRANCH  25  26
BRANCH  28  29
ATOM     29  O   UNL     1      -3.073  -2.193  24.373  0.00  0.00    -0.465 OA
ATOM     30  C   UNL     1      -3.551  -2.474  24.984  0.00  0.00    +0.253 C 
ENDBRANCH  28  29
BRANCH  31  32
ATOM     32  O   UNL     1      -1.566  -2.596  24.910  0.00  0.00    -0.468 OA
ATOM     33  C   UNL     1      -0.791  -2.803  25.105  0.00  0.00    +0.253 C 
ENDBRANCH  31  32
ENDBRANCH  22  23
ENDBRANCH  21  22
TORSDOF 11
ENDMDL
MODEL 2
REMARK VINA RESULT:      -8.9      1.564      3.655
REMARK  Name = 
REMARK  11 active torsions:
REMARK  status: ('A' for Active; 'I' for Inactive)
REMARK    1  A    between atoms: O_2  and  C_3
REMARK    2  A    between atoms: C_3  and  C_4
REMARK    3  A    between atoms: C_4  and  O_5
REMARK    4  A    between atoms: O_5  and  C_6
REMARK    5  A    between atoms: C_8  and  C_12
REMARK    6  A    between atoms: C_15  and  C_17
REMARK    7  A    between atoms: N_21  and  C_22
REMARK    8  A    between atoms: C_22  and  C_23
REMARK    9  A    between atoms: C_25  and  O_26
REMARK   10  A    between atoms: C_28  and  O_29
REMARK   11  A    between atoms: C_31  and  O_32
REMARK                            x       y       z     vdW  Elec       q    Type
REMARK                         _______ _______ _______ _____ _____    ______ ____
ROOT
ATOM     17  C   UNL     1      -4.691   1.925  25.025  0.00  0.00    +0.138 C 
ATOM     18  C   UNL     1      -5.352   2.039  25.506  0.00  0.00    +0.027 C 
ATOM     19  C   UNL     1      -5.708   1.305  25.629  0.00  0.00    +0.019 C 
ATOM     20  C   UNL     1      -5.267   0.737  25.225  0.00  0.00    +0.073 C 
ATOM     21  N   UNL     1      -4.638   1.120  24.851  0.00  0.00    -0.263 NA
ENDROOT
BRANCH  17  15
ATOM     12  C   UNL     1      -3.134   3.346  24.689  0.00  0.00    +0.221 A 
ATOM     13  N   UNL     1      -3.621   3.486  24.037  0.00  0.00    -0.054 NA
ATOM     14  O   UNL     1      -4.264   2.971  24.084  0.00  0.00    -0.336 OA
ATOM     15  C   UNL     1      -4.174   2.512  24.764  0.00  0.00    +0.251 A 
ATOM     16  N   UNL     1      -3.476   2.745  25.138  0.00  0.00    -0.188 NA
BRANCH  12   8
ATOM      6  C   UNL     1      -1.018   3.710  25.077  0.00  0.00    +0.142 A 
ATOM      7  C   UNL     1      -1.722   3.317  24.905  0.00  0.00    +0.059 A 
ATOM      8  C   UNL     1      -2.430   3.740  24.861  0.00  0.00    +0.123 A 
ATOM      9  N   UNL     1      -2.433   4.554  24.988  0.00  0.00    -0.240 NA
ATOM     10  C   UNL     1      -1.728   4.947  25.160  0.00  0.00    +0.102 A 
ATOM     11  C   UNL     1      -1.021   4.526  25.204  0.00  0.00    +0.058 A 
BRANCH   6   5
ATOM      5  O   UNL     1      -0.310   3.289  25.121  0.00  0.00    -0.473 OA
BRANCH   5   4
ATOM      4  C   UNL     1      -0.087   2.790  24.503  0.00  0.00    +0.237 C 
BRANCH   4   3
ATOM      3  C   UNL     1       0.466   2.192  24.636  0.00  0.00    +0.189 C 
BRANCH   3   2
ATOM      1  C   UNL     1       1.015   1.167  23.804  0.00  0.00    +0.174 C 
ATOM      2  O   UNL     1       0.975   1.960  24.030  0.00  0.00    -0.347 OA
ENDBRANCH   3   2
ENDBRANCH   4   3
ENDBRANCH   5   4
ENDBRANCH   6   5
ENDBRANCH  12   8
ENDBRANCH  17  15
BRANCH  21  22
ATOM     22  C   UNL     1      -4.060   0.761  24.386  0.00  0.00    +0.100 C 
BRANCH  22  23
ATOM     23  C   UNL     1      -3.797   0.001  24.567  0.00  0.00    +0.000 A 
ATOM     24  C   UNL     1      -3.155  -0.104  25.075  0.00  0.00    +0.037 A 
ATOM     25  C   UNL     1      -2.893  -0.864  25.257  0.00  0.00    +0.175 A 
ATOM     28  C   UNL     1      -3.271  -1.520  24.931  0.00  0.00    +0.206 A 
ATOM     31  C   UNL     1      -3.913  -1.416  24.423  0.00  0.00    +0.175 A 
ATOM     34  C   UNL     1      -4.176  -0.655  24.241  0.00  0.00    +0.037 A 
BRANCH  25  26
ATOM     26  O   UNL     1      -2.250  -0.969  25.765  0.00  0.00    -0.468 OA
ATOM     27  C   UNL     1      -1.665  -0.389  25.815  0.00  0.00    +0.253 C 
ENDBRANCH  25  26
BRANCH  28  29
ATOM     29  O   UNL     1      -3.008  -2.281  25.112  0.00  0.00    -0.465 OA
ATOM     30  C   UNL     1      -3.312  -2.676  25.770  0.00  0.00    +0.253 C 
ENDBRANCH  28  29
BRANCH  31  32
ATOM     32  O   UNL     1      -4.292  -2.073  24.096  0.00  0.00    -0.468 OA
ATOM     33  C   UNL     1      -4.453  -2.096  23.288  0.00  0.00    +0.253 C 
ENDBRANCH  31  32
ENDBRANCH  22  23
ENDBRANCH  21  22
TORSDOF 11
ENDMDL
MODEL 3
REMARK VINA RESULT:      -8.6      1.924      3.528
REMARK  Name = 
REMARK  11 active torsions:
REMARK  status: ('A' for Active; 'I' for Inactive)
REMARK    1  A    between atoms: O_2  and  C_3
REMARK    2  A    between atoms: C_3  and  C_4
REMARK    3  A    between atoms: C_4  and  O_5
REMARK    4  A    between atoms: O_5  and  C_6
REMARK    5  A    between atoms: C_8  and  C_12
REMARK    6  A    between atoms: C_15  and  C_17
REMARK    7  A    between atoms: N_21  and  C_22
REMARK    8  A    between atoms: C_22  and  C_23
REMARK    9  A    between atoms: C_25  and  O_26
REMARK   10  A    between atoms: C_28  and  O_29
REMARK   11  A    between atoms: C_31  and  O_32
REMARK                            x       y       z     vdW  Elec       q    Type
REMARK                         _______ _______ _______ _____ _____    ______ ____
ROOT
ATOM     17  C   UNL     1      -4.049  -0.524  24.525  0.00  0.00    +0.138 C 
ATOM     18  C   UNL     1      -4.437  -1.017  23.989  0.00  0.00    +0.027 C 
ATOM     19  C   UNL     1      -3.890  -1.566  23.705  0.00  0.00    +0.019 C 
ATOM     20  C   UNL     1      -3.164  -1.412  24.065  0.00  0.00    +0.073 C 
ATOM     21  N   UNL     1      -3.262  -0.768  24.572  0.00  0.00    -0.263 NA
ENDROOT
BRANCH  17  15
ATOM     12  C   UNL     1      -4.774   1.331  25.292  0.00  0.00    +0.221 A 
ATOM     13  N   UNL     1      -5.045   0.804  25.867  0.00  0.00    -0.054 NA
ATOM     14  O   UNL     1      -4.806   0.045  25.649  0.00  0.00    -0.336 OA
ATOM     15  C   UNL     1      -4.388   0.103  24.940  0.00  0.00    +0.251 A 
ATOM     16  N   UNL     1      -4.368   0.898  24.720  0.00  0.00    -0.188 NA
BRANCH  12   8
ATOM      6  C   UNL     1      -4.399   3.466  25.037  0.00  0.00    +0.142 A 
ATOM      7  C   UNL     1      -4.283   2.649  25.039  0.00  0.00    +0.059 A 
ATOM      8  C   UNL     1      -4.889   2.148  25.290  0.00  0.00    +0.123 A 
ATOM      9  N   UNL     1      -5.609   2.463  25.539  0.00  0.00    -0.240 NA
ATOM     10  C   UNL     1      -5.724   3.280  25.538  0.00  0.00    +0.102 A 
ATOM     11  C   UNL     1      -5.120   3.782  25.287  0.00  0.00    +0.058 A 
BRANCH   6   5
ATOM      5  O   UNL     1      -3.794   3.968  24.787  0.00  0.00    -0.473 OA
BRANCH   5   4
ATOM      4  C   UNL     1      -3.148   4.115  25.279  0.00  0.00    +0.237 C 
BRANCH   4   3
ATOM      3  C   UNL     1      -2.535   4.603  25.020  0.00  0.00    +0.189 C 
BRANCH   3   2
ATOM      1  C   UNL     1      -1.164   4.990  25.130  0.00  0.00    +0.174 C 
ATOM      2  O   UNL     1      -1.846   4.672  25.468  0.00  0.00    -0.347 OA
ENDBRANCH   3   2
ENDBRANCH   4   3
ENDBRANCH   5   4
ENDBRANCH   6   5
ENDBRANCH  12   8
ENDBRANCH  17  15
BRANCH  21  22
ATOM     22  C   UNL     1      -2.676  -0.428  25.042  0.00  0.00    +0.100 C 
BRANCH  22  23
ATOM     23  C   UNL     1      -1.899  -0.388  24.769  0.00  0.00    +0.000 A 
ATOM     24  C   UNL     1      -1.657   0.252  24.307  0.00  0.00    +0.037 A 
ATOM     25  C   UNL     1      -0.880   0.292  24.033  0.00  0.00    +0.175 A 
ATOM     28  C   UNL     1      -0.345  -0.306  24.222  0.00  0.00    +0.206 A 
ATOM     31  C   UNL     1      -0.586  -0.946  24.684  0.00  0.00    +0.175 A 
ATOM     34  C   UNL     1      -1.364  -0.986  24.957  0.00  0.00    +0.037 A 
BRANCH  25  26
ATOM     26  O   UNL     1      -0.638   0.932  23.571  0.00  0.00    -0.468 OA
ATOM     27  C   UNL     1      -1.056   1.643  23.598  0.00  0.00    +0.253 C 
ENDBRANCH  25  26
BRANCH  28  29
ATOM     29  O   UNL     1       0.433  -0.266  23.948  0.00  0.00    -0.465 OA
ATOM     30  C   UNL     1       0.607  -0.476  23.169  0.00  0.00    +0.253 C 
ENDBRANCH  28  29
BRANCH  31  32
ATOM     32  O   UNL     1      -0.050  -1.545  24.873  0.00  0.00    -0.468 OA
ATOM     33  C   UNL     1      -0.214  -2.063  25.492  0.00  0.00    +0.253 C 
ENDBRANCH  31  32
ENDBRANCH  22  23
ENDBRANCH  21  22
TORSDOF 11
ENDMDL
MODEL 4
REMARK VINA RESULT:      -8.5      1.229      4.857
REMARK  Name = 
REMARK  11 active torsions:
REMARK  status: ('A' for Active; 'I' for Inactive)
REMARK    1  A    between atoms: O_2  and  C_3
REMARK    2  A    between atoms: C_3  and  C_4
REMARK    3  A    between atoms: C_4  and  O_5
REMARK    4  A    between atoms: O_5  and  C_6
REMARK    5  A    between atoms: C_8  and  C_12
REMARK    6  A    between atoms: C_15  and  C_17
REMARK    7  A    between atoms: N_21  and  C_22
REMARK    8  A    between atoms: C_22  and  C_23
REMARK    9  A    between atoms: C_25  and  O_26
REMARK   10  A    between atoms: C_28  and  O_29
REMARK   11  A    between atoms: C_31  and  O_32
REMARK                            x       y       z     vdW  Elec       q    Type
REMARK                         _______ _______ _______ _____ _____    ______ ____
ROOT
ATOM     17  C   UNL     1      -1.874   3.146  25.125  0.00  0.00    +0.138 C 
ATOM     18  C   UNL     1      -1.499   3.559  25.734  0.00  0.00    +0.027 C 
ATOM     19  C   UNL     1      -2.065   4.024  26.113  0.00  0.00    +0.019 C 
ATOM     20  C   UNL     1      -2.790   3.899  25.739  0.00  0.00    +0.073 C 
ATOM     21  N   UNL     1      -2.671   3.356  25.129  0.00  0.00    -0.263 NA
ENDROOT
BRANCH  17  15
ATOM     12  C   UNL     1      -0.923   1.526  24.112  0.00  0.00    +0.221 A 
ATOM     13  N   UNL     1      -0.997   2.075  23.500  0.00  0.00    -0.054 NA
ATOM     14  O   UNL     1      -1.362   2.749  23.806  0.00  0.00    -0.336 OA
ATOM     15  C   UNL     1      -1.514   2.616  24.606  0.00  0.00    +0.251 A 
ATOM     16  N   UNL     1      -1.242   1.860  24.795  0.00  0.00    -0.188 NA
BRANCH  12   8
ATOM      6  C   UNL     1      -0.618  -0.622  24.353  0.00  0.00    +0.142 A 
ATOM      7  C   UNL     1      -0.953   0.129  24.414  0.00  0.00    +0.059 A 
ATOM      8  C   UNL     1      -0.588   0.774  24.051  0.00  0.00    +0.123 A 
ATOM      9  N   UNL     1       0.111   0.668  23.626  0.00  0.00    -0.240 NA
ATOM     10  C   UNL     1       0.445  -0.084  23.565  0.00  0.00    +0.102 A 
ATOM     11  C   UNL     1       0.082  -0.729  23.928  0.00  0.00    +0.058 A 
BRANCH   6   5
ATOM      5  O   UNL     1      -0.982  -1.267  24.716  0.00  0.00    -0.473 OA
BRANCH   5   4
ATOM      4  C   UNL     1      -1.573  -1.685  24.320  0.00  0.00    +0.237 C 
BRANCH   4   3
ATOM      3  C   UNL     1      -2.051  -2.215  24.734  0.00  0.00    +0.189 C 
BRANCH   3   2
ATOM      1  C   UNL     1      -3.314  -2.884  24.711  0.00  0.00    +0.174 C 
ATOM      2  O   UNL     1      -2.616  -2.661  24.331  0.00  0.00    -0.347 OA
ENDBRANCH   3   2
ENDBRANCH   4   3
ENDBRANCH   5   4
ENDBRANCH   6   5
ENDBRANCH  12   8
ENDBRANCH  17  15
BRANCH  21  22
ATOM     22  C   UNL     1      -3.250   3.074  24.613  0.00  0.00    +0.100 C 
BRANCH  22  23
ATOM     23  C   UNL     1      -3.983   2.835  24.905  0.00  0.00    +0.000 A 
ATOM     24  C   UNL     1      -4.170   2.032  24.944  0.00  0.00    +0.037 A 
ATOM     25  C   UNL     1      -4.903   1.793  25.236  0.00  0.00    +0.175 A 
ATOM     28  C   UNL     1      -5.449   2.357  25.490  0.00  0.00    +0.206 A 
ATOM     31  C   UNL     1      -5.263   3.159  25.453  0.00  0.00    +0.175 A 
ATOM     34  C   UNL     1      -4.529   3.398  25.160  0.00  0.00    +0.037 A 
BRANCH  25  26
ATOM     26  O   UNL     1      -5.091   0.990  25.274  0.00  0.00    -0.468 OA
ATOM     27  C   UNL     1      -4.639   0.441  24.856  0.00  0.00    +0.253 C 
ENDBRANCH  25  26
BRANCH  28  29
ATOM     29  O   UNL     1      -6.183   2.118  25.783  0.00  0.00    -0.465 OA
ATOM     30  C   UNL     1      -6.268   1.934  26.583  0.00  0.00    +0.253 C 
ENDBRANCH  28  29
BRANCH  31  32
ATOM     32  O   UNL     1      -5.809   3.723  25.707  0.00  0.00    -0.468 OA
ATOM     33  C   UNL     1      -5.841   4.461  25.339  0.00  0.00    +0.253 C 
ENDBRANCH  31  32
ENDBRANCH  22  23
ENDBRANCH  21  22
TORSDOF 11
ENDMDL
MODEL 5
REMARK VINA RESULT:      -8.4      2.270      5.452
REMARK  Name = 
REMARK  11 active torsions:
REMARK  status: ('A' for Active; 'I' for Inactive)
REMARK    1  A    between atoms: O_2  and  C_3
REMARK    2  A    between atoms: C_3  and  C_4
REMARK    3  A    between atoms: C_4  and  O_5
REMARK    4  A    between atoms: O_5  and  C_6
REMARK    5  A    between atoms: C_8  and  C_12
REMARK    6  A    between atoms: C_15  and  C_17
REMARK    7  A    between atoms: N_21  and  C_22
REMARK    8  A    between atoms: C_22  and  C_23
REMARK    9  A    between atoms: C_25  and  O_26
REMARK   10  A    between atoms: C_28  and  O_29
REMARK   11  A    between atoms: C_31  and  O_32
REMARK                            x       y       z     vdW  Elec       q    Type
REMARK                         _______ _______ _______ _____ _____    ______ ____
ROOT
ATOM     17  C   UNL     1      -0.704   1.467  24.965  0.00  0.00    +0.138 C 
ATOM     18  C   UNL     1      -0.391   1.901  25.594  0.00  0.00    +0.027 C 
ATOM     19  C   UNL     1      -0.977   2.416  25.864  0.00  0.00    +0.019 C 
ATOM     20  C   UNL     1      -1.651   2.299  25.404  0.00  0.00    +0.073 C 
ATOM     21  N   UNL     1      -1.483   1.713  24.848  0.00  0.00    -0.263 NA
ENDROOT
BRANCH  17  15
ATOM     12  C   UNL     1       0.520   0.292  23.669  0.00  0.00    +0.221 A 
ATOM     13  N   UNL     1       0.088  -0.295  24.056  0.00  0.00    -0.054 NA
ATOM     14  O   UNL     1      -0.423   0.074  24.589  0.00  0.00    -0.336 OA
ATOM     15  C   UNL     1      -0.307   0.888  24.531  0.00  0.00    +0.251 A 
ATOM     16  N   UNL     1       0.276   1.023  23.963  0.00  0.00    -0.188 NA
BRANCH  12   8
ATOM      6  C   UNL     1       2.421   0.376  22.601  0.00  0.00    +0.142 A 
ATOM      7  C   UNL     1       1.846   0.499  23.179  0.00  0.00    +0.059 A 
ATOM      8  C   UNL     1       1.095   0.169  23.090  0.00  0.00    +0.123 A 
ATOM      9  N   UNL     1       0.918  -0.283  22.424  0.00  0.00    -0.240 NA
ATOM     10  C   UNL     1       1.493  -0.406  21.845  0.00  0.00    +0.102 A 
ATOM     11  C   UNL     1       2.245  -0.077  21.933  0.00  0.00    +0.058 A 
BRANCH   6   5
ATOM      5  O   UNL     1       3.172   0.706  22.688  0.00  0.00    -0.473 OA
BRANCH   5   4
ATOM      4  C   UNL     1       3.824   0.218  22.822  0.00  0.00    +0.237 C 
BRANCH   4   3
ATOM      3  C   UNL     1       4.546   0.548  23.048  0.00  0.00    +0.189 C 
BRANCH   3   2
ATOM      1  C   UNL     1       5.633   0.074  23.845  0.00  0.00    +0.174 C 
ATOM      2  O   UNL     1       5.209   0.065  23.138  0.00  0.00    -0.347 OA
ENDBRANCH   3   2
ENDBRANCH   4   3
ENDBRANCH   5   4
ENDBRANCH   6   5
ENDBRANCH  12   8
ENDBRANCH  17  15
BRANCH  21  22
ATOM     22  C   UNL     1      -2.001   1.424  24.276  0.00  0.00    +0.100 C 
BRANCH  22  23
ATOM     23  C   UNL     1      -2.816   1.504  24.378  0.00  0.00    +0.000 A 
ATOM     24  C   UNL     1      -3.247   0.903  24.745  0.00  0.00    +0.037 A 
ATOM     25  C   UNL     1      -4.061   0.984  24.848  0.00  0.00    +0.175 A 
ATOM     28  C   UNL     1      -4.445   1.664  24.585  0.00  0.00    +0.206 A 
ATOM     31  C   UNL     1      -4.015   2.265  24.218  0.00  0.00    +0.175 A 
ATOM     34  C   UNL     1      -3.200   2.185  24.115  0.00  0.00    +0.037 A 
BRANCH  25  26
ATOM     26  O   UNL     1      -4.492   0.383  25.215  0.00  0.00    -0.468 OA
ATOM     27  C   UNL     1      -4.196  -0.388  25.229  0.00  0.00    +0.253 C 
ENDBRANCH  25  26
BRANCH  28  29
ATOM     29  O   UNL     1      -5.260   1.745  24.687  0.00  0.00    -0.465 OA
ATOM     30  C   UNL     1      -5.556   2.102  25.370  0.00  0.00    +0.253 C 
ENDBRANCH  28  29
BRANCH  31  32
ATOM     32  O   UNL     1      -4.399   2.947  23.954  0.00  0.00    -0.468 OA
ATOM     33  C   UNL     1      -4.069   3.396  23.346  0.00  0.00    +0.253 C 
ENDBRANCH  31  32
ENDBRANCH  22  23
ENDBRANCH  21  22
TORSDOF 11
ENDMDL
MODEL 6
REMARK VINA RESULT:      -8.0      1.266      4.826
REMARK  Name = 
REMARK  11 active torsions:
REMARK  status: ('A' for Active; 'I' for Inactive)
REMARK    1  A    between atoms: O_2  and  C_3
REMARK    2  A    between atoms: C_3  and  C_4
REMARK    3  A    between atoms: C_4  and  O_5
REMARK    4  A    between atoms: O_5  and  C_6
REMARK    5  A    between atoms: C_8  and  C_12
REMARK    6  A    between atoms: C_15  and  C_17
REMARK    7  A    between atoms: N_21  and  C_22
REMARK    8  A    between atoms: C_22  and  C_23
REMARK    9  A    between atoms: C_25  and  O_26
REMARK   10  A    between atoms: C_28  and  O_29
REMARK   11  A    between atoms: C_31  and  O_32
REMARK                            x       y       z     vdW  Elec       q    Type
REMARK                         _______ _______ _______ _____ _____    ______ ____
ROOT
ATOM     17  C   UNL     1      -0.905   1.935  25.341  0.00  0.00    +0.138 C 
ATOM     18  C   UNL     1      -0.505   2.317  25.953  0.00  0.00    +0.027 C 
ATOM     19  C   UNL     1      -0.898   3.026  26.111  0.00  0.00    +0.019 C 
ATOM     20  C   UNL     1      -1.540   3.082  25.596  0.00  0.00    +0.073 C 
ATOM     21  N   UNL     1      -1.544   2.407  25.120  0.00  0.00    -0.263 NA
ENDROOT
BRANCH  17  15
ATOM     12  C   UNL     1      -0.609  -0.105  24.786  0.00  0.00    +0.221 A 
ATOM     13  N   UNL     1      -0.166   0.284  24.207  0.00  0.00    -0.054 NA
ATOM     14  O   UNL     1      -0.223   1.096  24.345  0.00  0.00    -0.336 OA
ATOM     15  C   UNL     1      -0.701   1.209  25.008  0.00  0.00    +0.251 A 
ATOM     16  N   UNL     1      -0.939   0.467  25.280  0.00  0.00    -0.188 NA
BRANCH  12   8
ATOM      6  C   UNL     1      -1.443  -2.110  24.568  0.00  0.00    +0.142 A 
ATOM      7  C   UNL     1      -1.347  -1.293  24.497  0.00  0.00    +0.059 A 
ATOM      8  C   UNL     1      -0.704  -0.921  24.856  0.00  0.00    +0.123 A 
ATOM      9  N   UNL     1      -0.157  -1.364  25.285  0.00  0.00    -0.240 NA
ATOM     10  C   UNL     1      -0.252  -2.181  25.355  0.00  0.00    +0.102 A 
ATOM     11  C   UNL     1      -0.895  -2.554  24.997  0.00  0.00    +0.058 A 
BRANCH   6   5
ATOM      5  O   UNL     1      -2.085  -2.483  24.210  0.00  0.00    -0.473 OA
BRANCH   5   4
ATOM      4  C   UNL     1      -2.829  -2.455  24.564  0.00  0.00    +0.237 C 
BRANCH   4   3
ATOM      3  C   UNL     1      -3.474  -2.818  24.198  0.00  0.00    +0.189 C 
BRANCH   3   2
ATOM      1  C   UNL     1      -4.729  -2.514  23.586  0.00  0.00    +0.174 C 
ATOM      2  O   UNL     1      -4.219  -2.466  24.233  0.00  0.00    -0.347 OA
ENDBRANCH   3   2
ENDBRANCH   4   3
ENDBRANCH   5   4
ENDBRANCH   6   5
ENDBRANCH  12   8
ENDBRANCH  17  15
BRANCH  21  22
ATOM     22  C   UNL     1      -2.092   2.236  24.528  0.00  0.00    +0.100 C 
BRANCH  22  23
ATOM     23  C   UNL     1      -2.883   2.449  24.623  0.00  0.00    +0.000 A 
ATOM     24  C   UNL     1      -3.137   3.203  24.404  0.00  0.00    +0.037 A 
ATOM     25  C   UNL     1      -3.928   3.416  24.499  0.00  0.00    +0.175 A 
ATOM     28  C   UNL     1      -4.466   2.875  24.814  0.00  0.00    +0.206 A 
ATOM     31  C   UNL     1      -4.213   2.121  25.033  0.00  0.00    +0.175 A 
ATOM     34  C   UNL     1      -3.421   1.908  24.938  0.00  0.00    +0.037 A 
BRANCH  25  26
ATOM     26  O   UNL     1      -4.182   4.170  24.280  0.00  0.00    -0.468 OA
ATOM     27  C   UNL     1      -3.876   4.527  23.602  0.00  0.00    +0.253 C 
ENDBRANCH  25  26
BRANCH  28  29
ATOM     29  O   UNL     1      -5.258   3.088  24.909  0.00  0.00    -0.465 OA
ATOM     30  C   UNL     1      -5.511   3.423  25.619  0.00  0.00    +0.253 C 
ENDBRANCH  28  29
BRANCH  31  32
ATOM     32  O   UNL     1      -4.750   1.580  25.348  0.00  0.00    -0.468 OA
ATOM     33  C   UNL     1      -4.643   0.772  25.223  0.00  0.00    +0.253 C 
ENDBRANCH  31  32
ENDBRANCH  22  23
ENDBRANCH  21  22
TORSDOF 11
ENDMDL
MODEL 7
REMARK VINA RESULT:      -7.9      1.795      5.310
REMARK  Name = 
REMARK  11 active torsions:
REMARK  status: ('A' for Active; 'I' for Inactive)
REMARK    1  A    between atoms: O_2  and  C_3
REMARK    2  A    between atoms: C_3  and  C_4
REMARK    3  A    between atoms: C_4  and  O_5
REMARK    4  A    between atoms: O_5  and  C_6
REMARK    5  A    between atoms: C_8  and  C_12
REMARK    6  A    between atoms: C_15  and  C_17
REMARK    7  A    between atoms: N_21  and  C_22
REMARK    8  A    between atoms: C_22  and  C_23
REMARK    9  A    between atoms: C_25  and  O_26
REMARK   10  A    between atoms: C_28  and  O_29
REMARK   11  A    between atoms: C_31  and  O_32
REMARK                            x       y       z     vdW  Elec       q    Type
REMARK                         _______ _______ _______ _____ _____    ______ ____
ROOT
ATOM     17  C   UNL     1      -1.852   3.079  25.103  0.00  0.00    +0.138 C 
ATOM     18  C   UNL     1      -1.483   3.476  25.725  0.00  0.00    +0.027 C 
ATOM     19  C   UNL     1      -2.059   3.906  26.130  0.00  0.00    +0.019 C 
ATOM     20  C   UNL     1      -2.784   3.774  25.759  0.00  0.00    +0.073 C 
ATOM     21  N   UNL     1      -2.656   3.263  25.124  0.00  0.00    -0.263 NA
ENDROOT
BRANCH  17  15
ATOM     12  C   UNL     1      -0.853   1.540  24.011  0.00  0.00    +0.221 A 
ATOM     13  N   UNL     1      -0.968   2.105  23.421  0.00  0.00    -0.054 NA
ATOM     14  O   UNL     1      -1.356   2.751  23.758  0.00  0.00    -0.336 OA
ATOM     15  C   UNL     1      -1.481   2.584  24.556  0.00  0.00    +0.251 A 
ATOM     16  N   UNL     1      -1.170   1.836  24.712  0.00  0.00    -0.188 NA
BRANCH  12   8
ATOM      6  C   UNL     1       0.537   0.004  23.324  0.00  0.00    +0.142 A 
ATOM      7  C   UNL     1       0.169   0.737  23.419  0.00  0.00    +0.059 A 
ATOM      8  C   UNL     1      -0.486   0.807  23.916  0.00  0.00    +0.123 A 
ATOM      9  N   UNL     1      -0.773   0.147  24.317  0.00  0.00    -0.240 NA
ATOM     10  C   UNL     1      -0.406  -0.586  24.221  0.00  0.00    +0.102 A 
ATOM     11  C   UNL     1       0.249  -0.658  23.725  0.00  0.00    +0.058 A 
BRANCH   6   5
ATOM      5  O   UNL     1       1.192  -0.068  22.828  0.00  0.00    -0.473 OA
BRANCH   5   4
ATOM      4  C   UNL     1       1.917   0.256  23.051  0.00  0.00    +0.237 C 
BRANCH   4   3
ATOM      3  C   UNL     1       2.580   0.153  22.570  0.00  0.00    +0.189 C 
BRANCH   3   2
ATOM      1  C   UNL     1       3.964   0.482  22.701  0.00  0.00    +0.174 C 
ATOM      2  O   UNL     1       3.183   0.716  22.575  0.00  0.00    -0.347 OA
ENDBRANCH   3   2
ENDBRANCH   4   3
ENDBRANCH   5   4
ENDBRANCH   6   5
ENDBRANCH  12   8
ENDBRANCH  17  15
BRANCH  21  22
ATOM     22  C   UNL     1      -3.230   2.984  24.602  0.00  0.00    +0.100 C 
BRANCH  22  23
ATOM     23  C   UNL     1      -3.961   2.731  24.889  0.00  0.00    +0.000 A 
ATOM     24  C   UNL     1      -4.128   1.925  24.939  0.00  0.00    +0.037 A 
ATOM     25  C   UNL     1      -4.858   1.672  25.226  0.00  0.00    +0.175 A 
ATOM     28  C   UNL     1      -5.422   2.224  25.464  0.00  0.00    +0.206 A 
ATOM     31  C   UNL     1      -5.256   3.031  25.414  0.00  0.00    +0.175 A 
ATOM     34  C   UNL     1      -4.525   3.284  25.127  0.00  0.00    +0.037 A 
BRANCH  25  26
ATOM     26  O   UNL     1      -5.025   0.865  25.276  0.00  0.00    -0.468 OA
ATOM     27  C   UNL     1      -4.532   0.318  24.903  0.00  0.00    +0.253 C 
ENDBRANCH  25  26
BRANCH  28  29
ATOM     29  O   UNL     1      -6.153   1.971  25.751  0.00  0.00    -0.465 OA
ATOM     30  C   UNL     1      -6.258   1.850  26.561  0.00  0.00    +0.253 C 
ENDBRANCH  28  29
BRANCH  31  32
ATOM     32  O   UNL     1      -5.820   3.585  25.652  0.00  0.00    -0.468 OA
ATOM     33  C   UNL     1      -5.802   4.349  25.344  0.00  0.00    +0.253 C 
ENDBRANCH  31  32
ENDBRANCH  22  23
ENDBRANCH  21  22
TORSDOF 11
ENDMDL
