REMARK  Name = 
REMARK  8 active torsions:
REMARK  status: ('A' for Active; 'I' for Inactive)
REMARK    1  A    between atoms: O_2  and  C_3
REMARK    2  A    between atoms: C_3  and  C_5
REMARK    3  A    between atoms: N_10  and  S_11
REMARK    4  A    between atoms: S_11  and  C_14
REMARK    5  A    between atoms: C_19  and  N_20
REMARK    6  A    between atoms: N_27  and  C_28
REMARK    7  A    between atoms: C_28  and  C_29
REMARK    8  A    between atoms: C_32  and  O_33
REMARK                            x       y       z     vdW  Elec       q    Type
REMARK                         _______ _______ _______ _____ _____    ______ ____
ROOT
ATOM      5  C   UNL     1       0.715   2.062   0.000  0.00  0.00    +0.184 C 
ATOM      6  C   UNL     1       0.715   2.888   0.000  0.00  0.00    +0.076 C 
ATOM      7  C   UNL     1       1.429   3.300   0.000  0.00  0.00    +0.076 A 
ATOM      8  C   UNL     1       2.143   2.888   0.000  0.00  0.00    +0.070 A 
ATOM      9  C   UNL     1       2.143   2.062   0.000  0.00  0.00    +0.141 C 
ATOM     10  N   UNL     1       1.429   1.650   0.000  0.00  0.00    -0.140 NA
ATOM     27  N   UNL     1       2.756   3.439   0.000  0.00  0.00    -0.307 N 
ATOM     37  C   UNL     1       2.421   4.193   0.000  0.00  0.00    +0.178 A 
ATOM     38  N   UNL     1       1.601   4.107   0.000  0.00  0.00    -0.229 NA
ENDROOT
BRANCH  10  11
ATOM     11  S   UNL     1       1.429   0.825   0.000  0.00  0.00    +0.064 S 
ATOM     12  O   UNL     1       2.254   0.825   0.000  0.00  0.00    -0.153 OA
ATOM     13  O   UNL     1       0.604   0.825   0.000  0.00  0.00    -0.153 OA
BRANCH  11  14
ATOM     14  C   UNL     1       1.429   0.000   0.000  0.00  0.00    +0.122 A 
ATOM     15  C   UNL     1       2.143  -0.412   0.000  0.00  0.00    +0.020 A 
ATOM     16  C   UNL     1       2.858   0.000   0.000  0.00  0.00    +0.001 A 
ATOM     17  C   UNL     1       3.572  -0.412   0.000  0.00  0.00    +0.001 A 
ATOM     18  C   UNL     1       3.572  -1.238   0.000  0.00  0.00    +0.015 A 
ATOM     19  C   UNL     1       2.858  -1.650   0.000  0.00  0.00    +0.048 A 
ATOM     23  C   UNL     1       2.143  -1.238   0.000  0.00  0.00    +0.015 A 
ATOM     24  C   UNL     1       1.429  -1.650   0.000  0.00  0.00    +0.001 A 
ATOM     25  C   UNL     1       0.715  -1.238   0.000  0.00  0.00    +0.001 A 
ATOM     26  C   UNL     1       0.715  -0.412   0.000  0.00  0.00    +0.020 A 
BRANCH  19  20
ATOM     20  N   UNL     1       2.858  -2.475   0.000  0.00  0.00    -0.304 N 
ATOM     21  C   UNL     1       3.572  -2.888   0.000  0.00  0.00    +0.112 C 
ATOM     22  C   UNL     1       2.143  -2.888   0.000  0.00  0.00    +0.112 C 
ENDBRANCH  19  20
ENDBRANCH  11  14
ENDBRANCH  10  11
BRANCH   5   3
ATOM      3  C   UNL     1       0.000   1.650   0.000  0.00  0.00    +0.334 C 
ATOM      4  O   UNL     1      -0.715   2.062   0.000  0.00  0.00    -0.249 OA
BRANCH   3   2
ATOM      1  C   UNL     1      -0.715   0.412   0.000  0.00  0.00    +0.256 C 
ATOM      2  O   UNL     1       0.000   0.825   0.000  0.00  0.00    -0.443 OA
ENDBRANCH   3   2
ENDBRANCH   5   3
BRANCH  27  28
ATOM     28  C   UNL     1       3.563   3.268   0.000  0.00  0.00    +0.134 C 
BRANCH  28  29
ATOM     29  C   UNL     1       3.818   2.483   0.000  0.00  0.00    +0.001 A 
ATOM     30  C   UNL     1       4.625   2.312   0.000  0.00  0.00    +0.001 A 
ATOM     31  C   UNL     1       4.880   1.527   0.000  0.00  0.00    +0.037 A 
ATOM     32  C   UNL     1       4.328   0.914   0.000  0.00  0.00    +0.139 A 
ATOM     35  C   UNL     1       3.521   1.086   0.000  0.00  0.00    +0.037 A 
ATOM     36  C   UNL     1       3.266   1.870   0.000  0.00  0.00    +0.001 A 
BRANCH  32  33
ATOM     33  O   UNL     1       4.583   0.130   0.000  0.00  0.00    -0.471 OA
ATOM     34  C   UNL     1       5.390  -0.042   0.000  0.00  0.00    +0.252 C 
ENDBRANCH  32  33
ENDBRANCH  28  29
ENDBRANCH  27  28
TORSDOF 8
