MODEL 1
REMARK VINA RESULT:      -9.4      0.000      0.000
REMARK  Name = 
REMARK  8 active torsions:
REMARK  status: ('A' for Active; 'I' for Inactive)
REMARK    1  A    between atoms: N_3  and  C_4
REMARK    2  A    between atoms: C_8  and  N_12
REMARK    3  A    between atoms: C_16  and  O_17
REMARK    4  A    between atoms: O_17  and  C_18
REMARK    5  A    between atoms: C_21  and  N_24
REMARK    6  A    between atoms: N_29  and  C_30
REMARK    7  A    between atoms: C_33  and  O_34
REMARK    8  A    between atoms: O_34  and  C_35
REMARK                            x       y       z     vdW  Elec       q    Type
REMARK                         _______ _______ _______ _____ _____    ______ ____
ROOT
ATOM      4  C   UNL     1      -0.079   1.873  24.247  0.00  0.00    +0.156 C 
ATOM      5  C   UNL     1      -0.461   2.174  23.580  0.00  0.00    +0.166 C 
ATOM      6  O   UNL     1      -0.704   2.943  23.751  0.00  0.00    -0.350 OA
ATOM      7  C   UNL     1      -0.473   3.118  24.522  0.00  0.00    +0.169 C 
ATOM      8  C   UNL     1      -0.480   3.701  25.106  0.00  0.00    +0.170 C 
ATOM      9  C   UNL     1      -0.099   3.401  25.773  0.00  0.00    +0.169 C 
ATOM     10  O   UNL     1       0.144   2.632  25.602  0.00  0.00    -0.350 OA
ATOM     11  C   UNL     1      -0.087   2.457  24.829  0.00  0.00    +0.167 C 
ENDROOT
BRANCH   8  12
ATOM     12  N   UNL     1      -0.811   4.454  25.035  0.00  0.00    -0.180 N 
ATOM     13  N   UNL     1      -0.563   5.046  24.515  0.00  0.00    -0.040 NA
ATOM     14  N   UNL     1      -1.047   5.704  24.630  0.00  0.00    -0.020 NA
ATOM     15  N   UNL     1      -1.593   5.520  25.219  0.00  0.00    -0.071 NA
ATOM     16  C   UNL     1      -1.447   4.747  25.469  0.00  0.00    +0.343 A 
BRANCH  16  17
ATOM     17  O   UNL     1      -1.865   4.339  26.053  0.00  0.00    -0.421 OA
BRANCH  17  18
ATOM     18  C   UNL     1      -2.641   4.097  25.912  0.00  0.00    +0.149 A 
ATOM     19  C   UNL     1      -3.082   4.455  25.314  0.00  0.00    +0.039 A 
ATOM     20  C   UNL     1      -3.858   4.213  25.172  0.00  0.00    +0.021 A 
ATOM     21  C   UNL     1      -4.193   3.613  25.630  0.00  0.00    +0.066 A 
ATOM     22  C   UNL     1      -3.751   3.255  26.228  0.00  0.00    +0.021 A 
ATOM     23  C   UNL     1      -2.975   3.498  26.369  0.00  0.00    +0.039 A 
BRANCH  21  24
ATOM     24  N   UNL     1      -4.969   3.370  25.489  0.00  0.00    -0.286 N 
ATOM     25  C   UNL     1      -5.200   2.639  25.187  0.00  0.00    +0.102 A 
ATOM     26  C   UNL     1      -6.024   2.632  25.136  0.00  0.00    +0.120 A 
ATOM     27  N   UNL     1      -6.301   3.360  25.408  0.00  0.00    -0.222 NA
ATOM     28  C   UNL     1      -5.649   3.816  25.626  0.00  0.00    +0.183 A 
ENDBRANCH  21  24
ENDBRANCH  17  18
ENDBRANCH  16  17
ENDBRANCH   8  12
BRANCH   4   3
ATOM      1  O   UNL     1      -1.057   0.549  24.355  0.00  0.00    -0.249 OA
ATOM      2  C   UNL     1      -0.237   0.458  24.372  0.00  0.00    +0.344 C 
ATOM      3  N   UNL     1       0.252   1.121  24.318  0.00  0.00    -0.184 NA
ATOM     29  N   UNL     1       0.094  -0.294  24.444  0.00  0.00    -0.161 NA
BRANCH  29  30
ATOM     30  C   UNL     1      -0.395  -0.957  24.498  0.00  0.00    +0.075 A 
ATOM     31  C   UNL     1      -0.642  -1.228  25.236  0.00  0.00    +0.020 A 
ATOM     32  C   UNL     1      -1.131  -1.891  25.290  0.00  0.00    +0.039 A 
ATOM     33  C   UNL     1      -1.373  -2.282  24.605  0.00  0.00    +0.145 A 
ATOM     41  C   UNL     1      -1.126  -2.010  23.866  0.00  0.00    +0.039 A 
ATOM     42  C   UNL     1      -0.637  -1.347  23.813  0.00  0.00    +0.020 A 
BRANCH  33  34
ATOM     34  O   UNL     1      -1.861  -2.944  24.658  0.00  0.00    -0.453 OA
BRANCH  34  35
ATOM     35  C   UNL     1      -2.674  -2.868  24.543  0.00  0.00    +0.145 A 
ATOM     36  C   UNL     1      -3.142  -2.515  25.125  0.00  0.00    +0.037 A 
ATOM     37  C   UNL     1      -3.955  -2.439  25.010  0.00  0.00    +0.003 A 
ATOM     38  C   UNL     1      -4.301  -2.715  24.314  0.00  0.00    +0.000 A 
ATOM     39  C   UNL     1      -3.834  -3.068  23.732  0.00  0.00    +0.003 A 
ATOM     40  C   UNL     1      -3.020  -3.144  23.848  0.00  0.00    +0.037 A 
ENDBRANCH  34  35
ENDBRANCH  33  34
ENDBRANCH  29  30
ENDBRANCH   4   3
TORSDOF 8
ENDMDL
MODEL 2
REMARK VINA RESULT:      -9.4      3.207      5.342
REMARK  Name = 
REMARK  8 active torsions:
REMARK  status: ('A' for Active; 'I' for Inactive)
REMARK    1  A    between atoms: N_3  and  C_4
REMARK    2  A    between atoms: C_8  and  N_12
REMARK    3  A    between atoms: C_16  and  O_17
REMARK    4  A    between atoms: O_17  and  C_18
REMARK    5  A    between atoms: C_21  and  N_24
REMARK    6  A    between atoms: N_29  and  C_30
REMARK    7  A    between atoms: C_33  and  O_34
REMARK    8  A    between atoms: O_34  and  C_35
REMARK                            x       y       z     vdW  Elec       q    Type
REMARK                         _______ _______ _______ _____ _____    ______ ____
ROOT
ATOM      4  C   UNL     1      -0.395  -0.374  23.744  0.00  0.00    +0.156 C 
ATOM      5  C   UNL     1      -0.295   0.105  24.408  0.00  0.00    +0.166 C 
ATOM      6  O   UNL     1      -0.934  -0.025  24.913  0.00  0.00    -0.350 OA
ATOM      7  C   UNL     1      -1.428  -0.583  24.562  0.00  0.00    +0.169 C 
ATOM      8  C   UNL     1      -2.129  -1.009  24.656  0.00  0.00    +0.170 C 
ATOM      9  C   UNL     1      -2.228  -1.488  23.992  0.00  0.00    +0.169 C 
ATOM     10  O   UNL     1      -1.589  -1.358  23.487  0.00  0.00    -0.350 OA
ATOM     11  C   UNL     1      -1.095  -0.799  23.839  0.00  0.00    +0.167 C 
ENDROOT
BRANCH   8  12
ATOM     12  N   UNL     1      -2.640  -0.964  25.302  0.00  0.00    -0.180 N 
ATOM     13  N   UNL     1      -2.537  -1.338  26.030  0.00  0.00    -0.040 NA
ATOM     14  N   UNL     1      -3.177  -1.142  26.511  0.00  0.00    -0.020 NA
ATOM     15  N   UNL     1      -3.676  -0.647  26.081  0.00  0.00    -0.071 NA
ATOM     16  C   UNL     1      -3.345  -0.537  25.334  0.00  0.00    +0.343 A 
BRANCH  16  17
ATOM     17  O   UNL     1      -3.662  -0.079  24.725  0.00  0.00    -0.421 OA
BRANCH  17  18
ATOM     18  C   UNL     1      -4.056   0.625  24.900  0.00  0.00    +0.149 A 
ATOM     19  C   UNL     1      -3.642   1.337  24.911  0.00  0.00    +0.039 A 
ATOM     20  C   UNL     1      -4.035   2.041  25.085  0.00  0.00    +0.021 A 
ATOM     21  C   UNL     1      -4.844   2.031  25.249  0.00  0.00    +0.066 A 
ATOM     22  C   UNL     1      -5.259   1.318  25.238  0.00  0.00    +0.021 A 
ATOM     23  C   UNL     1      -4.865   0.615  25.063  0.00  0.00    +0.039 A 
BRANCH  21  24
ATOM     24  N   UNL     1      -5.239   2.734  25.424  0.00  0.00    -0.286 N 
ATOM     25  C   UNL     1      -4.997   3.492  25.206  0.00  0.00    +0.102 A 
ATOM     26  C   UNL     1      -5.552   4.031  25.495  0.00  0.00    +0.120 A 
ATOM     27  N   UNL     1      -6.137   3.604  25.891  0.00  0.00    -0.222 NA
ATOM     28  C   UNL     1      -5.943   2.803  25.848  0.00  0.00    +0.183 A 
ENDBRANCH  21  24
ENDBRANCH  17  18
ENDBRANCH  16  17
ENDBRANCH   8  12
BRANCH   4   3
ATOM      1  O   UNL     1       1.164   0.148  23.888  0.00  0.00    -0.249 OA
ATOM      2  C   UNL     1       0.896  -0.158  23.169  0.00  0.00    +0.344 C 
ATOM      3  N   UNL     1       0.117  -0.419  23.098  0.00  0.00    -0.184 NA
ATOM     29  N   UNL     1       1.407  -0.204  22.524  0.00  0.00    -0.161 NA
BRANCH  29  30
ATOM     30  C   UNL     1       2.187   0.057  22.596  0.00  0.00    +0.075 A 
ATOM     31  C   UNL     1       2.344   0.847  22.770  0.00  0.00    +0.020 A 
ATOM     32  C   UNL     1       3.123   1.108  22.842  0.00  0.00    +0.039 A 
ATOM     33  C   UNL     1       3.746   0.577  22.738  0.00  0.00    +0.145 A 
ATOM     41  C   UNL     1       3.590  -0.214  22.564  0.00  0.00    +0.039 A 
ATOM     42  C   UNL     1       2.810  -0.474  22.492  0.00  0.00    +0.020 A 
BRANCH  33  34
ATOM     34  O   UNL     1       4.526   0.837  22.810  0.00  0.00    -0.453 OA
BRANCH  34  35
ATOM     35  C   UNL     1       5.052   0.434  23.301  0.00  0.00    +0.145 A 
ATOM     36  C   UNL     1       5.589  -0.103  22.978  0.00  0.00    +0.037 A 
ATOM     37  C   UNL     1       6.115  -0.506  23.470  0.00  0.00    +0.003 A 
ATOM     38  C   UNL     1       6.104  -0.371  24.284  0.00  0.00    +0.000 A 
ATOM     39  C   UNL     1       5.567   0.166  24.607  0.00  0.00    +0.003 A 
ATOM     40  C   UNL     1       5.041   0.568  24.114  0.00  0.00    +0.037 A 
ENDBRANCH  34  35
ENDBRANCH  33  34
ENDBRANCH  29  30
ENDBRANCH   4   3
TORSDOF 8
ENDMDL
MODEL 3
REMARK VINA RESULT:      -9.0     14.575     17.675
REMARK  Name = 
REMARK  8 active torsions:
REMARK  status: ('A' for Active; 'I' for Inactive)
REMARK    1  A    between atoms: N_3  and  C_4
REMARK    2  A    between atoms: C_8  and  N_12
REMARK    3  A    between atoms: C_16  and  O_17
REMARK    4  A    between atoms: O_17  and  C_18
REMARK    5  A    between atoms: C_21  and  N_24
REMARK    6  A    between atoms: N_29  and  C_30
REMARK    7  A    between atoms: C_33  and  O_34
REMARK    8  A    between atoms: O_34  and  C_35
REMARK                            x       y       z     vdW  Elec       q    Type
REMARK                         _______ _______ _______ _____ _____    ______ ____
ROOT
ATOM      4  C   UNL     1      -8.792  -9.842  12.821  0.00  0.00    +0.156 C 
ATOM      5  C   UNL     1      -8.314  -9.206  13.039  0.00  0.00    +0.166 C 
ATOM      6  O   UNL     1      -8.528  -8.977  13.802  0.00  0.00    -0.350 OA
ATOM      7  C   UNL     1      -9.136  -9.471  14.056  0.00  0.00    +0.169 C 
ATOM      8  C   UNL     1      -9.644  -9.637  14.685  0.00  0.00    +0.170 C 
ATOM      9  C   UNL     1     -10.121 -10.273  14.468  0.00  0.00    +0.169 C 
ATOM     10  O   UNL     1      -9.908 -10.502  13.704  0.00  0.00    -0.350 OA
ATOM     11  C   UNL     1      -9.299 -10.006  13.450  0.00  0.00    +0.167 C 
ENDROOT
BRANCH   8  12
ATOM     12  N   UNL     1      -9.670  -9.235  15.405  0.00  0.00    -0.180 N 
ATOM     13  N   UNL     1     -10.040  -8.509  15.543  0.00  0.00    -0.040 NA
ATOM     14  N   UNL     1      -9.929  -8.314  16.337  0.00  0.00    -0.020 NA
ATOM     15  N   UNL     1      -9.492  -8.918  16.689  0.00  0.00    -0.071 NA
ATOM     16  C   UNL     1      -9.332  -9.487  16.114  0.00  0.00    +0.343 A 
BRANCH  16  17
ATOM     17  O   UNL     1      -8.908 -10.186  16.227  0.00  0.00    -0.421 OA
BRANCH  17  18
ATOM     18  C   UNL     1      -8.448 -10.284  16.905  0.00  0.00    +0.149 A 
ATOM     19  C   UNL     1      -7.675  -9.998  16.924  0.00  0.00    +0.039 A 
ATOM     20  C   UNL     1      -7.215 -10.096  17.601  0.00  0.00    +0.021 A 
ATOM     21  C   UNL     1      -7.529 -10.480  18.261  0.00  0.00    +0.066 A 
ATOM     22  C   UNL     1      -8.303 -10.766  18.242  0.00  0.00    +0.021 A 
ATOM     23  C   UNL     1      -8.762 -10.668  17.564  0.00  0.00    +0.039 A 
BRANCH  21  24
ATOM     24  N   UNL     1      -7.069 -10.579  18.939  0.00  0.00    -0.286 N 
ATOM     25  C   UNL     1      -6.245 -10.583  18.969  0.00  0.00    +0.102 A 
ATOM     26  C   UNL     1      -6.018 -10.697  19.755  0.00  0.00    +0.120 A 
ATOM     27  N   UNL     1      -6.704 -10.763  20.209  0.00  0.00    -0.222 NA
ATOM     28  C   UNL     1      -7.353 -10.690  19.705  0.00  0.00    +0.183 A 
ENDBRANCH  21  24
ENDBRANCH  17  18
ENDBRANCH  16  17
ENDBRANCH   8  12
BRANCH   4   3
ATOM      1  O   UNL     1      -7.464  -9.709  11.850  0.00  0.00    -0.249 OA
ATOM      2  C   UNL     1      -8.102 -10.178  11.615  0.00  0.00    +0.344 C 
ATOM      3  N   UNL     1      -8.765 -10.244  12.101  0.00  0.00    -0.184 NA
ATOM     29  N   UNL     1      -8.075 -10.579  10.895  0.00  0.00    -0.161 NA
BRANCH  29  30
ATOM     30  C   UNL     1      -7.412 -10.513  10.409  0.00  0.00    +0.075 A 
ATOM     31  C   UNL     1      -6.678 -10.780  10.674  0.00  0.00    +0.020 A 
ATOM     32  C   UNL     1      -6.015 -10.713  10.188  0.00  0.00    +0.039 A 
ATOM     33  C   UNL     1      -6.086 -10.379   9.437  0.00  0.00    +0.145 A 
ATOM     41  C   UNL     1      -6.820 -10.112   9.172  0.00  0.00    +0.039 A 
ATOM     42  C   UNL     1      -7.483 -10.179   9.658  0.00  0.00    +0.020 A 
BRANCH  33  34
ATOM     34  O   UNL     1      -5.423 -10.312   8.950  0.00  0.00    -0.453 OA
BRANCH  34  35
ATOM     35  C   UNL     1      -4.764  -9.886   9.206  0.00  0.00    +0.145 A 
ATOM     36  C   UNL     1      -4.731  -9.070   9.090  0.00  0.00    +0.037 A 
ATOM     37  C   UNL     1      -4.072  -8.644   9.345  0.00  0.00    +0.003 A 
ATOM     38  C   UNL     1      -3.447  -9.035   9.717  0.00  0.00    +0.000 A 
ATOM     39  C   UNL     1      -3.481  -9.851   9.833  0.00  0.00    +0.003 A 
ATOM     40  C   UNL     1      -4.140 -10.277   9.577  0.00  0.00    +0.037 A 
ENDBRANCH  34  35
ENDBRANCH  33  34
ENDBRANCH  29  30
ENDBRANCH   4   3
TORSDOF 8
ENDMDL
MODEL 4
REMARK VINA RESULT:      -8.9     14.546     17.425
REMARK  Name = 
REMARK  8 active torsions:
REMARK  status: ('A' for Active; 'I' for Inactive)
REMARK    1  A    between atoms: N_3  and  C_4
REMARK    2  A    between atoms: C_8  and  N_12
REMARK    3  A    between atoms: C_16  and  O_17
REMARK    4  A    between atoms: O_17  and  C_18
REMARK    5  A    between atoms: C_21  and  N_24
REMARK    6  A    between atoms: N_29  and  C_30
REMARK    7  A    between atoms: C_33  and  O_34
REMARK    8  A    between atoms: O_34  and  C_35
REMARK                            x       y       z     vdW  Elec       q    Type
REMARK                         _______ _______ _______ _____ _____    ______ ____
ROOT
ATOM      4  C   UNL     1      -7.396  -9.597  11.868  0.00  0.00    +0.156 C 
ATOM      5  C   UNL     1      -7.316  -8.855  12.220  0.00  0.00    +0.166 C 
ATOM      6  O   UNL     1      -7.782  -8.846  12.901  0.00  0.00    -0.350 OA
ATOM      7  C   UNL     1      -8.149  -9.580  12.970  0.00  0.00    +0.169 C 
ATOM      8  C   UNL     1      -8.664 -10.029  13.432  0.00  0.00    +0.170 C 
ATOM      9  C   UNL     1      -8.744 -10.771  13.080  0.00  0.00    +0.169 C 
ATOM     10  O   UNL     1      -8.278 -10.780  12.399  0.00  0.00    -0.350 OA
ATOM     11  C   UNL     1      -7.910 -10.045  12.331  0.00  0.00    +0.167 C 
ENDROOT
BRANCH   8  12
ATOM     12  N   UNL     1      -9.035  -9.780  14.126  0.00  0.00    -0.180 N 
ATOM     13  N   UNL     1      -9.719  -9.320  14.173  0.00  0.00    -0.040 NA
ATOM     14  N   UNL     1      -9.893  -9.203  14.970  0.00  0.00    -0.020 NA
ATOM     15  N   UNL     1      -9.317  -9.589  15.416  0.00  0.00    -0.071 NA
ATOM     16  C   UNL     1      -8.787  -9.946  14.895  0.00  0.00    +0.343 A 
BRANCH  16  17
ATOM     17  O   UNL     1      -8.125 -10.391  15.105  0.00  0.00    -0.421 OA
BRANCH  17  18
ATOM     18  C   UNL     1      -7.834 -10.358  15.877  0.00  0.00    +0.149 A 
ATOM     19  C   UNL     1      -7.168  -9.904  16.048  0.00  0.00    +0.039 A 
ATOM     20  C   UNL     1      -6.877  -9.871  16.819  0.00  0.00    +0.021 A 
ATOM     21  C   UNL     1      -7.253 -10.293  17.420  0.00  0.00    +0.066 A 
ATOM     22  C   UNL     1      -7.920 -10.748  17.249  0.00  0.00    +0.021 A 
ATOM     23  C   UNL     1      -8.210 -10.781  16.477  0.00  0.00    +0.039 A 
BRANCH  21  24
ATOM     24  N   UNL     1      -6.963 -10.261  18.192  0.00  0.00    -0.286 N 
ATOM     25  C   UNL     1      -7.383 -10.455  18.875  0.00  0.00    +0.102 A 
ATOM     26  C   UNL     1      -6.883 -10.343  19.522  0.00  0.00    +0.120 A 
ATOM     27  N   UNL     1      -6.154 -10.080  19.237  0.00  0.00    -0.222 NA
ATOM     28  C   UNL     1      -6.204 -10.030  18.416  0.00  0.00    +0.183 A 
ENDBRANCH  21  24
ENDBRANCH  17  18
ENDBRANCH  16  17
ENDBRANCH   8  12
BRANCH   4   3
ATOM      1  O   UNL     1      -5.750  -9.554  11.751  0.00  0.00    -0.249 OA
ATOM      2  C   UNL     1      -6.202  -9.825  11.115  0.00  0.00    +0.344 C 
ATOM      3  N   UNL     1      -7.025  -9.846  11.174  0.00  0.00    -0.184 NA
ATOM     29  N   UNL     1      -5.832 -10.074  10.422  0.00  0.00    -0.161 NA
BRANCH  29  30
ATOM     30  C   UNL     1      -5.009 -10.054  10.363  0.00  0.00    +0.075 A 
ATOM     31  C   UNL     1      -4.628  -9.354  10.149  0.00  0.00    +0.020 A 
ATOM     32  C   UNL     1      -3.805  -9.334  10.090  0.00  0.00    +0.039 A 
ATOM     33  C   UNL     1      -3.363 -10.013  10.245  0.00  0.00    +0.145 A 
ATOM     41  C   UNL     1      -3.745 -10.713  10.460  0.00  0.00    +0.039 A 
ATOM     42  C   UNL     1      -4.567 -10.733  10.518  0.00  0.00    +0.020 A 
BRANCH  33  34
ATOM     34  O   UNL     1      -2.541  -9.993  10.186  0.00  0.00    -0.453 OA
BRANCH  34  35
ATOM     35  C   UNL     1      -2.082  -9.845  10.856  0.00  0.00    +0.145 A 
ATOM     36  C   UNL     1      -1.631  -9.156  10.903  0.00  0.00    +0.037 A 
ATOM     37  C   UNL     1      -1.173  -9.008  11.573  0.00  0.00    +0.003 A 
ATOM     38  C   UNL     1      -1.166  -9.550  12.195  0.00  0.00    +0.000 A 
ATOM     39  C   UNL     1      -1.617 -10.240  12.148  0.00  0.00    +0.003 A 
ATOM     40  C   UNL     1      -2.075 -10.387  11.478  0.00  0.00    +0.037 A 
ENDBRANCH  34  35
ENDBRANCH  33  34
ENDBRANCH  29  30
ENDBRANCH   4   3
TORSDOF 8
ENDMDL
MODEL 5
REMARK VINA RESULT:      -8.5      2.024      6.786
REMARK  Name = 
REMARK  8 active torsions:
REMARK  status: ('A' for Active; 'I' for Inactive)
REMARK    1  A    between atoms: N_3  and  C_4
REMARK    2  A    between atoms: C_8  and  N_12
REMARK    3  A    between atoms: C_16  and  O_17
REMARK    4  A    between atoms: O_17  and  C_18
REMARK    5  A    between atoms: C_21  and  N_24
REMARK    6  A    between atoms: N_29  and  C_30
REMARK    7  A    between atoms: C_33  and  O_34
REMARK    8  A    between atoms: O_34  and  C_35
REMARK                            x       y       z     vdW  Elec       q    Type
REMARK                         _______ _______ _______ _____ _____    ______ ____
ROOT
ATOM      4  C   UNL     1      -4.489   0.338  24.681  0.00  0.00    +0.156 C 
ATOM      5  C   UNL     1      -4.393   0.148  23.885  0.00  0.00    +0.166 C 
ATOM      6  O   UNL     1      -4.042  -0.597  23.841  0.00  0.00    -0.350 OA
ATOM      7  C   UNL     1      -3.922  -0.868  24.610  0.00  0.00    +0.169 C 
ATOM      8  C   UNL     1      -3.631  -1.495  25.060  0.00  0.00    +0.170 C 
ATOM      9  C   UNL     1      -3.728  -1.306  25.857  0.00  0.00    +0.169 C 
ATOM     10  O   UNL     1      -4.078  -0.560  25.900  0.00  0.00    -0.350 OA
ATOM     11  C   UNL     1      -4.198  -0.290  25.130  0.00  0.00    +0.167 C 
ENDROOT
BRANCH   8  12
ATOM     12  N   UNL     1      -3.301  -2.192  24.764  0.00  0.00    -0.180 N 
ATOM     13  N   UNL     1      -3.698  -2.771  24.330  0.00  0.00    -0.040 NA
ATOM     14  N   UNL     1      -3.159  -3.367  24.148  0.00  0.00    -0.020 NA
ATOM     15  N   UNL     1      -2.429  -3.158  24.469  0.00  0.00    -0.071 NA
ATOM     16  C   UNL     1      -2.517  -2.431  24.850  0.00  0.00    +0.343 A 
BRANCH  16  17
ATOM     17  O   UNL     1      -1.924  -2.017  25.247  0.00  0.00    -0.421 OA
BRANCH  17  18
ATOM     18  C   UNL     1      -1.331  -1.633  24.819  0.00  0.00    +0.149 A 
ATOM     19  C   UNL     1      -1.123  -1.904  24.068  0.00  0.00    +0.039 A 
ATOM     20  C   UNL     1      -0.531  -1.521  23.641  0.00  0.00    +0.021 A 
ATOM     21  C   UNL     1      -0.145  -0.867  23.965  0.00  0.00    +0.066 A 
ATOM     22  C   UNL     1      -0.353  -0.597  24.717  0.00  0.00    +0.021 A 
ATOM     23  C   UNL     1      -0.945  -0.980  25.143  0.00  0.00    +0.039 A 
BRANCH  21  24
ATOM     24  N   UNL     1       0.447  -0.484  23.538  0.00  0.00    -0.286 N 
ATOM     25  C   UNL     1       1.138  -0.831  23.249  0.00  0.00    +0.102 A 
ATOM     26  C   UNL     1       1.572  -0.249  22.857  0.00  0.00    +0.120 A 
ATOM     27  N   UNL     1       1.149   0.458  22.905  0.00  0.00    -0.222 NA
ATOM     28  C   UNL     1       0.454   0.312  23.325  0.00  0.00    +0.183 A 
ENDBRANCH  21  24
ENDBRANCH  17  18
ENDBRANCH  16  17
ENDBRANCH   8  12
BRANCH   4   3
ATOM      1  O   UNL     1      -3.559   1.692  24.833  0.00  0.00    -0.249 OA
ATOM      2  C   UNL     1      -4.354   1.712  25.053  0.00  0.00    +0.344 C 
ATOM      3  N   UNL     1      -4.819   1.034  24.978  0.00  0.00    -0.184 NA
ATOM     29  N   UNL     1      -4.684   2.407  25.349  0.00  0.00    -0.161 NA
BRANCH  29  30
ATOM     30  C   UNL     1      -4.219   3.085  25.425  0.00  0.00    +0.075 A 
ATOM     31  C   UNL     1      -4.135   3.601  24.788  0.00  0.00    +0.020 A 
ATOM     32  C   UNL     1      -3.670   4.278  24.864  0.00  0.00    +0.039 A 
ATOM     33  C   UNL     1      -3.289   4.440  25.578  0.00  0.00    +0.145 A 
ATOM     41  C   UNL     1      -3.374   3.923  26.216  0.00  0.00    +0.039 A 
ATOM     42  C   UNL     1      -3.839   3.246  26.139  0.00  0.00    +0.020 A 
BRANCH  33  34
ATOM     34  O   UNL     1      -2.825   5.117  25.654  0.00  0.00    -0.453 OA
BRANCH  34  35
ATOM     35  C   UNL     1      -2.056   5.126  25.356  0.00  0.00    +0.145 A 
ATOM     36  C   UNL     1      -1.790   5.775  24.920  0.00  0.00    +0.037 A 
ATOM     37  C   UNL     1      -1.022   5.784  24.621  0.00  0.00    +0.003 A 
ATOM     38  C   UNL     1      -0.518   5.144  24.758  0.00  0.00    +0.000 A 
ATOM     39  C   UNL     1      -0.783   4.495  25.193  0.00  0.00    +0.003 A 
ATOM     40  C   UNL     1      -1.553   4.487  25.492  0.00  0.00    +0.037 A 
ENDBRANCH  34  35
ENDBRANCH  33  34
ENDBRANCH  29  30
ENDBRANCH   4   3
TORSDOF 8
ENDMDL
MODEL 6
REMARK VINA RESULT:      -8.4      2.967      4.442
REMARK  Name = 
REMARK  8 active torsions:
REMARK  status: ('A' for Active; 'I' for Inactive)
REMARK    1  A    between atoms: N_3  and  C_4
REMARK    2  A    between atoms: C_8  and  N_12
REMARK    3  A    between atoms: C_16  and  O_17
REMARK    4  A    between atoms: O_17  and  C_18
REMARK    5  A    between atoms: C_21  and  N_24
REMARK    6  A    between atoms: N_29  and  C_30
REMARK    7  A    between atoms: C_33  and  O_34
REMARK    8  A    between atoms: O_34  and  C_35
REMARK                            x       y       z     vdW  Elec       q    Type
REMARK                         _______ _______ _______ _____ _____    ______ ____
ROOT
ATOM      4  C   UNL     1      -0.221   1.240  23.970  0.00  0.00    +0.156 C 
ATOM      5  C   UNL     1      -0.252   1.088  24.780  0.00  0.00    +0.166 C 
ATOM      6  O   UNL     1      -0.653   1.713  25.140  0.00  0.00    -0.350 OA
ATOM      7  C   UNL     1      -0.869   2.250  24.554  0.00  0.00    +0.169 C 
ATOM      8  C   UNL     1      -1.251   2.968  24.413  0.00  0.00    +0.170 C 
ATOM      9  C   UNL     1      -1.220   3.119  23.603  0.00  0.00    +0.169 C 
ATOM     10  O   UNL     1      -0.819   2.495  23.243  0.00  0.00    -0.350 OA
ATOM     11  C   UNL     1      -0.602   1.957  23.830  0.00  0.00    +0.167 C 
ENDROOT
BRANCH   8  12
ATOM     12  N   UNL     1      -1.602   3.450  24.983  0.00  0.00    -0.180 N 
ATOM     13  N   UNL     1      -1.215   3.820  25.611  0.00  0.00    -0.040 NA
ATOM     14  N   UNL     1      -1.776   4.245  26.042  0.00  0.00    -0.020 NA
ATOM     15  N   UNL     1      -2.509   4.138  25.680  0.00  0.00    -0.071 NA
ATOM     16  C   UNL     1      -2.402   3.646  25.026  0.00  0.00    +0.343 A 
BRANCH  16  17
ATOM     17  O   UNL     1      -2.992   3.396  24.506  0.00  0.00    -0.421 OA
BRANCH  17  18
ATOM     18  C   UNL     1      -3.700   3.093  24.801  0.00  0.00    +0.149 A 
ATOM     19  C   UNL     1      -3.843   2.281  24.778  0.00  0.00    +0.039 A 
ATOM     20  C   UNL     1      -4.551   1.978  25.072  0.00  0.00    +0.021 A 
ATOM     21  C   UNL     1      -5.117   2.487  25.390  0.00  0.00    +0.066 A 
ATOM     22  C   UNL     1      -4.975   3.300  25.413  0.00  0.00    +0.021 A 
ATOM     23  C   UNL     1      -4.266   3.602  25.118  0.00  0.00    +0.039 A 
BRANCH  21  24
ATOM     24  N   UNL     1      -5.826   2.185  25.685  0.00  0.00    -0.286 N 
ATOM     25  C   UNL     1      -6.077   2.219  26.470  0.00  0.00    +0.102 A 
ATOM     26  C   UNL     1      -6.815   1.851  26.519  0.00  0.00    +0.120 A 
ATOM     27  N   UNL     1      -7.018   1.590  25.763  0.00  0.00    -0.222 NA
ATOM     28  C   UNL     1      -6.407   1.797  25.248  0.00  0.00    +0.183 A 
ENDBRANCH  21  24
ENDBRANCH  17  18
ENDBRANCH  16  17
ENDBRANCH   8  12
BRANCH   4   3
ATOM      1  O   UNL     1       1.423   1.128  23.883  0.00  0.00    -0.249 OA
ATOM      2  C   UNL     1       0.952   0.702  23.356  0.00  0.00    +0.344 C 
ATOM      3  N   UNL     1       0.130   0.758  23.400  0.00  0.00    -0.184 NA
ATOM     29  N   UNL     1       1.303   0.220  22.786  0.00  0.00    -0.161 NA
BRANCH  29  30
ATOM     30  C   UNL     1       2.125   0.164  22.742  0.00  0.00    +0.075 A 
ATOM     31  C   UNL     1       2.572   0.819  22.515  0.00  0.00    +0.020 A 
ATOM     32  C   UNL     1       3.395   0.763  22.472  0.00  0.00    +0.039 A 
ATOM     33  C   UNL     1       3.769   0.051  22.655  0.00  0.00    +0.145 A 
ATOM     41  C   UNL     1       3.322  -0.604  22.882  0.00  0.00    +0.039 A 
ATOM     42  C   UNL     1       2.500  -0.547  22.926  0.00  0.00    +0.020 A 
BRANCH  33  34
ATOM     34  O   UNL     1       4.591  -0.006  22.612  0.00  0.00    -0.453 OA
BRANCH  34  35
ATOM     35  C   UNL     1       5.039  -0.049  23.303  0.00  0.00    +0.145 A 
ATOM     36  C   UNL     1       5.229  -0.784  23.627  0.00  0.00    +0.037 A 
ATOM     37  C   UNL     1       5.677  -0.826  24.318  0.00  0.00    +0.003 A 
ATOM     38  C   UNL     1       5.936  -0.134  24.685  0.00  0.00    +0.000 A 
ATOM     39  C   UNL     1       5.746   0.601  24.361  0.00  0.00    +0.003 A 
ATOM     40  C   UNL     1       5.298   0.643  23.670  0.00  0.00    +0.037 A 
ENDBRANCH  34  35
ENDBRANCH  33  34
ENDBRANCH  29  30
ENDBRANCH   4   3
TORSDOF 8
ENDMDL
MODEL 7
REMARK VINA RESULT:      -8.3     15.729     17.912
REMARK  Name = 
REMARK  8 active torsions:
REMARK  status: ('A' for Active; 'I' for Inactive)
REMARK    1  A    between atoms: N_3  and  C_4
REMARK    2  A    between atoms: C_8  and  N_12
REMARK    3  A    between atoms: C_16  and  O_17
REMARK    4  A    between atoms: O_17  and  C_18
REMARK    5  A    between atoms: C_21  and  N_24
REMARK    6  A    between atoms: N_29  and  C_30
REMARK    7  A    between atoms: C_33  and  O_34
REMARK    8  A    between atoms: O_34  and  C_35
REMARK                            x       y       z     vdW  Elec       q    Type
REMARK                         _______ _______ _______ _____ _____    ______ ____
ROOT
ATOM      4  C   UNL     1      -6.303  -9.464  10.464  0.00  0.00    +0.156 C 
ATOM      5  C   UNL     1      -6.508  -8.725  10.768  0.00  0.00    +0.166 C 
ATOM      6  O   UNL     1      -7.282  -8.771  11.048  0.00  0.00    -0.350 OA
ATOM      7  C   UNL     1      -7.556  -9.538  10.918  0.00  0.00    +0.169 C 
ATOM      8  C   UNL     1      -8.202 -10.042  11.011  0.00  0.00    +0.170 C 
ATOM      9  C   UNL     1      -7.997 -10.780  10.707  0.00  0.00    +0.169 C 
ATOM     10  O   UNL     1      -7.223 -10.734  10.426  0.00  0.00    -0.350 OA
ATOM     11  C   UNL     1      -6.950  -9.966  10.557  0.00  0.00    +0.167 C 
ENDROOT
BRANCH   8  12
ATOM     12  N   UNL     1      -8.928  -9.841  11.349  0.00  0.00    -0.180 N 
ATOM     13  N   UNL     1      -9.548  -9.448  10.970  0.00  0.00    -0.040 NA
ATOM     14  N   UNL     1     -10.164  -9.362  11.512  0.00  0.00    -0.020 NA
ATOM     15  N   UNL     1      -9.925  -9.701  12.225  0.00  0.00    -0.071 NA
ATOM     16  C   UNL     1      -9.162  -9.997  12.124  0.00  0.00    +0.343 A 
BRANCH  16  17
ATOM     17  O   UNL     1      -8.711 -10.382  12.698  0.00  0.00    -0.421 OA
BRANCH  17  18
ATOM     18  C   UNL     1      -8.850 -10.236  13.499  0.00  0.00    +0.149 A 
ATOM     19  C   UNL     1      -8.566  -9.545  13.847  0.00  0.00    +0.039 A 
ATOM     20  C   UNL     1      -8.705  -9.399  14.647  0.00  0.00    +0.021 A 
ATOM     21  C   UNL     1      -9.129  -9.944  15.098  0.00  0.00    +0.066 A 
ATOM     22  C   UNL     1      -9.414 -10.636  14.749  0.00  0.00    +0.021 A 
ATOM     23  C   UNL     1      -9.275 -10.781  13.949  0.00  0.00    +0.039 A 
BRANCH  21  24
ATOM     24  N   UNL     1      -9.269  -9.799  15.898  0.00  0.00    -0.286 N 
ATOM     25  C   UNL     1      -9.135 -10.328  16.517  0.00  0.00    +0.102 A 
ATOM     26  C   UNL     1      -9.350  -9.956  17.222  0.00  0.00    +0.120 A 
ATOM     27  N   UNL     1      -9.617  -9.197  17.037  0.00  0.00    -0.222 NA
ATOM     28  C   UNL     1      -9.567  -9.101  16.220  0.00  0.00    +0.183 A 
ENDBRANCH  21  24
ENDBRANCH  17  18
ENDBRANCH  16  17
ENDBRANCH   8  12
BRANCH   4   3
ATOM      1  O   UNL     1      -4.960  -9.598  11.413  0.00  0.00    -0.249 OA
ATOM      2  C   UNL     1      -4.905  -9.732  10.600  0.00  0.00    +0.344 C 
ATOM      3  N   UNL     1      -5.577  -9.664  10.126  0.00  0.00    -0.184 NA
ATOM     29  N   UNL     1      -4.180  -9.932  10.263  0.00  0.00    -0.161 NA
BRANCH  29  30
ATOM     30  C   UNL     1      -3.509 -10.000  10.738  0.00  0.00    +0.075 A 
ATOM     31  C   UNL     1      -3.001  -9.356  10.829  0.00  0.00    +0.020 A 
ATOM     32  C   UNL     1      -2.330  -9.423  11.303  0.00  0.00    +0.039 A 
ATOM     33  C   UNL     1      -2.165 -10.135  11.686  0.00  0.00    +0.145 A 
ATOM     41  C   UNL     1      -2.673 -10.780  11.595  0.00  0.00    +0.039 A 
ATOM     42  C   UNL     1      -3.344 -10.711  11.121  0.00  0.00    +0.020 A 
BRANCH  33  34
ATOM     34  O   UNL     1      -1.494 -10.203  12.161  0.00  0.00    -0.453 OA
BRANCH  34  35
ATOM     35  C   UNL     1      -1.568 -10.209  12.982  0.00  0.00    +0.145 A 
ATOM     36  C   UNL     1      -2.051 -10.769  13.349  0.00  0.00    +0.037 A 
ATOM     37  C   UNL     1      -2.125 -10.775  14.170  0.00  0.00    +0.003 A 
ATOM     38  C   UNL     1      -1.716 -10.221  14.626  0.00  0.00    +0.000 A 
ATOM     39  C   UNL     1      -1.233  -9.661  14.259  0.00  0.00    +0.003 A 
ATOM     40  C   UNL     1      -1.159  -9.656  13.437  0.00  0.00    +0.037 A 
ENDBRANCH  34  35
ENDBRANCH  33  34
ENDBRANCH  29  30
ENDBRANCH   4   3
TORSDOF 8
ENDMDL
MODEL 8
REMARK VINA RESULT:      -8.2     14.263     17.659
REMARK  Name = 
REMARK  8 active torsions:
REMARK  status: ('A' for Active; 'I' for Inactive)
REMARK    1  A    between atoms: N_3  and  C_4
REMARK    2  A    between atoms: C_8  and  N_12
REMARK    3  A    between atoms: C_16  and  O_17
REMARK    4  A    between atoms: O_17  and  C_18
REMARK    5  A    between atoms: C_21  and  N_24
REMARK    6  A    between atoms: N_29  and  C_30
REMARK    7  A    between atoms: C_33  and  O_34
REMARK    8  A    between atoms: O_34  and  C_35
REMARK                            x       y       z     vdW  Elec       q    Type
REMARK                         _______ _______ _______ _____ _____    ______ ____
ROOT
ATOM      4  C   UNL     1      -8.922  -9.818  13.347  0.00  0.00    +0.156 C 
ATOM      5  C   UNL     1      -8.420  -9.182  13.500  0.00  0.00    +0.166 C 
ATOM      6  O   UNL     1      -8.540  -8.945  14.280  0.00  0.00    -0.350 OA
ATOM      7  C   UNL     1      -9.116  -9.434  14.611  0.00  0.00    +0.169 C 
ATOM      8  C   UNL     1      -9.546  -9.591  15.297  0.00  0.00    +0.170 C 
ATOM      9  C   UNL     1     -10.048 -10.228  15.144  0.00  0.00    +0.169 C 
ATOM     10  O   UNL     1      -9.928 -10.465  14.364  0.00  0.00    -0.350 OA
ATOM     11  C   UNL     1      -9.352  -9.974  14.033  0.00  0.00    +0.167 C 
ENDROOT
BRANCH   8  12
ATOM     12  N   UNL     1      -9.485  -9.182  16.011  0.00  0.00    -0.180 N 
ATOM     13  N   UNL     1      -9.984  -8.577  16.268  0.00  0.00    -0.040 NA
ATOM     14  N   UNL     1      -9.722  -8.328  17.009  0.00  0.00    -0.020 NA
ATOM     15  N   UNL     1      -9.061  -8.778  17.210  0.00  0.00    -0.071 NA
ATOM     16  C   UNL     1      -8.914  -9.306  16.593  0.00  0.00    +0.343 A 
BRANCH  16  17
ATOM     17  O   UNL     1      -8.304  -9.860  16.564  0.00  0.00    -0.421 OA
BRANCH  17  18
ATOM     18  C   UNL     1      -7.853 -10.014  17.239  0.00  0.00    +0.149 A 
ATOM     19  C   UNL     1      -7.064  -9.779  17.269  0.00  0.00    +0.039 A 
ATOM     20  C   UNL     1      -6.613  -9.932  17.943  0.00  0.00    +0.021 A 
ATOM     21  C   UNL     1      -6.954 -10.321  18.587  0.00  0.00    +0.066 A 
ATOM     22  C   UNL     1      -7.744 -10.557  18.556  0.00  0.00    +0.021 A 
ATOM     23  C   UNL     1      -8.194 -10.403  17.881  0.00  0.00    +0.039 A 
BRANCH  21  24
ATOM     24  N   UNL     1      -6.504 -10.475  19.261  0.00  0.00    -0.286 N 
ATOM     25  C   UNL     1      -5.702 -10.668  19.274  0.00  0.00    +0.102 A 
ATOM     26  C   UNL     1      -5.479 -10.776  20.062  0.00  0.00    +0.120 A 
ATOM     27  N   UNL     1      -6.143 -10.649  20.534  0.00  0.00    -0.222 NA
ATOM     28  C   UNL     1      -6.777 -10.464  20.039  0.00  0.00    +0.183 A 
ENDBRANCH  21  24
ENDBRANCH  17  18
ENDBRANCH  16  17
ENDBRANCH   8  12
BRANCH   4   3
ATOM      1  O   UNL     1      -8.690  -9.024  11.920  0.00  0.00    -0.249 OA
ATOM      2  C   UNL     1      -8.867  -9.831  11.919  0.00  0.00    +0.344 C 
ATOM      3  N   UNL     1      -8.983 -10.227  12.633  0.00  0.00    -0.184 NA
ATOM     29  N   UNL     1      -8.928 -10.239  11.205  0.00  0.00    -0.161 NA
BRANCH  29  30
ATOM     30  C   UNL     1      -8.812  -9.843  10.491  0.00  0.00    +0.075 A 
ATOM     31  C   UNL     1      -8.055  -9.786  10.169  0.00  0.00    +0.020 A 
ATOM     32  C   UNL     1      -7.939  -9.389   9.455  0.00  0.00    +0.039 A 
ATOM     33  C   UNL     1      -8.581  -9.049   9.063  0.00  0.00    +0.145 A 
ATOM     41  C   UNL     1      -9.338  -9.106   9.385  0.00  0.00    +0.039 A 
ATOM     42  C   UNL     1      -9.453  -9.503  10.099  0.00  0.00    +0.020 A 
BRANCH  33  34
ATOM     34  O   UNL     1      -8.466  -8.653   8.349  0.00  0.00    -0.453 OA
BRANCH  34  35
ATOM     35  C   UNL     1      -8.509  -7.829   8.322  0.00  0.00    +0.145 A 
ATOM     36  C   UNL     1      -9.242  -7.458   8.243  0.00  0.00    +0.037 A 
ATOM     37  C   UNL     1      -9.285  -6.634   8.217  0.00  0.00    +0.003 A 
ATOM     38  C   UNL     1      -8.597  -6.183   8.268  0.00  0.00    +0.000 A 
ATOM     39  C   UNL     1      -7.864  -6.554   8.347  0.00  0.00    +0.003 A 
ATOM     40  C   UNL     1      -7.821  -7.378   8.374  0.00  0.00    +0.037 A 
ENDBRANCH  34  35
ENDBRANCH  33  34
ENDBRANCH  29  30
ENDBRANCH   4   3
TORSDOF 8
ENDMDL
MODEL 9
REMARK VINA RESULT:      -7.7     16.408     18.509
REMARK  Name = 
REMARK  8 active torsions:
REMARK  status: ('A' for Active; 'I' for Inactive)
REMARK    1  A    between atoms: N_3  and  C_4
REMARK    2  A    between atoms: C_8  and  N_12
REMARK    3  A    between atoms: C_16  and  O_17
REMARK    4  A    between atoms: O_17  and  C_18
REMARK    5  A    between atoms: C_21  and  N_24
REMARK    6  A    between atoms: N_29  and  C_30
REMARK    7  A    between atoms: C_33  and  O_34
REMARK    8  A    between atoms: O_34  and  C_35
REMARK                            x       y       z     vdW  Elec       q    Type
REMARK                         _______ _______ _______ _____ _____    ______ ____
ROOT
ATOM      4  C   UNL     1      -5.211  -8.856   9.649  0.00  0.00    +0.156 C 
ATOM      5  C   UNL     1      -5.473  -8.353  10.248  0.00  0.00    +0.166 C 
ATOM      6  O   UNL     1      -6.292  -8.281  10.180  0.00  0.00    -0.350 OA
ATOM      7  C   UNL     1      -6.536  -8.738   9.539  0.00  0.00    +0.169 C 
ATOM      8  C   UNL     1      -7.193  -8.977   9.100  0.00  0.00    +0.170 C 
ATOM      9  C   UNL     1      -6.931  -9.479   8.501  0.00  0.00    +0.169 C 
ATOM     10  O   UNL     1      -6.112  -9.552   8.569  0.00  0.00    -0.350 OA
ATOM     11  C   UNL     1      -5.868  -9.094   9.211  0.00  0.00    +0.167 C 
ENDROOT
BRANCH   8  12
ATOM     12  N   UNL     1      -7.975  -8.751   9.237  0.00  0.00    -0.180 N 
ATOM     13  N   UNL     1      -8.361  -8.107   8.895  0.00  0.00    -0.040 NA
ATOM     14  N   UNL     1      -9.132  -8.089   9.186  0.00  0.00    -0.020 NA
ATOM     15  N   UNL     1      -9.223  -8.720   9.708  0.00  0.00    -0.071 NA
ATOM     16  C   UNL     1      -8.507  -9.130   9.740  0.00  0.00    +0.343 A 
BRANCH  16  17
ATOM     17  O   UNL     1      -8.352  -9.801  10.195  0.00  0.00    -0.421 OA
BRANCH  17  18
ATOM     18  C   UNL     1      -8.713  -9.892  10.932  0.00  0.00    +0.149 A 
ATOM     19  C   UNL     1      -8.265 -10.126  11.584  0.00  0.00    +0.039 A 
ATOM     20  C   UNL     1      -8.625 -10.217  12.320  0.00  0.00    +0.021 A 
ATOM     21  C   UNL     1      -9.433 -10.074  12.404  0.00  0.00    +0.066 A 
ATOM     22  C   UNL     1      -9.881  -9.840  11.752  0.00  0.00    +0.021 A 
ATOM     23  C   UNL     1      -9.520  -9.749  11.016  0.00  0.00    +0.039 A 
BRANCH  21  24
ATOM     24  N   UNL     1      -9.795 -10.165  13.141  0.00  0.00    -0.286 N 
ATOM     25  C   UNL     1      -9.406 -10.275  13.860  0.00  0.00    +0.102 A 
ATOM     26  C   UNL     1      -9.978 -10.340  14.452  0.00  0.00    +0.120 A 
ATOM     27  N   UNL     1     -10.720 -10.271  14.097  0.00  0.00    -0.222 NA
ATOM     28  C   UNL     1     -10.606 -10.163  13.287  0.00  0.00    +0.183 A 
ENDBRANCH  21  24
ENDBRANCH  17  18
ENDBRANCH  16  17
ENDBRANCH   8  12
BRANCH   4   3
ATOM      1  O   UNL     1      -4.268  -9.366  10.903  0.00  0.00    -0.249 OA
ATOM      2  C   UNL     1      -3.957  -9.336  10.139  0.00  0.00    +0.344 C 
ATOM      3  N   UNL     1      -4.429  -9.081   9.512  0.00  0.00    -0.184 NA
ATOM     29  N   UNL     1      -3.176  -9.562  10.003  0.00  0.00    -0.161 NA
BRANCH  29  30
ATOM     30  C   UNL     1      -2.704  -9.817  10.630  0.00  0.00    +0.075 A 
ATOM     31  C   UNL     1      -2.055  -9.368  10.867  0.00  0.00    +0.020 A 
ATOM     32  C   UNL     1      -1.583  -9.623  11.494  0.00  0.00    +0.039 A 
ATOM     33  C   UNL     1      -1.761 -10.328  11.884  0.00  0.00    +0.145 A 
ATOM     41  C   UNL     1      -2.411 -10.778  11.646  0.00  0.00    +0.039 A 
ATOM     42  C   UNL     1      -2.882 -10.522  11.019  0.00  0.00    +0.020 A 
BRANCH  33  34
ATOM     34  O   UNL     1      -1.290 -10.584  12.510  0.00  0.00    -0.453 OA
BRANCH  34  35
ATOM     35  C   UNL     1      -1.471 -10.358  13.283  0.00  0.00    +0.145 A 
ATOM     36  C   UNL     1      -2.034 -10.779  13.715  0.00  0.00    +0.037 A 
ATOM     37  C   UNL     1      -2.215 -10.552  14.487  0.00  0.00    +0.003 A 
ATOM     38  C   UNL     1      -1.833  -9.904  14.827  0.00  0.00    +0.000 A 
ATOM     39  C   UNL     1      -1.270  -9.483  14.395  0.00  0.00    +0.003 A 
ATOM     40  C   UNL     1      -1.089  -9.710  13.622  0.00  0.00    +0.037 A 
ENDBRANCH  34  35
ENDBRANCH  33  34
ENDBRANCH  29  30
ENDBRANCH   4   3
TORSDOF 8
ENDMDL
MODEL 10
REMARK VINA RESULT:      -7.6      2.922      5.142
REMARK  Name = 
REMARK  8 active torsions:
REMARK  status: ('A' for Active; 'I' for Inactive)
REMARK    1  A    between atoms: N_3  and  C_4
REMARK    2  A    between atoms: C_8  and  N_12
REMARK    3  A    between atoms: C_16  and  O_17
REMARK    4  A    between atoms: O_17  and  C_18
REMARK    5  A    between atoms: C_21  and  N_24
REMARK    6  A    between atoms: N_29  and  C_30
REMARK    7  A    between atoms: C_33  and  O_34
REMARK    8  A    between atoms: O_34  and  C_35
REMARK                            x       y       z     vdW  Elec       q    Type
REMARK                         _______ _______ _______ _____ _____    ______ ____
ROOT
ATOM      4  C   UNL     1      -0.969   2.276  23.977  0.00  0.00    +0.156 C 
ATOM      5  C   UNL     1      -1.312   1.986  23.286  0.00  0.00    +0.166 C 
ATOM      6  O   UNL     1      -2.128   1.951  23.403  0.00  0.00    -0.350 OA
ATOM      7  C   UNL     1      -2.289   2.219  24.165  0.00  0.00    +0.169 C 
ATOM      8  C   UNL     1      -2.891   2.363  24.710  0.00  0.00    +0.170 C 
ATOM      9  C   UNL     1      -2.548   2.653  25.401  0.00  0.00    +0.169 C 
ATOM     10  O   UNL     1      -1.732   2.688  25.285  0.00  0.00    -0.350 OA
ATOM     11  C   UNL     1      -1.572   2.420  24.521  0.00  0.00    +0.167 C 
ENDROOT
BRANCH   8  12
ATOM     12  N   UNL     1      -3.698   2.239  24.584  0.00  0.00    -0.180 N 
ATOM     13  N   UNL     1      -4.195   2.707  24.121  0.00  0.00    -0.040 NA
ATOM     14  N   UNL     1      -4.952   2.382  24.150  0.00  0.00    -0.020 NA
ATOM     15  N   UNL     1      -4.924   1.713  24.631  0.00  0.00    -0.071 NA
ATOM     16  C   UNL     1      -4.148   1.625  24.899  0.00  0.00    +0.343 A 
BRANCH  16  17
ATOM     17  O   UNL     1      -3.873   1.026  25.396  0.00  0.00    -0.421 OA
BRANCH  17  18
ATOM     18  C   UNL     1      -3.889   0.240  25.144  0.00  0.00    +0.149 A 
ATOM     19  C   UNL     1      -4.364   0.021  24.507  0.00  0.00    +0.039 A 
ATOM     20  C   UNL     1      -4.381  -0.764  24.255  0.00  0.00    +0.021 A 
ATOM     21  C   UNL     1      -3.920  -1.330  24.640  0.00  0.00    +0.066 A 
ATOM     22  C   UNL     1      -3.444  -1.111  25.277  0.00  0.00    +0.021 A 
ATOM     23  C   UNL     1      -3.429  -0.326  25.529  0.00  0.00    +0.039 A 
BRANCH  21  24
ATOM     24  N   UNL     1      -3.936  -2.116  24.388  0.00  0.00    -0.286 N 
ATOM     25  C   UNL     1      -3.491  -2.735  24.705  0.00  0.00    +0.102 A 
ATOM     26  C   UNL     1      -3.678  -3.423  24.289  0.00  0.00    +0.120 A 
ATOM     27  N   UNL     1      -4.238  -3.228  23.715  0.00  0.00    -0.222 NA
ATOM     28  C   UNL     1      -4.397  -2.421  23.777  0.00  0.00    +0.183 A 
ENDBRANCH  21  24
ENDBRANCH  17  18
ENDBRANCH  16  17
ENDBRANCH   8  12
BRANCH   4   3
ATOM      1  O   UNL     1       0.136   1.220  23.354  0.00  0.00    -0.249 OA
ATOM      2  C   UNL     1       0.390   1.873  23.791  0.00  0.00    +0.344 C 
ATOM      3  N   UNL     1      -0.162   2.400  24.103  0.00  0.00    -0.184 NA
ATOM     29  N   UNL     1       1.195   1.996  23.917  0.00  0.00    -0.161 NA
BRANCH  29  30
ATOM     30  C   UNL     1       1.748   1.469  23.605  0.00  0.00    +0.075 A 
ATOM     31  C   UNL     1       1.656   0.658  23.722  0.00  0.00    +0.020 A 
ATOM     32  C   UNL     1       2.209   0.130  23.410  0.00  0.00    +0.039 A 
ATOM     33  C   UNL     1       2.854   0.415  22.981  0.00  0.00    +0.145 A 
ATOM     41  C   UNL     1       2.946   1.226  22.864  0.00  0.00    +0.039 A 
ATOM     42  C   UNL     1       2.393   1.753  23.176  0.00  0.00    +0.020 A 
BRANCH  33  34
ATOM     34  O   UNL     1       3.407  -0.112  22.669  0.00  0.00    -0.453 OA
BRANCH  34  35
ATOM     35  C   UNL     1       4.113  -0.255  23.071  0.00  0.00    +0.145 A 
ATOM     36  C   UNL     1       4.736   0.282  23.013  0.00  0.00    +0.037 A 
ATOM     37  C   UNL     1       5.443   0.138  23.414  0.00  0.00    +0.003 A 
ATOM     38  C   UNL     1       5.525  -0.542  23.874  0.00  0.00    +0.000 A 
ATOM     39  C   UNL     1       4.901  -1.079  23.933  0.00  0.00    +0.003 A 
ATOM     40  C   UNL     1       4.195  -0.935  23.530  0.00  0.00    +0.037 A 
ENDBRANCH  34  35
ENDBRANCH  33  34
ENDBRANCH  29  30
ENDBRANCH   4   3
TORSDOF 8
ENDMDL
