MODEL 1
REMARK VINA RESULT:     -12.8      0.000      0.000
REMARK  Name = 
REMARK  7 active torsions:
REMARK  status: ('A' for Active; 'I' for Inactive)
REMARK    1  A    between atoms: N_2  and  C_3
REMARK    2  A    between atoms: C_3  and  C_4
REMARK    3  A    between atoms: C_10  and  C_12
REMARK    4  A    between atoms: C_12  and  C_13
REMARK    5  A    between atoms: C_15  and  C_16
REMARK    6  A    between atoms: C_16  and  N_17
REMARK    7  A    between atoms: C_18  and  C_20
REMARK                            x       y       z     vdW  Elec       q    Type
REMARK                         _______ _______ _______ _____ _____    ______ ____
ROOT
ATOM     13  C   UNL     1      -4.878   1.568  24.944  0.00  0.00    +0.157 C 
ATOM     14  O   UNL     1      -4.240   2.026  25.196  0.00  0.00    -0.351 OA
ATOM     15  C   UNL     1      -4.529   2.769  25.408  0.00  0.00    +0.170 C 
ATOM     27  C   UNL     1      -5.346   2.770  25.287  0.00  0.00    +0.213 C 
ATOM     28  O   UNL     1      -5.856   3.401  25.427  0.00  0.00    -0.218 OA
ATOM     29  C   UNL     1      -5.560   2.026  25.000  0.00  0.00    +0.212 C 
ATOM     30  O   UNL     1      -6.325   1.785  24.804  0.00  0.00    -0.218 OA
ENDROOT
BRANCH  13  12
ATOM     12  C   UNL     1      -4.839   0.786  24.682  0.00  0.00    +0.117 C 
BRANCH  12  10
ATOM      1  C   UNL     1      -4.056  -0.502  24.009  0.00  0.00    +0.115 C 
ATOM      2  N   UNL     1      -4.117  -0.439  24.830  0.00  0.00    -0.274 N 
ATOM     10  C   UNL     1      -4.509   0.205  25.167  0.00  0.00    +0.228 C 
ATOM     11  O   UNL     1      -4.570   0.268  25.987  0.00  0.00    -0.275 OA
BRANCH   2   3
ATOM      3  C   UNL     1      -3.787  -1.020  25.314  0.00  0.00    +0.120 C 
BRANCH   3   4
ATOM      4  C   UNL     1      -3.321  -1.616  24.983  0.00  0.00    -0.002 A 
ATOM      5  C   UNL     1      -2.502  -1.526  24.947  0.00  0.00    -0.003 A 
ATOM      6  C   UNL     1      -2.036  -2.122  24.617  0.00  0.00    -0.000 A 
ATOM      7  C   UNL     1      -2.390  -2.807  24.323  0.00  0.00    -0.000 A 
ATOM      8  C   UNL     1      -3.209  -2.896  24.360  0.00  0.00    -0.000 A 
ATOM      9  C   UNL     1      -3.675  -2.301  24.690  0.00  0.00    -0.003 A 
ENDBRANCH   3   4
ENDBRANCH   2   3
ENDBRANCH  12  10
ENDBRANCH  13  12
BRANCH  15  16
ATOM     16  C   UNL     1      -4.081   3.402  25.691  0.00  0.00    +0.148 C 
BRANCH  16  17
ATOM     17  N   UNL     1      -3.310   3.515  25.421  0.00  0.00    -0.199 NA
ATOM     18  C   UNL     1      -2.796   4.009  25.835  0.00  0.00    +0.265 C 
ATOM     19  O   UNL     1      -3.054   4.392  26.520  0.00  0.00    -0.268 OA
BRANCH  18  20
ATOM     20  C   UNL     1      -2.025   4.122  25.566  0.00  0.00    +0.057 A 
ATOM     21  C   UNL     1      -1.483   3.500  25.591  0.00  0.00    +0.005 A 
ATOM     22  C   UNL     1      -0.712   3.614  25.321  0.00  0.00    +0.002 A 
ATOM     23  C   UNL     1      -0.482   4.349  25.026  0.00  0.00    +0.030 A 
ATOM     24  C   UNL     1      -1.022   4.971  25.001  0.00  0.00    +0.140 A 
ATOM     25  F   UNL     1      -0.793   5.706  24.707  0.00  0.00    -0.204 F 
ATOM     26  C   UNL     1      -1.794   4.858  25.271  0.00  0.00    +0.034 A 
ENDBRANCH  18  20
ENDBRANCH  16  17
ENDBRANCH  15  16
TORSDOF 7
ENDMDL
MODEL 2
REMARK VINA RESULT:     -12.0      2.226      3.677
REMARK  Name = 
REMARK  7 active torsions:
REMARK  status: ('A' for Active; 'I' for Inactive)
REMARK    1  A    between atoms: N_2  and  C_3
REMARK    2  A    between atoms: C_3  and  C_4
REMARK    3  A    between atoms: C_10  and  C_12
REMARK    4  A    between atoms: C_12  and  C_13
REMARK    5  A    between atoms: C_15  and  C_16
REMARK    6  A    between atoms: C_16  and  N_17
REMARK    7  A    between atoms: C_18  and  C_20
REMARK                            x       y       z     vdW  Elec       q    Type
REMARK                         _______ _______ _______ _____ _____    ______ ____
ROOT
ATOM     13  C   UNL     1      -0.808   1.299  24.585  0.00  0.00    +0.157 C 
ATOM     14  O   UNL     1      -1.573   1.607  24.607  0.00  0.00    -0.351 OA
ATOM     15  C   UNL     1      -1.523   2.422  24.492  0.00  0.00    +0.170 C 
ATOM     27  C   UNL     1      -0.727   2.619  24.399  0.00  0.00    +0.213 C 
ATOM     28  O   UNL     1      -0.425   3.375  24.271  0.00  0.00    -0.218 OA
ATOM     29  C   UNL     1      -0.285   1.924  24.457  0.00  0.00    +0.212 C 
ATOM     30  O   UNL     1       0.535   1.865  24.396  0.00  0.00    -0.218 OA
ENDROOT
BRANCH  13  12
ATOM     12  C   UNL     1      -0.602   0.505  24.675  0.00  0.00    +0.117 C 
BRANCH  12  10
ATOM      1  C   UNL     1      -1.172  -0.921  24.070  0.00  0.00    +0.115 C 
ATOM      2  N   UNL     1      -1.348  -0.702  24.846  0.00  0.00    -0.274 N 
ATOM     10  C   UNL     1      -1.063   0.011  25.149  0.00  0.00    +0.228 C 
ATOM     11  O   UNL     1      -1.240   0.230  25.924  0.00  0.00    -0.275 OA
BRANCH   2   3
ATOM      3  C   UNL     1      -1.809  -1.195  25.319  0.00  0.00    +0.120 C 
BRANCH   3   4
ATOM      4  C   UNL     1      -2.473  -1.570  25.001  0.00  0.00    -0.002 A 
ATOM      5  C   UNL     1      -2.412  -2.342  24.717  0.00  0.00    -0.003 A 
ATOM      6  C   UNL     1      -3.076  -2.717  24.399  0.00  0.00    -0.000 A 
ATOM      7  C   UNL     1      -3.798  -2.320  24.364  0.00  0.00    -0.000 A 
ATOM      8  C   UNL     1      -3.856  -1.547  24.648  0.00  0.00    -0.000 A 
ATOM      9  C   UNL     1      -3.195  -1.173  24.966  0.00  0.00    -0.003 A 
ENDBRANCH   3   4
ENDBRANCH   2   3
ENDBRANCH  12  10
ENDBRANCH  13  12
BRANCH  15  16
ATOM     16  C   UNL     1      -2.157   2.950  24.473  0.00  0.00    +0.148 C 
BRANCH  16  17
ATOM     17  N   UNL     1      -2.899   2.713  24.744  0.00  0.00    -0.199 NA
ATOM     18  C   UNL     1      -3.555   3.200  24.632  0.00  0.00    +0.265 C 
ATOM     19  O   UNL     1      -3.468   3.926  24.249  0.00  0.00    -0.268 OA
BRANCH  18  20
ATOM     20  C   UNL     1      -4.297   2.963  24.903  0.00  0.00    +0.057 A 
ATOM     21  C   UNL     1      -4.671   3.386  25.505  0.00  0.00    +0.005 A 
ATOM     22  C   UNL     1      -5.414   3.148  25.775  0.00  0.00    +0.002 A 
ATOM     23  C   UNL     1      -5.782   2.489  25.444  0.00  0.00    +0.030 A 
ATOM     24  C   UNL     1      -5.408   2.066  24.843  0.00  0.00    +0.140 A 
ATOM     25  F   UNL     1      -5.775   1.406  24.511  0.00  0.00    -0.204 F 
ATOM     26  C   UNL     1      -4.665   2.303  24.572  0.00  0.00    +0.034 A 
ENDBRANCH  18  20
ENDBRANCH  16  17
ENDBRANCH  15  16
TORSDOF 7
ENDMDL
MODEL 3
REMARK VINA RESULT:     -11.9      2.424      5.345
REMARK  Name = 
REMARK  7 active torsions:
REMARK  status: ('A' for Active; 'I' for Inactive)
REMARK    1  A    between atoms: N_2  and  C_3
REMARK    2  A    between atoms: C_3  and  C_4
REMARK    3  A    between atoms: C_10  and  C_12
REMARK    4  A    between atoms: C_12  and  C_13
REMARK    5  A    between atoms: C_15  and  C_16
REMARK    6  A    between atoms: C_16  and  N_17
REMARK    7  A    between atoms: C_18  and  C_20
REMARK                            x       y       z     vdW  Elec       q    Type
REMARK                         _______ _______ _______ _____ _____    ______ ____
ROOT
ATOM     13  C   UNL     1      -1.324   2.440  24.558  0.00  0.00    +0.157 C 
ATOM     14  O   UNL     1      -1.505   1.651  24.713  0.00  0.00    -0.351 OA
ATOM     15  C   UNL     1      -0.813   1.210  24.628  0.00  0.00    +0.170 C 
ATOM     27  C   UNL     1      -0.204   1.727  24.420  0.00  0.00    +0.213 C 
ATOM     28  O   UNL     1       0.582   1.521  24.280  0.00  0.00    -0.218 OA
ATOM     29  C   UNL     1      -0.521   2.488  24.377  0.00  0.00    +0.212 C 
ATOM     30  O   UNL     1      -0.107   3.175  24.186  0.00  0.00    -0.218 OA
ENDROOT
BRANCH  13  12
ATOM     12  C   UNL     1      -1.855   3.072  24.580  0.00  0.00    +0.117 C 
BRANCH  12  10
ATOM      1  C   UNL     1      -3.183   3.525  25.448  0.00  0.00    +0.115 C 
ATOM      2  N   UNL     1      -3.272   3.216  24.688  0.00  0.00    -0.274 N 
ATOM     10  C   UNL     1      -2.608   2.989  24.254  0.00  0.00    +0.228 C 
ATOM     11  O   UNL     1      -2.697   2.680  23.494  0.00  0.00    -0.275 OA
BRANCH   2   3
ATOM      3  C   UNL     1      -4.025   3.133  24.362  0.00  0.00    +0.120 C 
BRANCH   3   4
ATOM      4  C   UNL     1      -4.628   2.779  24.801  0.00  0.00    -0.002 A 
ATOM      5  C   UNL     1      -4.819   1.987  24.675  0.00  0.00    -0.003 A 
ATOM      6  C   UNL     1      -5.422   1.633  25.115  0.00  0.00    -0.000 A 
ATOM      7  C   UNL     1      -5.833   2.072  25.680  0.00  0.00    -0.000 A 
ATOM      8  C   UNL     1      -5.641   2.865  25.805  0.00  0.00    -0.000 A 
ATOM      9  C   UNL     1      -5.039   3.218  25.366  0.00  0.00    -0.003 A 
ENDBRANCH   3   4
ENDBRANCH   2   3
ENDBRANCH  12  10
ENDBRANCH  13  12
BRANCH  15  16
ATOM     16  C   UNL     1      -0.741   0.394  24.732  0.00  0.00    +0.148 C 
BRANCH  16  17
ATOM     17  N   UNL     1      -1.415  -0.080  24.753  0.00  0.00    -0.199 NA
ATOM     18  C   UNL     1      -1.358  -0.867  24.994  0.00  0.00    +0.265 C 
ATOM     19  O   UNL     1      -0.627  -1.180  25.215  0.00  0.00    -0.268 OA
BRANCH  18  20
ATOM     20  C   UNL     1      -2.033  -1.342  25.015  0.00  0.00    +0.057 A 
ATOM     21  C   UNL     1      -2.072  -2.024  24.553  0.00  0.00    +0.005 A 
ATOM     22  C   UNL     1      -2.746  -2.498  24.574  0.00  0.00    +0.002 A 
ATOM     23  C   UNL     1      -3.382  -2.291  25.057  0.00  0.00    +0.030 A 
ATOM     24  C   UNL     1      -3.344  -1.609  25.519  0.00  0.00    +0.140 A 
ATOM     25  F   UNL     1      -3.979  -1.401  26.002  0.00  0.00    -0.204 F 
ATOM     26  C   UNL     1      -2.669  -1.134  25.498  0.00  0.00    +0.034 A 
ENDBRANCH  18  20
ENDBRANCH  16  17
ENDBRANCH  15  16
TORSDOF 7
ENDMDL
MODEL 4
REMARK VINA RESULT:     -11.6      2.076      5.260
REMARK  Name = 
REMARK  7 active torsions:
REMARK  status: ('A' for Active; 'I' for Inactive)
REMARK    1  A    between atoms: N_2  and  C_3
REMARK    2  A    between atoms: C_3  and  C_4
REMARK    3  A    between atoms: C_10  and  C_12
REMARK    4  A    between atoms: C_12  and  C_13
REMARK    5  A    between atoms: C_15  and  C_16
REMARK    6  A    between atoms: C_16  and  N_17
REMARK    7  A    between atoms: C_18  and  C_20
REMARK                            x       y       z     vdW  Elec       q    Type
REMARK                         _______ _______ _______ _____ _____    ______ ____
ROOT
ATOM     13  C   UNL     1      -0.996   0.420  24.738  0.00  0.00    +0.157 C 
ATOM     14  O   UNL     1      -1.800   0.602  24.774  0.00  0.00    -0.351 OA
ATOM     15  C   UNL     1      -2.224  -0.103  24.712  0.00  0.00    +0.170 C 
ATOM     27  C   UNL     1      -1.682  -0.721  24.638  0.00  0.00    +0.213 C 
ATOM     28  O   UNL     1      -1.866  -1.521  24.561  0.00  0.00    -0.218 OA
ATOM     29  C   UNL     1      -0.923  -0.397  24.654  0.00  0.00    +0.212 C 
ATOM     30  O   UNL     1      -0.216  -0.817  24.597  0.00  0.00    -0.218 OA
ENDROOT
BRANCH  13  12
ATOM     12  C   UNL     1      -0.374   0.961  24.779  0.00  0.00    +0.117 C 
BRANCH  12  10
ATOM      1  C   UNL     1      -0.219   2.521  24.264  0.00  0.00    +0.115 C 
ATOM      2  N   UNL     1      -0.325   2.360  25.066  0.00  0.00    -0.274 N 
ATOM     10  C   UNL     1      -0.403   1.580  25.324  0.00  0.00    +0.228 C 
ATOM     11  O   UNL     1      -0.509   1.419  26.126  0.00  0.00    -0.275 OA
BRANCH   2   3
ATOM      3  C   UNL     1      -0.353   2.979  25.611  0.00  0.00    +0.120 C 
BRANCH   3   4
ATOM      4  C   UNL     1      -0.809   3.649  25.451  0.00  0.00    -0.002 A 
ATOM      5  C   UNL     1      -1.583   3.696  25.730  0.00  0.00    -0.003 A 
ATOM      6  C   UNL     1      -2.039   4.365  25.570  0.00  0.00    -0.000 A 
ATOM      7  C   UNL     1      -1.720   4.987  25.132  0.00  0.00    -0.000 A 
ATOM      8  C   UNL     1      -0.945   4.938  24.853  0.00  0.00    -0.000 A 
ATOM      9  C   UNL     1      -0.489   4.270  25.012  0.00  0.00    -0.003 A 
ENDBRANCH   3   4
ENDBRANCH   2   3
ENDBRANCH  12  10
ENDBRANCH  13  12
BRANCH  15  16
ATOM     16  C   UNL     1      -3.046  -0.178  24.722  0.00  0.00    +0.148 C 
BRANCH  16  17
ATOM     17  N   UNL     1      -3.517   0.473  24.906  0.00  0.00    -0.199 NA
ATOM     18  C   UNL     1      -4.324   0.459  24.737  0.00  0.00    +0.265 C 
ATOM     19  O   UNL     1      -4.660  -0.207  24.384  0.00  0.00    -0.268 OA
BRANCH  18  20
ATOM     20  C   UNL     1      -4.796   1.110  24.921  0.00  0.00    +0.057 A 
ATOM     21  C   UNL     1      -5.409   1.034  25.469  0.00  0.00    +0.005 A 
ATOM     22  C   UNL     1      -5.880   1.686  25.652  0.00  0.00    +0.002 A 
ATOM     23  C   UNL     1      -5.739   2.412  25.289  0.00  0.00    +0.030 A 
ATOM     24  C   UNL     1      -5.127   2.489  24.743  0.00  0.00    +0.140 A 
ATOM     25  F   UNL     1      -4.985   3.216  24.380  0.00  0.00    -0.204 F 
ATOM     26  C   UNL     1      -4.655   1.837  24.559  0.00  0.00    +0.034 A 
ENDBRANCH  18  20
ENDBRANCH  16  17
ENDBRANCH  15  16
TORSDOF 7
ENDMDL
