MODEL 1
REMARK VINA RESULT:      -7.8      0.000      0.000
REMARK  Name = 
REMARK  7 active torsions:
REMARK  status: ('A' for Active; 'I' for Inactive)
REMARK    1  A    between atoms: S_2  and  C_5
REMARK    2  A    between atoms: C_8  and  C_9
REMARK    3  A    between atoms: C_9  and  N_10
REMARK    4  A    between atoms: N_10  and  C_11
REMARK    5  A    between atoms: C_14  and  C_15
REMARK    6  A    between atoms: C_15  and  N_16
REMARK    7  A    between atoms: C_17  and  C_19
REMARK                            x       y       z     vdW  Elec       q    Type
REMARK                         _______ _______ _______ _____ _____    ______ ____
ROOT
ATOM     11  C   UNL     1      -0.820   0.380  24.119  0.00  0.00    +0.135 C 
ATOM     12  C   UNL     1      -0.448  -0.219  24.547  0.00  0.00    +0.162 C 
ATOM     13  O   UNL     1       0.230  -0.443  24.135  0.00  0.00    -0.350 OA
ATOM     14  C   UNL     1       0.277   0.016  23.451  0.00  0.00    +0.169 C 
ATOM     24  C   UNL     1      -0.372   0.526  23.442  0.00  0.00    +0.199 C 
ATOM     25  O   UNL     1      -0.543   1.082  22.858  0.00  0.00    -0.219 OA
ENDROOT
BRANCH  11  10
ATOM     10  N   UNL     1      -1.518   0.766  24.331  0.00  0.00    -0.209 NA
BRANCH  10   9
ATOM      9  C   UNL     1      -2.130   0.344  24.689  0.00  0.00    +0.115 C 
BRANCH   9   8
ATOM      5  C   UNL     1      -4.376   1.363  24.899  0.00  0.00    +0.106 A 
ATOM      6  C   UNL     1      -4.301   0.574  24.667  0.00  0.00    +0.018 A 
ATOM      7  C   UNL     1      -3.552   0.235  24.597  0.00  0.00    -0.002 A 
ATOM      8  C   UNL     1      -2.879   0.684  24.759  0.00  0.00    -0.005 A 
ATOM     26  C   UNL     1      -2.955   1.472  24.990  0.00  0.00    -0.002 A 
ATOM     27  C   UNL     1      -3.703   1.811  25.060  0.00  0.00    +0.018 A 
BRANCH   5   2
ATOM      1  C   UNL     1      -5.873   2.041  25.039  0.00  0.00    +0.182 C 
ATOM      2  S   UNL     1      -5.125   1.702  24.969  0.00  0.00    +0.010 S 
ATOM      3  O   UNL     1      -4.969   2.180  24.315  0.00  0.00    -0.169 OA
ATOM      4  O   UNL     1      -5.280   1.224  25.623  0.00  0.00    -0.169 OA
ENDBRANCH   5   2
ENDBRANCH   9   8
ENDBRANCH  10   9
ENDBRANCH  11  10
BRANCH  14  15
ATOM     15  C   UNL     1       0.869  -0.025  22.878  0.00  0.00    +0.148 C 
BRANCH  15  16
ATOM     16  N   UNL     1       1.648   0.161  23.075  0.00  0.00    -0.199 NA
ATOM     17  C   UNL     1       2.246   0.084  22.511  0.00  0.00    +0.271 C 
ATOM     18  O   UNL     1       2.064  -0.180  21.752  0.00  0.00    -0.268 OA
BRANCH  17  19
ATOM     19  C   UNL     1       3.024   0.271  22.709  0.00  0.00    +0.084 A 
ATOM     20  C   UNL     1       3.359   1.024  22.698  0.00  0.00    +0.012 A 
ATOM     21  C   UNL     1       4.147   0.958  22.934  0.00  0.00    +0.008 A 
ATOM     22  C   UNL     1       4.299   0.162  23.092  0.00  0.00    +0.036 A 
ATOM     23  S   UNL     1       3.605  -0.262  22.952  0.00  0.00    -0.082 S 
ENDBRANCH  17  19
ENDBRANCH  15  16
ENDBRANCH  14  15
TORSDOF 7
ENDMDL
MODEL 2
REMARK VINA RESULT:      -7.3      3.263      4.916
REMARK  Name = 
REMARK  7 active torsions:
REMARK  status: ('A' for Active; 'I' for Inactive)
REMARK    1  A    between atoms: S_2  and  C_5
REMARK    2  A    between atoms: C_8  and  C_9
REMARK    3  A    between atoms: C_9  and  N_10
REMARK    4  A    between atoms: N_10  and  C_11
REMARK    5  A    between atoms: C_14  and  C_15
REMARK    6  A    between atoms: C_15  and  N_16
REMARK    7  A    between atoms: C_17  and  C_19
REMARK                            x       y       z     vdW  Elec       q    Type
REMARK                         _______ _______ _______ _____ _____    ______ ____
ROOT
ATOM     11  C   UNL     1      -0.413   0.573  24.876  0.00  0.00    +0.135 C 
ATOM     12  C   UNL     1      -0.103   0.283  24.170  0.00  0.00    +0.162 C 
ATOM     13  O   UNL     1      -0.380  -0.487  24.066  0.00  0.00    -0.350 OA
ATOM     14  C   UNL     1      -0.862  -0.673  24.709  0.00  0.00    +0.169 C 
ATOM     24  C   UNL     1      -0.883  -0.017  25.210  0.00  0.00    +0.199 C 
ATOM     25  O   UNL     1      -1.300   0.038  25.920  0.00  0.00    -0.219 OA
ENDROOT
BRANCH  11  10
ATOM     10  N   UNL     1      -0.278   1.323  25.194  0.00  0.00    -0.209 NA
BRANCH  10   9
ATOM      9  C   UNL     1      -0.041   1.941  24.704  0.00  0.00    +0.115 C 
BRANCH   9   8
ATOM      5  C   UNL     1      -1.022   4.195  24.993  0.00  0.00    +0.106 A 
ATOM      6  C   UNL     1      -1.007   3.845  24.246  0.00  0.00    +0.018 A 
ATOM      7  C   UNL     1      -0.680   3.094  24.149  0.00  0.00    -0.002 A 
ATOM      8  C   UNL     1      -0.368   2.693  24.800  0.00  0.00    -0.005 A 
ATOM     26  C   UNL     1      -0.384   3.044  25.547  0.00  0.00    -0.002 A 
ATOM     27  C   UNL     1      -0.711   3.795  25.643  0.00  0.00    +0.018 A 
BRANCH   5   2
ATOM      1  C   UNL     1      -1.676   5.698  25.186  0.00  0.00    +0.182 C 
ATOM      2  S   UNL     1      -1.349   4.946  25.089  0.00  0.00    +0.010 S 
ATOM      3  O   UNL     1      -0.659   5.285  24.789  0.00  0.00    -0.169 OA
ATOM      4  O   UNL     1      -2.039   4.608  25.389  0.00  0.00    -0.169 OA
ENDBRANCH   5   2
ENDBRANCH   9   8
ENDBRANCH  10   9
ENDBRANCH  11  10
BRANCH  14  15
ATOM     15  C   UNL     1      -1.255  -1.388  24.831  0.00  0.00    +0.148 C 
BRANCH  15  16
ATOM     16  N   UNL     1      -2.031  -1.483  24.568  0.00  0.00    -0.199 NA
ATOM     17  C   UNL     1      -2.379  -2.231  24.570  0.00  0.00    +0.271 C 
ATOM     18  O   UNL     1      -1.951  -2.884  24.835  0.00  0.00    -0.268 OA
BRANCH  17  19
ATOM     19  C   UNL     1      -3.155  -2.324  24.308  0.00  0.00    +0.084 A 
ATOM     20  C   UNL     1      -3.671  -1.717  24.096  0.00  0.00    +0.012 A 
ATOM     21  C   UNL     1      -4.387  -2.057  23.868  0.00  0.00    +0.008 A 
ATOM     22  C   UNL     1      -4.314  -2.877  23.938  0.00  0.00    +0.036 A 
ATOM     23  S   UNL     1      -3.552  -3.041  24.210  0.00  0.00    -0.082 S 
ENDBRANCH  17  19
ENDBRANCH  15  16
ENDBRANCH  14  15
TORSDOF 7
ENDMDL
MODEL 3
REMARK VINA RESULT:      -7.2      3.405      4.420
REMARK  Name = 
REMARK  7 active torsions:
REMARK  status: ('A' for Active; 'I' for Inactive)
REMARK    1  A    between atoms: S_2  and  C_5
REMARK    2  A    between atoms: C_8  and  C_9
REMARK    3  A    between atoms: C_9  and  N_10
REMARK    4  A    between atoms: N_10  and  C_11
REMARK    5  A    between atoms: C_14  and  C_15
REMARK    6  A    between atoms: C_15  and  N_16
REMARK    7  A    between atoms: C_17  and  C_19
REMARK                            x       y       z     vdW  Elec       q    Type
REMARK                         _______ _______ _______ _____ _____    ______ ____
ROOT
ATOM     11  C   UNL     1      -0.841   0.375  25.129  0.00  0.00    +0.135 C 
ATOM     12  C   UNL     1      -0.682   0.632  25.896  0.00  0.00    +0.162 C 
ATOM     13  O   UNL     1      -0.453   1.424  25.858  0.00  0.00    -0.350 OA
ATOM     14  C   UNL     1      -0.469   1.656  25.066  0.00  0.00    +0.169 C 
ATOM     24  C   UNL     1      -0.709   1.007  24.615  0.00  0.00    +0.199 C 
ATOM     25  O   UNL     1      -0.801   0.994  23.796  0.00  0.00    -0.219 OA
ENDROOT
BRANCH  11  10
ATOM     10  N   UNL     1      -1.088  -0.382  24.912  0.00  0.00    -0.209 NA
BRANCH  10   9
ATOM      9  C   UNL     1      -1.583  -0.813  25.412  0.00  0.00    +0.115 C 
BRANCH   9   8
ATOM      5  C   UNL     1      -3.333  -2.278  24.455  0.00  0.00    +0.106 A 
ATOM      6  C   UNL     1      -2.536  -2.462  24.344  0.00  0.00    +0.018 A 
ATOM      7  C   UNL     1      -1.952  -1.973  24.663  0.00  0.00    -0.002 A 
ATOM      8  C   UNL     1      -2.166  -1.301  25.093  0.00  0.00    -0.005 A 
ATOM     26  C   UNL     1      -2.963  -1.119  25.203  0.00  0.00    -0.002 A 
ATOM     27  C   UNL     1      -3.546  -1.607  24.884  0.00  0.00    +0.018 A 
BRANCH   5   2
ATOM      1  C   UNL     1      -4.499  -3.255  23.817  0.00  0.00    +0.182 C 
ATOM      2  S   UNL     1      -3.916  -2.767  24.136  0.00  0.00    +0.010 S 
ATOM      3  O   UNL     1      -3.628  -3.400  24.579  0.00  0.00    -0.169 OA
ATOM      4  O   UNL     1      -4.204  -2.133  23.693  0.00  0.00    -0.169 OA
ENDBRANCH   5   2
ENDBRANCH   9   8
ENDBRANCH  10   9
ENDBRANCH  11  10
BRANCH  14  15
ATOM     15  C   UNL     1      -0.280   2.404  24.776  0.00  0.00    +0.148 C 
BRANCH  15  16
ATOM     16  N   UNL     1      -0.730   3.059  24.996  0.00  0.00    -0.199 NA
ATOM     17  C   UNL     1      -0.587   3.794  24.649  0.00  0.00    +0.271 C 
ATOM     18  O   UNL     1       0.007   3.873  24.082  0.00  0.00    -0.268 OA
BRANCH  17  19
ATOM     19  C   UNL     1      -1.038   4.448  24.870  0.00  0.00    +0.084 A 
ATOM     20  C   UNL     1      -0.824   5.239  24.774  0.00  0.00    +0.012 A 
ATOM     21  C   UNL     1      -1.435   5.707  25.070  0.00  0.00    +0.008 A 
ATOM     22  C   UNL     1      -2.028   5.205  25.349  0.00  0.00    +0.036 A 
ATOM     23  S   UNL     1      -1.782   4.427  25.225  0.00  0.00    -0.082 S 
ENDBRANCH  17  19
ENDBRANCH  15  16
ENDBRANCH  14  15
TORSDOF 7
ENDMDL
MODEL 4
REMARK VINA RESULT:      -7.2      4.220      5.349
REMARK  Name = 
REMARK  7 active torsions:
REMARK  status: ('A' for Active; 'I' for Inactive)
REMARK    1  A    between atoms: S_2  and  C_5
REMARK    2  A    between atoms: C_8  and  C_9
REMARK    3  A    between atoms: C_9  and  N_10
REMARK    4  A    between atoms: N_10  and  C_11
REMARK    5  A    between atoms: C_14  and  C_15
REMARK    6  A    between atoms: C_15  and  N_16
REMARK    7  A    between atoms: C_17  and  C_19
REMARK                            x       y       z     vdW  Elec       q    Type
REMARK                         _______ _______ _______ _____ _____    ______ ____
ROOT
ATOM     11  C   UNL     1      -4.278   1.765  24.800  0.00  0.00    +0.135 C 
ATOM     12  C   UNL     1      -4.740   1.477  25.419  0.00  0.00    +0.162 C 
ATOM     13  O   UNL     1      -4.866   0.672  25.292  0.00  0.00    -0.350 OA
ATOM     14  C   UNL     1      -4.482   0.461  24.593  0.00  0.00    +0.169 C 
ATOM     24  C   UNL     1      -4.118   1.137  24.288  0.00  0.00    +0.199 C 
ATOM     25  O   UNL     1      -3.673   1.177  23.595  0.00  0.00    -0.219 OA
ENDROOT
BRANCH  11  10
ATOM     10  N   UNL     1      -4.020   2.543  24.707  0.00  0.00    -0.209 NA
BRANCH  10   9
ATOM      9  C   UNL     1      -3.737   2.963  25.357  0.00  0.00    +0.115 C 
BRANCH   9   8
ATOM      5  C   UNL     1      -1.825   4.513  25.089  0.00  0.00    +0.106 A 
ATOM      6  C   UNL     1      -1.797   3.918  25.660  0.00  0.00    +0.018 A 
ATOM      7  C   UNL     1      -2.434   3.402  25.750  0.00  0.00    -0.002 A 
ATOM      8  C   UNL     1      -3.099   3.480  25.267  0.00  0.00    -0.005 A 
ATOM     26  C   UNL     1      -3.127   4.074  24.696  0.00  0.00    -0.002 A 
ATOM     27  C   UNL     1      -2.490   4.591  24.607  0.00  0.00    +0.018 A 
BRANCH   5   2
ATOM      1  C   UNL     1      -0.551   5.546  24.910  0.00  0.00    +0.182 C 
ATOM      2  S   UNL     1      -1.188   5.029  25.000  0.00  0.00    +0.010 S 
ATOM      3  O   UNL     1      -0.722   4.406  24.726  0.00  0.00    -0.169 OA
ATOM      4  O   UNL     1      -1.655   5.652  25.274  0.00  0.00    -0.169 OA
ENDBRANCH   5   2
ENDBRANCH   9   8
ENDBRANCH  10   9
ENDBRANCH  11  10
BRANCH  14  15
ATOM     15  C   UNL     1      -4.464  -0.292  24.257  0.00  0.00    +0.148 C 
BRANCH  15  16
ATOM     16  N   UNL     1      -3.923  -0.852  24.528  0.00  0.00    -0.199 NA
ATOM     17  C   UNL     1      -3.917  -1.611  24.202  0.00  0.00    +0.271 C 
ATOM     18  O   UNL     1      -4.452  -1.808  23.606  0.00  0.00    -0.268 OA
BRANCH  17  19
ATOM     19  C   UNL     1      -3.376  -2.170  24.474  0.00  0.00    +0.084 A 
ATOM     20  C   UNL     1      -3.544  -2.803  24.976  0.00  0.00    +0.012 A 
ATOM     21  C   UNL     1      -2.844  -3.220  25.105  0.00  0.00    +0.008 A 
ATOM     22  C   UNL     1      -2.243  -2.846  24.682  0.00  0.00    +0.036 A 
ATOM     23  S   UNL     1      -2.572  -2.197  24.292  0.00  0.00    -0.082 S 
ENDBRANCH  17  19
ENDBRANCH  15  16
ENDBRANCH  14  15
TORSDOF 7
ENDMDL
MODEL 5
REMARK VINA RESULT:      -7.2      4.107      5.164
REMARK  Name = 
REMARK  7 active torsions:
REMARK  status: ('A' for Active; 'I' for Inactive)
REMARK    1  A    between atoms: S_2  and  C_5
REMARK    2  A    between atoms: C_8  and  C_9
REMARK    3  A    between atoms: C_9  and  N_10
REMARK    4  A    between atoms: N_10  and  C_11
REMARK    5  A    between atoms: C_14  and  C_15
REMARK    6  A    between atoms: C_15  and  N_16
REMARK    7  A    between atoms: C_17  and  C_19
REMARK                            x       y       z     vdW  Elec       q    Type
REMARK                         _______ _______ _______ _____ _____    ______ ____
ROOT
ATOM     11  C   UNL     1      -4.496   1.549  24.749  0.00  0.00    +0.135 C 
ATOM     12  C   UNL     1      -4.858   1.877  25.414  0.00  0.00    +0.162 C 
ATOM     13  O   UNL     1      -4.634   2.669  25.462  0.00  0.00    -0.350 OA
ATOM     14  C   UNL     1      -4.133   2.832  24.827  0.00  0.00    +0.169 C 
ATOM     24  C   UNL     1      -4.048   2.140  24.386  0.00  0.00    +0.199 C 
ATOM     25  O   UNL     1      -3.595   2.053  23.702  0.00  0.00    -0.219 OA
ENDROOT
BRANCH  11  10
ATOM     10  N   UNL     1      -4.569   0.769  24.491  0.00  0.00    -0.209 NA
BRANCH  10   9
ATOM      9  C   UNL     1      -4.611   0.156  25.041  0.00  0.00    +0.115 C 
BRANCH   9   8
ATOM      5  C   UNL     1      -3.533  -2.018  24.553  0.00  0.00    +0.106 A 
ATOM      6  C   UNL     1      -4.033  -1.672  23.995  0.00  0.00    +0.018 A 
ATOM      7  C   UNL     1      -4.393  -0.947  24.158  0.00  0.00    -0.002 A 
ATOM      8  C   UNL     1      -4.252  -0.569  24.878  0.00  0.00    -0.005 A 
ATOM     26  C   UNL     1      -3.752  -0.916  25.435  0.00  0.00    -0.002 A 
ATOM     27  C   UNL     1      -3.393  -1.641  25.272  0.00  0.00    +0.018 A 
BRANCH   5   2
ATOM      1  C   UNL     1      -2.815  -3.467  24.227  0.00  0.00    +0.182 C 
ATOM      2  S   UNL     1      -3.174  -2.743  24.390  0.00  0.00    +0.010 S 
ATOM      3  O   UNL     1      -3.916  -3.100  24.343  0.00  0.00    -0.169 OA
ATOM      4  O   UNL     1      -2.432  -2.385  24.437  0.00  0.00    -0.169 OA
ENDBRANCH   5   2
ENDBRANCH   9   8
ENDBRANCH  10   9
ENDBRANCH  11  10
BRANCH  14  15
ATOM     15  C   UNL     1      -3.780   3.559  24.662  0.00  0.00    +0.148 C 
BRANCH  15  16
ATOM     16  N   UNL     1      -2.967   3.655  24.762  0.00  0.00    -0.199 NA
ATOM     17  C   UNL     1      -2.652   4.408  24.882  0.00  0.00    +0.271 C 
ATOM     18  O   UNL     1      -3.150   5.064  24.903  0.00  0.00    -0.268 OA
BRANCH  17  19
ATOM     19  C   UNL     1      -1.839   4.503  24.982  0.00  0.00    +0.084 A 
ATOM     20  C   UNL     1      -1.405   5.181  24.803  0.00  0.00    +0.012 A 
ATOM     21  C   UNL     1      -0.614   5.035  24.988  0.00  0.00    +0.008 A 
ATOM     22  C   UNL     1      -0.559   4.266  25.283  0.00  0.00    +0.036 A 
ATOM     23  S   UNL     1      -1.316   3.938  25.279  0.00  0.00    -0.082 S 
ENDBRANCH  17  19
ENDBRANCH  15  16
ENDBRANCH  14  15
TORSDOF 7
ENDMDL
MODEL 6
REMARK VINA RESULT:      -7.0      1.370      6.723
REMARK  Name = 
REMARK  7 active torsions:
REMARK  status: ('A' for Active; 'I' for Inactive)
REMARK    1  A    between atoms: S_2  and  C_5
REMARK    2  A    between atoms: C_8  and  C_9
REMARK    3  A    between atoms: C_9  and  N_10
REMARK    4  A    between atoms: N_10  and  C_11
REMARK    5  A    between atoms: C_14  and  C_15
REMARK    6  A    between atoms: C_15  and  N_16
REMARK    7  A    between atoms: C_17  and  C_19
REMARK                            x       y       z     vdW  Elec       q    Type
REMARK                         _______ _______ _______ _____ _____    ______ ____
ROOT
ATOM     11  C   UNL     1      -1.401   1.088  23.720  0.00  0.00    +0.135 C 
ATOM     12  C   UNL     1      -1.681   0.754  24.420  0.00  0.00    +0.162 C 
ATOM     13  O   UNL     1      -2.426   1.075  24.575  0.00  0.00    -0.350 OA
ATOM     14  C   UNL     1      -2.606   1.607  23.970  0.00  0.00    +0.169 C 
ATOM     24  C   UNL     1      -1.972   1.615  23.442  0.00  0.00    +0.199 C 
ATOM     25  O   UNL     1      -1.919   2.070  22.756  0.00  0.00    -0.219 OA
ENDROOT
BRANCH  11  10
ATOM     10  N   UNL     1      -0.676   0.925  23.360  0.00  0.00    -0.209 NA
BRANCH  10   9
ATOM      9  C   UNL     1      -0.088   0.528  23.780  0.00  0.00    +0.115 C 
BRANCH   9   8
ATOM      5  C   UNL     1       2.237   0.506  22.933  0.00  0.00    +0.106 A 
ATOM      6  C   UNL     1       2.000   1.086  23.471  0.00  0.00    +0.018 A 
ATOM      7  C   UNL     1       1.224   1.093  23.753  0.00  0.00    -0.002 A 
ATOM      8  C   UNL     1       0.687   0.520  23.498  0.00  0.00    -0.005 A 
ATOM     26  C   UNL     1       0.925  -0.058  22.961  0.00  0.00    -0.002 A 
ATOM     27  C   UNL     1       1.701  -0.065  22.678  0.00  0.00    +0.018 A 
BRANCH   5   2
ATOM      1  C   UNL     1       3.787   0.492  22.369  0.00  0.00    +0.182 C 
ATOM      2  S   UNL     1       3.012   0.499  22.651  0.00  0.00    +0.010 S 
ATOM      3  O   UNL     1       2.837  -0.160  22.187  0.00  0.00    -0.169 OA
ATOM      4  O   UNL     1       3.187   1.159  23.115  0.00  0.00    -0.169 OA
ENDBRANCH   5   2
ENDBRANCH   9   8
ENDBRANCH  10   9
ENDBRANCH  11  10
BRANCH  14  15
ATOM     15  C   UNL     1      -3.297   2.052  23.906  0.00  0.00    +0.148 C 
BRANCH  15  16
ATOM     16  N   UNL     1      -3.896   1.967  24.466  0.00  0.00    -0.199 NA
ATOM     17  C   UNL     1      -4.548   2.474  24.452  0.00  0.00    +0.271 C 
ATOM     18  O   UNL     1      -4.599   3.064  23.878  0.00  0.00    -0.268 OA
BRANCH  17  19
ATOM     19  C   UNL     1      -5.147   2.388  25.013  0.00  0.00    +0.084 A 
ATOM     20  C   UNL     1      -5.722   1.798  25.020  0.00  0.00    +0.012 A 
ATOM     21  C   UNL     1      -6.207   1.922  25.676  0.00  0.00    +0.008 A 
ATOM     22  C   UNL     1      -5.931   2.590  26.074  0.00  0.00    +0.036 A 
ATOM     23  S   UNL     1      -5.276   2.878  25.664  0.00  0.00    -0.082 S 
ENDBRANCH  17  19
ENDBRANCH  15  16
ENDBRANCH  14  15
TORSDOF 7
ENDMDL
MODEL 7
REMARK VINA RESULT:      -6.2     13.429     15.303
REMARK  Name = 
REMARK  7 active torsions:
REMARK  status: ('A' for Active; 'I' for Inactive)
REMARK    1  A    between atoms: S_2  and  C_5
REMARK    2  A    between atoms: C_8  and  C_9
REMARK    3  A    between atoms: C_9  and  N_10
REMARK    4  A    between atoms: N_10  and  C_11
REMARK    5  A    between atoms: C_14  and  C_15
REMARK    6  A    between atoms: C_15  and  N_16
REMARK    7  A    between atoms: C_17  and  C_19
REMARK                            x       y       z     vdW  Elec       q    Type
REMARK                         _______ _______ _______ _____ _____    ______ ____
ROOT
ATOM     11  C   UNL     1      -5.944 -10.124  16.445  0.00  0.00    +0.135 C 
ATOM     12  C   UNL     1      -6.419 -10.166  15.772  0.00  0.00    +0.162 C 
ATOM     13  O   UNL     1      -7.193  -9.986  15.994  0.00  0.00    -0.350 OA
ATOM     14  C   UNL     1      -7.198  -9.834  16.804  0.00  0.00    +0.169 C 
ATOM     24  C   UNL     1      -6.426  -9.919  17.084  0.00  0.00    +0.199 C 
ATOM     25  O   UNL     1      -6.178  -9.817  17.864  0.00  0.00    -0.219 OA
ENDROOT
BRANCH  11  10
ATOM     10  N   UNL     1      -5.132 -10.263  16.476  0.00  0.00    -0.209 NA
BRANCH  10   9
ATOM      9  C   UNL     1      -4.734 -10.531  15.805  0.00  0.00    +0.115 C 
BRANCH   9   8
ATOM      5  C   UNL     1      -2.260 -10.588  15.774  0.00  0.00    +0.106 A 
ATOM      6  C   UNL     1      -2.667 -10.735  16.476  0.00  0.00    +0.018 A 
ATOM      7  C   UNL     1      -3.491 -10.716  16.487  0.00  0.00    -0.002 A 
ATOM      8  C   UNL     1      -3.910 -10.550  15.795  0.00  0.00    -0.005 A 
ATOM     26  C   UNL     1      -3.502 -10.404  15.093  0.00  0.00    -0.002 A 
ATOM     27  C   UNL     1      -2.677 -10.422  15.082  0.00  0.00    +0.018 A 
BRANCH   5   2
ATOM      1  C   UNL     1      -0.611 -10.626  15.752  0.00  0.00    +0.182 C 
ATOM      2  S   UNL     1      -1.435 -10.607  15.763  0.00  0.00    +0.010 S 
ATOM      3  O   UNL     1      -1.429 -10.781  16.569  0.00  0.00    -0.169 OA
ATOM      4  O   UNL     1      -1.442 -10.433  14.957  0.00  0.00    -0.169 OA
ENDBRANCH   5   2
ENDBRANCH   9   8
ENDBRANCH  10   9
ENDBRANCH  11  10
BRANCH  14  15
ATOM     15  C   UNL     1      -7.857  -9.632  17.256  0.00  0.00    +0.148 C 
BRANCH  15  16
ATOM     16  N   UNL     1      -8.423  -9.115  16.953  0.00  0.00    -0.199 NA
ATOM     17  C   UNL     1      -9.139  -9.008  17.350  0.00  0.00    +0.271 C 
ATOM     18  O   UNL     1      -9.288  -9.418  18.049  0.00  0.00    -0.268 OA
BRANCH  17  19
ATOM     19  C   UNL     1      -9.704  -8.490  17.045  0.00  0.00    +0.084 A 
ATOM     20  C   UNL     1      -9.845  -7.720  17.305  0.00  0.00    +0.012 A 
ATOM     21  C   UNL     1     -10.456  -7.404  16.849  0.00  0.00    +0.008 A 
ATOM     22  C   UNL     1     -10.693  -7.980  16.307  0.00  0.00    +0.036 A 
ATOM     23  S   UNL     1     -10.228  -8.650  16.429  0.00  0.00    -0.082 S 
ENDBRANCH  17  19
ENDBRANCH  15  16
ENDBRANCH  14  15
TORSDOF 7
ENDMDL
MODEL 8
REMARK VINA RESULT:      -6.1     14.219     16.032
REMARK  Name = 
REMARK  7 active torsions:
REMARK  status: ('A' for Active; 'I' for Inactive)
REMARK    1  A    between atoms: S_2  and  C_5
REMARK    2  A    between atoms: C_8  and  C_9
REMARK    3  A    between atoms: C_9  and  N_10
REMARK    4  A    between atoms: N_10  and  C_11
REMARK    5  A    between atoms: C_14  and  C_15
REMARK    6  A    between atoms: C_15  and  N_16
REMARK    7  A    between atoms: C_17  and  C_19
REMARK                            x       y       z     vdW  Elec       q    Type
REMARK                         _______ _______ _______ _____ _____    ______ ____
ROOT
ATOM     11  C   UNL     1      -5.806 -10.225  15.290  0.00  0.00    +0.135 C 
ATOM     12  C   UNL     1      -6.479 -10.657  15.088  0.00  0.00    +0.162 C 
ATOM     13  O   UNL     1      -7.066 -10.490  15.645  0.00  0.00    -0.350 OA
ATOM     14  C   UNL     1      -6.755  -9.956  16.191  0.00  0.00    +0.169 C 
ATOM     24  C   UNL     1      -5.976  -9.792  15.972  0.00  0.00    +0.199 C 
ATOM     25  O   UNL     1      -5.459  -9.285  16.365  0.00  0.00    -0.219 OA
ENDROOT
BRANCH  11  10
ATOM     10  N   UNL     1      -5.089 -10.227  14.883  0.00  0.00    -0.209 NA
BRANCH  10   9
ATOM      9  C   UNL     1      -4.984 -10.724  14.234  0.00  0.00    +0.115 C 
BRANCH   9   8
ATOM      5  C   UNL     1      -2.946 -10.532  12.844  0.00  0.00    +0.106 A 
ATOM      6  C   UNL     1      -3.688 -10.411  12.505  0.00  0.00    +0.018 A 
ATOM      7  C   UNL     1      -4.368 -10.475  12.969  0.00  0.00    -0.002 A 
ATOM      8  C   UNL     1      -4.305 -10.660  13.771  0.00  0.00    -0.005 A 
ATOM     26  C   UNL     1      -3.562 -10.781  14.108  0.00  0.00    -0.002 A 
ATOM     27  C   UNL     1      -2.882 -10.717  13.645  0.00  0.00    +0.018 A 
BRANCH   5   2
ATOM      1  C   UNL     1      -1.586 -10.405  11.917  0.00  0.00    +0.182 C 
ATOM      2  S   UNL     1      -2.266 -10.469  12.381  0.00  0.00    +0.010 S 
ATOM      3  O   UNL     1      -1.844 -10.201  13.037  0.00  0.00    -0.169 OA
ATOM      4  O   UNL     1      -2.688 -10.736  11.724  0.00  0.00    -0.169 OA
ENDBRANCH   5   2
ENDBRANCH   9   8
ENDBRANCH  10   9
ENDBRANCH  11  10
BRANCH  14  15
ATOM     15  C   UNL     1      -7.152  -9.641  16.841  0.00  0.00    +0.148 C 
BRANCH  15  16
ATOM     16  N   UNL     1      -7.931  -9.383  16.764  0.00  0.00    -0.199 NA
ATOM     17  C   UNL     1      -8.360  -9.159  17.433  0.00  0.00    +0.271 C 
ATOM     18  O   UNL     1      -8.009  -9.192  18.178  0.00  0.00    -0.268 OA
BRANCH  17  19
ATOM     19  C   UNL     1      -9.140  -8.901  17.354  0.00  0.00    +0.084 A 
ATOM     20  C   UNL     1      -9.380  -8.148  17.120  0.00  0.00    +0.012 A 
ATOM     21  C   UNL     1     -10.205  -8.132  17.116  0.00  0.00    +0.008 A 
ATOM     22  C   UNL     1     -10.475  -8.876  17.349  0.00  0.00    +0.036 A 
ATOM     23  S   UNL     1      -9.817  -9.351  17.496  0.00  0.00    -0.082 S 
ENDBRANCH  17  19
ENDBRANCH  15  16
ENDBRANCH  14  15
TORSDOF 7
ENDMDL
MODEL 9
REMARK VINA RESULT:      -6.0     14.791     15.383
REMARK  Name = 
REMARK  7 active torsions:
REMARK  status: ('A' for Active; 'I' for Inactive)
REMARK    1  A    between atoms: S_2  and  C_5
REMARK    2  A    between atoms: C_8  and  C_9
REMARK    3  A    between atoms: C_9  and  N_10
REMARK    4  A    between atoms: N_10  and  C_11
REMARK    5  A    between atoms: C_14  and  C_15
REMARK    6  A    between atoms: C_15  and  N_16
REMARK    7  A    between atoms: C_17  and  C_19
REMARK                            x       y       z     vdW  Elec       q    Type
REMARK                         _______ _______ _______ _____ _____    ______ ____
ROOT
ATOM     11  C   UNL     1      -5.281 -10.311  14.494  0.00  0.00    +0.135 C 
ATOM     12  C   UNL     1      -4.491 -10.381  14.268  0.00  0.00    +0.162 C 
ATOM     13  O   UNL     1      -4.452 -10.297  13.448  0.00  0.00    -0.350 OA
ATOM     14  C   UNL     1      -5.218 -10.176  13.167  0.00  0.00    +0.169 C 
ATOM     24  C   UNL     1      -5.731 -10.184  13.814  0.00  0.00    +0.199 C 
ATOM     25  O   UNL     1      -6.549 -10.084  13.786  0.00  0.00    -0.219 OA
ENDROOT
BRANCH  11  10
ATOM     10  N   UNL     1      -5.570 -10.359  15.265  0.00  0.00    -0.209 NA
BRANCH  10   9
ATOM      9  C   UNL     1      -5.130 -10.052  15.891  0.00  0.00    +0.115 C 
BRANCH   9   8
ATOM      5  C   UNL     1      -5.828 -10.487  18.225  0.00  0.00    +0.106 A 
ATOM      6  C   UNL     1      -5.106 -10.777  17.951  0.00  0.00    +0.018 A 
ATOM      7  C   UNL     1      -4.873 -10.632  17.172  0.00  0.00    -0.002 A 
ATOM      8  C   UNL     1      -5.363 -10.197  16.669  0.00  0.00    -0.005 A 
ATOM     26  C   UNL     1      -6.084  -9.908  16.945  0.00  0.00    -0.002 A 
ATOM     27  C   UNL     1      -6.317 -10.053  17.723  0.00  0.00    +0.018 A 
BRANCH   5   2
ATOM      1  C   UNL     1      -6.293 -10.776  19.782  0.00  0.00    +0.182 C 
ATOM      2  S   UNL     1      -6.061 -10.632  19.004  0.00  0.00    +0.010 S 
ATOM      3  O   UNL     1      -6.846 -10.488  18.796  0.00  0.00    -0.169 OA
ATOM      4  O   UNL     1      -5.275 -10.775  19.212  0.00  0.00    -0.169 OA
ENDBRANCH   5   2
ENDBRANCH   9   8
ENDBRANCH  10   9
ENDBRANCH  11  10
BRANCH  14  15
ATOM     15  C   UNL     1      -5.435 -10.065  12.379  0.00  0.00    +0.148 C 
BRANCH  15  16
ATOM     16  N   UNL     1      -4.872  -9.825  11.826  0.00  0.00    -0.199 NA
ATOM     17  C   UNL     1      -5.093  -9.695  11.042  0.00  0.00    +0.271 C 
ATOM     18  O   UNL     1      -5.877  -9.805  10.811  0.00  0.00    -0.268 OA
BRANCH  17  19
ATOM     19  C   UNL     1      -4.530  -9.454  10.490  0.00  0.00    +0.084 A 
ATOM     20  C   UNL     1      -3.733  -9.667  10.488  0.00  0.00    +0.012 A 
ATOM     21  C   UNL     1      -3.373  -9.304   9.840  0.00  0.00    +0.008 A 
ATOM     22  C   UNL     1      -3.949  -8.866   9.441  0.00  0.00    +0.036 A 
ATOM     23  S   UNL     1      -4.663  -8.960   9.844  0.00  0.00    -0.082 S 
ENDBRANCH  17  19
ENDBRANCH  15  16
ENDBRANCH  14  15
TORSDOF 7
ENDMDL
MODEL 10
REMARK VINA RESULT:      -5.9     17.399     18.834
REMARK  Name = 
REMARK  7 active torsions:
REMARK  status: ('A' for Active; 'I' for Inactive)
REMARK    1  A    between atoms: S_2  and  C_5
REMARK    2  A    between atoms: C_8  and  C_9
REMARK    3  A    between atoms: C_9  and  N_10
REMARK    4  A    between atoms: N_10  and  C_11
REMARK    5  A    between atoms: C_14  and  C_15
REMARK    6  A    between atoms: C_15  and  N_16
REMARK    7  A    between atoms: C_17  and  C_19
REMARK                            x       y       z     vdW  Elec       q    Type
REMARK                         _______ _______ _______ _____ _____    ______ ____
ROOT
ATOM     11  C   UNL     1      -6.339  -8.805   9.457  0.00  0.00    +0.135 C 
ATOM     12  C   UNL     1      -6.315  -8.533   8.679  0.00  0.00    +0.162 C 
ATOM     13  O   UNL     1      -7.068  -8.261   8.479  0.00  0.00    -0.350 OA
ATOM     14  C   UNL     1      -7.558  -8.365   9.135  0.00  0.00    +0.169 C 
ATOM     24  C   UNL     1      -7.107  -8.701   9.739  0.00  0.00    +0.199 C 
ATOM     25  O   UNL     1      -7.378  -8.899  10.493  0.00  0.00    -0.219 OA
ENDROOT
BRANCH  11  10
ATOM     10  N   UNL     1      -5.706  -9.124   9.879  0.00  0.00    -0.209 NA
BRANCH  10   9
ATOM      9  C   UNL     1      -4.978  -9.236   9.509  0.00  0.00    +0.115 C 
BRANCH   9   8
ATOM      5  C   UNL     1      -3.006  -9.920  10.838  0.00  0.00    +0.106 A 
ATOM      6  C   UNL     1      -2.996  -9.207  10.423  0.00  0.00    +0.018 A 
ATOM      7  C   UNL     1      -3.653  -8.979   9.980  0.00  0.00    -0.002 A 
ATOM      8  C   UNL     1      -4.321  -9.464   9.952  0.00  0.00    -0.005 A 
ATOM     26  C   UNL     1      -4.330 -10.176  10.368  0.00  0.00    -0.002 A 
ATOM     27  C   UNL     1      -3.672 -10.405  10.811  0.00  0.00    +0.018 A 
BRANCH   5   2
ATOM      1  C   UNL     1      -1.691 -10.377  11.725  0.00  0.00    +0.182 C 
ATOM      2  S   UNL     1      -2.349 -10.148  11.282  0.00  0.00    +0.010 S 
ATOM      3  O   UNL     1      -2.778 -10.781  11.592  0.00  0.00    -0.169 OA
ATOM      4  O   UNL     1      -1.920  -9.516  10.971  0.00  0.00    -0.169 OA
ENDBRANCH   5   2
ENDBRANCH   9   8
ENDBRANCH  10   9
ENDBRANCH  11  10
BRANCH  14  15
ATOM     15  C   UNL     1      -8.358  -8.168   9.179  0.00  0.00    +0.148 C 
BRANCH  15  16
ATOM     16  N   UNL     1      -8.617  -7.434   8.909  0.00  0.00    -0.199 NA
ATOM     17  C   UNL     1      -9.422  -7.251   8.920  0.00  0.00    +0.271 C 
ATOM     18  O   UNL     1      -9.966  -7.803   9.201  0.00  0.00    -0.268 OA
BRANCH  17  19
ATOM     19  C   UNL     1      -9.681  -6.516   8.650  0.00  0.00    +0.084 A 
ATOM     20  C   UNL     1      -9.215  -5.841   8.562  0.00  0.00    +0.012 A 
ATOM     21  C   UNL     1      -9.695  -5.234   8.278  0.00  0.00    +0.008 A 
ATOM     22  C   UNL     1     -10.459  -5.533   8.190  0.00  0.00    +0.036 A 
ATOM     23  S   UNL     1     -10.450  -6.326   8.420  0.00  0.00    -0.082 S 
ENDBRANCH  17  19
ENDBRANCH  15  16
ENDBRANCH  14  15
TORSDOF 7
ENDMDL
