REMARK  Name = 
REMARK  5 active torsions:
REMARK  status: ('A' for Active; 'I' for Inactive)
REMARK    1  A    between atoms: C_2  and  N_4
REMARK    2  A    between atoms: N_7  and  C_8
REMARK    3  A    between atoms: C_8  and  C_9
REMARK    4  A    between atoms: C_11  and  C_12
REMARK    5  A    between atoms: C_12  and  C_13
REMARK                            x       y       z     vdW  Elec       q    Type
REMARK                         _______ _______ _______ _____ _____    ______ ____
ROOT
ATOM      9  C   UNL     1       6.013  -7.323   0.000  0.00  0.00    +0.170 C 
ATOM     10  O   UNL     1       6.767  -6.988   0.000  0.00  0.00    -0.351 OA
ATOM     11  C   UNL     1       7.319  -7.601   0.000  0.00  0.00    +0.157 C 
ATOM     20  C   UNL     1       6.906  -8.315   0.000  0.00  0.00    +0.212 C 
ATOM     21  O   UNL     1       7.242  -9.069   0.000  0.00  0.00    -0.218 OA
ATOM     22  C   UNL     1       6.099  -8.144   0.000  0.00  0.00    +0.213 C 
ATOM     23  O   UNL     1       5.486  -8.696   0.000  0.00  0.00    -0.218 OA
ENDROOT
BRANCH   9   8
ATOM      8  C   UNL     1       5.299  -6.911   0.000  0.00  0.00    +0.149 C 
BRANCH   8   7
ATOM      4  N   UNL     1       3.155  -7.323   0.000  0.00  0.00    -0.189 NA
ATOM      5  C   UNL     1       3.870  -6.911   0.000  0.00  0.00    +0.339 C 
ATOM      6  O   UNL     1       3.870  -6.086   0.000  0.00  0.00    -0.249 OA
ATOM      7  N   UNL     1       4.584  -7.323   0.000  0.00  0.00    -0.185 NA
BRANCH   4   2
ATOM      1  C   UNL     1       1.726  -7.323   0.000  0.00  0.00    +0.023 C 
ATOM      2  C   UNL     1       2.441  -6.911   0.000  0.00  0.00    +0.097 C 
ATOM      3  C   UNL     1       2.441  -6.086   0.000  0.00  0.00    +0.023 C 
ENDBRANCH   4   2
ENDBRANCH   8   7
ENDBRANCH   9   8
BRANCH  11  12
ATOM     12  C   UNL     1       8.139  -7.514   0.000  0.00  0.00    +0.117 C 
BRANCH  12  13
ATOM     13  C   UNL     1       8.475  -6.761   0.000  0.00  0.00    +0.228 C 
ATOM     14  O   UNL     1       7.990  -6.093   0.000  0.00  0.00    -0.275 OA
ATOM     15  N   UNL     1       9.295  -6.675   0.000  0.00  0.00    -0.279 N 
ATOM     16  C   UNL     1       9.708  -5.960   0.000  0.00  0.00    +0.093 C 
ATOM     17  C   UNL     1      10.515  -6.132   0.000  0.00  0.00    +0.023 C 
ATOM     18  C   UNL     1      10.601  -6.952   0.000  0.00  0.00    +0.023 C 
ATOM     19  C   UNL     1       9.847  -7.288   0.000  0.00  0.00    +0.093 C 
ENDBRANCH  12  13
ENDBRANCH  11  12
TORSDOF 5
