REMARK  Name = 
REMARK  4 active torsions:
REMARK  status: ('A' for Active; 'I' for Inactive)
REMARK    1  A    between atoms: C_2  and  C_3
REMARK    2  A    between atoms: C_3  and  O_4
REMARK    3  A    between atoms: O_4  and  C_5
REMARK    4  A    between atoms: C_14  and  C_16
REMARK                            x       y       z     vdW  Elec       q    Type
REMARK                         _______ _______ _______ _____ _____    ______ ____
ROOT
ATOM      1  O   UNL     1      -3.304  -2.416   0.000  0.00  0.00    -0.271 OA
ATOM      2  C   UNL     1      -3.390  -1.595   0.000  0.00  0.00    +0.270 C 
ATOM     11  N   UNL     1      -2.723  -1.110   0.000  0.00  0.00    -0.276 N 
ATOM     12  C   UNL     1      -2.723  -0.285   0.000  0.00  0.00    +0.094 C 
ATOM     13  C   UNL     1      -1.938  -0.030   0.000  0.00  0.00    +0.030 C 
ATOM     14  C   UNL     1      -1.453  -0.698   0.000  0.00  0.00    +0.068 C 
ATOM     15  C   UNL     1      -1.938  -1.365   0.000  0.00  0.00    +0.100 C 
ENDROOT
BRANCH  14  16
ATOM     16  C   UNL     1      -0.628  -0.698   0.000  0.00  0.00    +0.090 A 
ATOM     17  N   UNL     1      -0.143  -1.365   0.000  0.00  0.00    -0.243 NA
ATOM     18  C   UNL     1       0.641  -1.110   0.000  0.00  0.00    +0.087 A 
ATOM     19  C   UNL     1       0.641  -0.285   0.000  0.00  0.00    +0.048 A 
ATOM     20  S   UNL     1      -0.143  -0.030   0.000  0.00  0.00    -0.071 S 
ATOM     21  C   UNL     1       1.356   0.127   0.000  0.00  0.00    +0.008 A 
ATOM     22  C   UNL     1       2.070  -0.285   0.000  0.00  0.00    +0.001 A 
ATOM     23  C   UNL     1       2.070  -1.110   0.000  0.00  0.00    +0.002 A 
ATOM     24  C   UNL     1       1.356  -1.523   0.000  0.00  0.00    +0.020 A 
ENDBRANCH  14  16
BRANCH   2   3
ATOM      3  C   UNL     1      -4.144  -1.260   0.000  0.00  0.00    +0.290 C 
BRANCH   3   4
ATOM      4  O   UNL     1      -4.811  -1.745   0.000  0.00  0.00    -0.466 OA
BRANCH   4   5
ATOM      5  C   UNL     1      -5.565  -1.409   0.000  0.00  0.00    +0.139 A 
ATOM      6  C   UNL     1      -6.233  -1.894   0.000  0.00  0.00    +0.037 A 
ATOM      7  C   UNL     1      -6.986  -1.558   0.000  0.00  0.00    +0.003 A 
ATOM      8  C   UNL     1      -7.073  -0.738   0.000  0.00  0.00    +0.000 A 
ATOM      9  C   UNL     1      -6.405  -0.253   0.000  0.00  0.00    +0.003 A 
ATOM     10  C   UNL     1      -5.651  -0.589   0.000  0.00  0.00    +0.037 A 
ENDBRANCH   4   5
ENDBRANCH   3   4
ENDBRANCH   2   3
TORSDOF 4
