MODEL 1
REMARK VINA RESULT:      -9.4      0.000      0.000
REMARK  Name = 
REMARK  7 active torsions:
REMARK  status: ('A' for Active; 'I' for Inactive)
REMARK    1  A    between atoms: N_6  and  C_7
REMARK    2  A    between atoms: C_7  and  C_8
REMARK    3  A    between atoms: C_20  and  C_21
REMARK    4  A    between atoms: C_21  and  C_22
REMARK    5  A    between atoms: C_22  and  C_23
REMARK    6  A    between atoms: N_25  and  C_26
REMARK    7  A    between atoms: C_26  and  C_27
REMARK                            x       y       z     vdW  Elec       q    Type
REMARK                         _______ _______ _______ _____ _____    ______ ____
ROOT
ATOM      1  C   UNL     1      -1.103  -0.264  24.651  0.00  0.00    +0.090 C 
ATOM      2  N   UNL     1      -1.332   0.411  24.235  0.00  0.00    -0.271 NA
ATOM      3  C   UNL     1      -2.089   0.694  24.401  0.00  0.00    +0.083 C 
ATOM      4  C   UNL     1      -2.599   0.339  24.945  0.00  0.00    +0.035 C 
ATOM      5  C   UNL     1      -3.299   0.774  24.961  0.00  0.00    +0.074 C 
ATOM      6  N   UNL     1      -3.223   1.399  24.428  0.00  0.00    -0.262 NA
ATOM     15  C   UNL     1      -2.475   1.350  24.082  0.00  0.00    +0.151 C 
ATOM     16  C   UNL     1      -2.200   1.883  23.517  0.00  0.00    +0.257 C 
ATOM     17  O   UNL     1      -2.723   2.487  23.309  0.00  0.00    -0.272 OA
ATOM     18  N   UNL     1      -1.470   1.895  23.132  0.00  0.00    -0.203 NA
ATOM     19  C   UNL     1      -0.836   1.373  23.218  0.00  0.00    +0.131 C 
ATOM     20  C   UNL     1      -0.774   0.714  23.708  0.00  0.00    +0.080 C 
ENDROOT
BRANCH   6   7
ATOM      7  C   UNL     1      -3.794   1.973  24.268  0.00  0.00    +0.100 C 
BRANCH   7   8
ATOM      8  C   UNL     1      -4.459   2.038  24.752  0.00  0.00    -0.006 A 
ATOM      9  C   UNL     1      -4.480   2.605  25.351  0.00  0.00    -0.003 A 
ATOM     10  C   UNL     1      -5.145   2.669  25.835  0.00  0.00    -0.005 A 
ATOM     11  C   UNL     1      -5.789   2.166  25.720  0.00  0.00    -0.022 A 
ATOM     12  C   UNL     1      -6.454   2.230  26.204  0.00  0.00    +0.031 C 
ATOM     13  C   UNL     1      -5.768   1.599  25.121  0.00  0.00    -0.005 A 
ATOM     14  C   UNL     1      -5.103   1.535  24.637  0.00  0.00    -0.003 A 
ENDBRANCH   7   8
ENDBRANCH   6   7
BRANCH  20  21
ATOM     21  C   UNL     1      -0.061   0.301  23.667  0.00  0.00    +0.027 C 
BRANCH  21  22
ATOM     22  C   UNL     1       0.603   0.657  23.333  0.00  0.00    +0.088 C 
BRANCH  22  23
ATOM     23  C   UNL     1       1.209   0.192  23.021  0.00  0.00    +0.242 C 
ATOM     24  O   UNL     1       1.036  -0.550  22.704  0.00  0.00    -0.273 OA
ATOM     25  N   UNL     1       1.986   0.467  23.025  0.00  0.00    -0.197 NA
BRANCH  25  26
ATOM     26  C   UNL     1       2.591   0.002  22.713  0.00  0.00    +0.179 C 
BRANCH  26  27
ATOM     27  C   UNL     1       3.379   0.211  22.838  0.00  0.00    +0.145 A 
ATOM     28  C   UNL     1       3.724   0.937  22.652  0.00  0.00    +0.038 A 
ATOM     29  C   UNL     1       4.519   0.905  22.870  0.00  0.00    +0.043 A 
ATOM     30  C   UNL     1       4.666   0.159  23.189  0.00  0.00    +0.179 A 
ATOM     31  O   UNL     1       3.962  -0.270  23.170  0.00  0.00    -0.453 OA
ENDBRANCH  26  27
ENDBRANCH  25  26
ENDBRANCH  22  23
ENDBRANCH  21  22
ENDBRANCH  20  21
TORSDOF 7
ENDMDL
