REMARK  Name = 
REMARK  5 active torsions:
REMARK  status: ('A' for Active; 'I' for Inactive)
REMARK    1  A    between atoms: C_5  and  C_8
REMARK    2  A    between atoms: N_10  and  C_11
REMARK    3  A    between atoms: C_15  and  N_19
REMARK    4  A    between atoms: C_21  and  C_22
REMARK    5  A    between atoms: C_22  and  C_23
REMARK                            x       y       z     vdW  Elec       q    Type
REMARK                         _______ _______ _______ _____ _____    ______ ____
ROOT
ATOM     11  C   UNL     1       1.270  -0.922   0.000  0.00  0.00    +0.155 C 
ATOM     12  C   UNL     1       0.785  -0.255   0.000  0.00  0.00    +0.166 C 
ATOM     13  O   UNL     1       1.270   0.412   0.000  0.00  0.00    -0.350 OA
ATOM     14  C   UNL     1       2.054   0.158   0.000  0.00  0.00    +0.169 C 
ATOM     15  C   UNL     1       2.839   0.412   0.000  0.00  0.00    +0.166 C 
ATOM     16  C   UNL     1       3.324  -0.255   0.000  0.00  0.00    +0.169 C 
ATOM     17  O   UNL     1       2.839  -0.922   0.000  0.00  0.00    -0.350 OA
ATOM     18  C   UNL     1       2.054  -0.667   0.000  0.00  0.00    +0.167 C 
ENDROOT
BRANCH  15  19
ATOM     19  N   UNL     1       3.094   1.197   0.000  0.00  0.00    -0.227 N 
ATOM     20  C   UNL     1       2.609   1.865   0.000  0.00  0.00    +0.113 A 
ATOM     21  C   UNL     1       3.094   2.532   0.000  0.00  0.00    +0.101 A 
ATOM     29  N   UNL     1       3.878   2.277   0.000  0.00  0.00    -0.133 NA
ATOM     30  N   UNL     1       3.878   1.452   0.000  0.00  0.00    -0.064 NA
BRANCH  21  22
ATOM     22  C   UNL     1       2.839   3.317   0.000  0.00  0.00    +0.049 C 
BRANCH  22  23
ATOM     23  C   UNL     1       3.391   3.930   0.000  0.00  0.00    +0.006 C 
ATOM     24  C   UNL     1       3.136   4.714   0.000  0.00  0.00    +0.000 C 
ATOM     25  C   UNL     1       3.688   5.327   0.000  0.00  0.00    +0.000 C 
ATOM     26  C   UNL     1       4.495   5.156   0.000  0.00  0.00    +0.000 C 
ATOM     27  C   UNL     1       4.750   4.371   0.000  0.00  0.00    +0.000 C 
ATOM     28  C   UNL     1       4.198   3.758   0.000  0.00  0.00    +0.000 C 
ENDBRANCH  22  23
ENDBRANCH  21  22
ENDBRANCH  15  19
BRANCH  11  10
ATOM      8  C   UNL     1       0.208  -1.879   0.000  0.00  0.00    +0.265 C 
ATOM      9  O   UNL     1      -0.344  -1.265   0.000  0.00  0.00    -0.268 OA
ATOM     10  N   UNL     1       1.015  -1.707   0.000  0.00  0.00    -0.198 NA
BRANCH   8   5
ATOM      1  C   UNL     1      -0.812  -5.017   0.000  0.00  0.00    +0.031 C 
ATOM      2  C   UNL     1      -0.557  -4.232   0.000  0.00  0.00    -0.022 A 
ATOM      3  C   UNL     1      -1.109  -3.619   0.000  0.00  0.00    -0.004 A 
ATOM      4  C   UNL     1      -0.854  -2.835   0.000  0.00  0.00    +0.004 A 
ATOM      5  C   UNL     1      -0.047  -2.663   0.000  0.00  0.00    +0.055 A 
ATOM      6  C   UNL     1       0.505  -3.276   0.000  0.00  0.00    +0.004 A 
ATOM      7  C   UNL     1       0.250  -4.061   0.000  0.00  0.00    -0.004 A 
ENDBRANCH   8   5
ENDBRANCH  11  10
TORSDOF 5
