MODEL 1
REMARK VINA RESULT:     -13.1      0.000      0.000
REMARK  Name = 
REMARK  6 active torsions:
REMARK  status: ('A' for Active; 'I' for Inactive)
REMARK    1  A    between atoms: C_2  and  N_3
REMARK    2  A    between atoms: N_3  and  C_4
REMARK    3  A    between atoms: C_6  and  C_8
REMARK    4  A    between atoms: C_8  and  C_9
REMARK    5  A    between atoms: C_14  and  C_16
REMARK    6  A    between atoms: C_27  and  C_29
REMARK                            x       y       z     vdW  Elec       q    Type
REMARK                         _______ _______ _______ _____ _____    ______ ____
ROOT
ATOM      9  C   UNL     1      -3.765   0.941  24.562  0.00  0.00    +0.050 C 
ATOM     10  C   UNL     1      -3.000   1.238  24.468  0.00  0.00    +0.063 A 
ATOM     11  C   UNL     1      -2.839   2.028  24.640  0.00  0.00    +0.023 A 
ATOM     12  C   UNL     1      -3.444   2.523  24.906  0.00  0.00    +0.034 C 
ATOM     13  C   UNL     1      -4.208   2.227  25.001  0.00  0.00    +0.010 C 
ATOM     14  C   UNL     1      -4.811   2.722  25.267  0.00  0.00    +0.059 C 
ATOM     15  C   UNL     1      -4.181   3.254  25.265  0.00  0.00    +0.005 C 
ATOM     18  C   UNL     1      -5.576   2.426  25.362  0.00  0.00    +0.154 C 
ATOM     19  O   UNL     1      -6.180   2.921  25.629  0.00  0.00    -0.223 OA
ATOM     20  C   UNL     1      -5.736   1.636  25.190  0.00  0.00    +0.033 C 
ATOM     21  C   UNL     1      -5.132   1.140  24.923  0.00  0.00    +0.003 C 
ATOM     22  C   UNL     1      -4.368   1.437  24.829  0.00  0.00    +0.006 C 
ATOM     23  C   UNL     1      -4.528   0.646  24.657  0.00  0.00    +0.000 C 
ATOM     24  S   UNL     1      -2.038   2.163  24.494  0.00  0.00    -0.054 S 
ATOM     25  C   UNL     1      -1.704   1.457  24.233  0.00  0.00    +0.186 A 
ATOM     26  N   UNL     1      -0.915   1.342  24.024  0.00  0.00    -0.148 NA
ATOM     27  C   UNL     1      -0.658   0.599  23.771  0.00  0.00    +0.305 C 
ATOM     28  O   UNL     1      -1.192  -0.028  23.727  0.00  0.00    -0.265 OA
ATOM     34  N   UNL     1      -2.298   0.884  24.216  0.00  0.00    -0.227 NA
ENDROOT
BRANCH  27  29
ATOM     29  C   UNL     1       0.132   0.484  23.563  0.00  0.00    +0.201 A 
ATOM     30  C   UNL     1       0.443  -0.183  23.191  0.00  0.00    +0.046 A 
ATOM     31  C   UNL     1       1.253  -0.064  23.087  0.00  0.00    +0.044 A 
ATOM     32  C   UNL     1       1.442   0.678  23.395  0.00  0.00    +0.180 A 
ATOM     33  O   UNL     1       0.749   1.016  23.689  0.00  0.00    -0.446 OA
ENDBRANCH  27  29
BRANCH  14  16
ATOM     16  C   UNL     1      -5.197   3.401  25.533  0.00  0.00    +0.184 C 
ATOM     17  O   UNL     1      -4.842   4.140  25.440  0.00  0.00    -0.220 OA
ENDBRANCH  14  16
BRANCH   9   8
ATOM      8  C   UNL     1      -3.925   0.151  24.390  0.00  0.00    +0.091 C 
BRANCH   8   6
ATOM      3  N   UNL     1      -3.786  -1.231  24.727  0.00  0.00    -0.280 N 
ATOM      6  C   UNL     1      -3.750  -0.435  24.943  0.00  0.00    +0.226 C 
ATOM      7  O   UNL     1      -3.538  -0.225  25.713  0.00  0.00    -0.275 OA
BRANCH   3   2
ATOM      1  C   UNL     1      -3.147  -2.463  25.063  0.00  0.00    +0.023 C 
ATOM      2  C   UNL     1      -3.611  -1.816  25.280  0.00  0.00    +0.093 C 
ENDBRANCH   3   2
BRANCH   3   4
ATOM      4  C   UNL     1      -3.998  -1.439  23.958  0.00  0.00    +0.093 C 
ATOM      5  C   UNL     1      -4.301  -2.191  23.802  0.00  0.00    +0.023 C 
ENDBRANCH   3   4
ENDBRANCH   8   6
ENDBRANCH   9   8
TORSDOF 6
ENDMDL
MODEL 2
REMARK VINA RESULT:     -12.9      1.835      3.930
REMARK  Name = 
REMARK  6 active torsions:
REMARK  status: ('A' for Active; 'I' for Inactive)
REMARK    1  A    between atoms: C_2  and  N_3
REMARK    2  A    between atoms: N_3  and  C_4
REMARK    3  A    between atoms: C_6  and  C_8
REMARK    4  A    between atoms: C_8  and  C_9
REMARK    5  A    between atoms: C_14  and  C_16
REMARK    6  A    between atoms: C_27  and  C_29
REMARK                            x       y       z     vdW  Elec       q    Type
REMARK                         _______ _______ _______ _____ _____    ______ ____
ROOT
ATOM      9  C   UNL     1      -3.589   0.278  24.568  0.00  0.00    +0.050 C 
ATOM     10  C   UNL     1      -2.895   0.718  24.643  0.00  0.00    +0.063 A 
ATOM     11  C   UNL     1      -2.164   0.335  24.663  0.00  0.00    +0.023 A 
ATOM     12  C   UNL     1      -2.128  -0.487  24.608  0.00  0.00    +0.034 C 
ATOM     13  C   UNL     1      -2.822  -0.927  24.532  0.00  0.00    +0.010 C 
ATOM     14  C   UNL     1      -2.785  -1.748  24.477  0.00  0.00    +0.059 C 
ATOM     15  C   UNL     1      -1.982  -1.574  24.541  0.00  0.00    +0.005 C 
ATOM     18  C   UNL     1      -3.479  -2.189  24.401  0.00  0.00    +0.154 C 
ATOM     19  O   UNL     1      -3.443  -3.011  24.346  0.00  0.00    -0.223 OA
ATOM     20  C   UNL     1      -4.210  -1.806  24.381  0.00  0.00    +0.033 C 
ATOM     21  C   UNL     1      -4.246  -0.983  24.436  0.00  0.00    +0.003 C 
ATOM     22  C   UNL     1      -3.552  -0.544  24.512  0.00  0.00    +0.006 C 
ATOM     23  C   UNL     1      -4.283  -0.161  24.492  0.00  0.00    +0.000 C 
ATOM     24  S   UNL     1      -1.577   0.910  24.742  0.00  0.00    -0.054 S 
ATOM     25  C   UNL     1      -1.945   1.647  24.770  0.00  0.00    +0.186 A 
ATOM     26  N   UNL     1      -1.565   2.376  24.846  0.00  0.00    -0.148 NA
ATOM     27  C   UNL     1      -2.008   3.072  24.866  0.00  0.00    +0.305 C 
ATOM     28  O   UNL     1      -2.831   3.039  24.811  0.00  0.00    -0.265 OA
ATOM     34  N   UNL     1      -2.759   1.529  24.709  0.00  0.00    -0.227 NA
ENDROOT
BRANCH  27  29
ATOM     29  C   UNL     1      -1.629   3.801  24.942  0.00  0.00    +0.201 A 
ATOM     30  C   UNL     1      -1.955   4.486  25.264  0.00  0.00    +0.046 A 
ATOM     31  C   UNL     1      -1.385   5.081  25.230  0.00  0.00    +0.044 A 
ATOM     32  C   UNL     1      -0.705   4.763  24.887  0.00  0.00    +0.180 A 
ATOM     33  O   UNL     1      -0.857   3.972  24.709  0.00  0.00    -0.446 OA
ENDBRANCH  27  29
BRANCH  14  16
ATOM     16  C   UNL     1      -2.470  -2.511  24.444  0.00  0.00    +0.184 C 
ATOM     17  O   UNL     1      -1.653  -2.618  24.406  0.00  0.00    -0.220 OA
ENDBRANCH  14  16
BRANCH   9   8
ATOM      8  C   UNL     1      -4.319   0.660  24.547  0.00  0.00    +0.091 C 
BRANCH   8   6
ATOM      3  N   UNL     1      -5.318   1.417  25.235  0.00  0.00    -0.280 N 
ATOM      6  C   UNL     1      -4.687   0.886  25.250  0.00  0.00    +0.226 C 
ATOM      7  O   UNL     1      -4.423   0.580  25.969  0.00  0.00    -0.275 OA
BRANCH   3   2
ATOM      1  C   UNL     1      -5.812   2.441  26.099  0.00  0.00    +0.023 C 
ATOM      2  C   UNL     1      -5.684   1.642  25.938  0.00  0.00    +0.093 C 
ENDBRANCH   3   2
BRANCH   3   4
ATOM      4  C   UNL     1      -5.581   1.723  24.516  0.00  0.00    +0.093 C 
ATOM      5  C   UNL     1      -6.357   1.992  24.441  0.00  0.00    +0.023 C 
ENDBRANCH   3   4
ENDBRANCH   8   6
ENDBRANCH   9   8
TORSDOF 6
ENDMDL
MODEL 3
REMARK VINA RESULT:     -12.5      1.803      3.761
REMARK  Name = 
REMARK  6 active torsions:
REMARK  status: ('A' for Active; 'I' for Inactive)
REMARK    1  A    between atoms: C_2  and  N_3
REMARK    2  A    between atoms: N_3  and  C_4
REMARK    3  A    between atoms: C_6  and  C_8
REMARK    4  A    between atoms: C_8  and  C_9
REMARK    5  A    between atoms: C_14  and  C_16
REMARK    6  A    between atoms: C_27  and  C_29
REMARK                            x       y       z     vdW  Elec       q    Type
REMARK                         _______ _______ _______ _____ _____    ______ ____
ROOT
ATOM      9  C   UNL     1      -3.087   2.551  25.269  0.00  0.00    +0.050 C 
ATOM     10  C   UNL     1      -2.747   1.840  25.023  0.00  0.00    +0.063 A 
ATOM     11  C   UNL     1      -1.964   1.826  24.762  0.00  0.00    +0.023 A 
ATOM     12  C   UNL     1      -1.522   2.522  24.748  0.00  0.00    +0.034 C 
ATOM     13  C   UNL     1      -1.861   3.232  24.993  0.00  0.00    +0.010 C 
ATOM     14  C   UNL     1      -1.419   3.927  24.979  0.00  0.00    +0.059 C 
ATOM     15  C   UNL     1      -0.857   3.395  24.694  0.00  0.00    +0.005 C 
ATOM     18  C   UNL     1      -1.758   4.638  25.225  0.00  0.00    +0.154 C 
ATOM     19  O   UNL     1      -1.315   5.335  25.210  0.00  0.00    -0.223 OA
ATOM     20  C   UNL     1      -2.541   4.653  25.485  0.00  0.00    +0.033 C 
ATOM     21  C   UNL     1      -2.984   3.957  25.500  0.00  0.00    +0.003 C 
ATOM     22  C   UNL     1      -2.644   3.247  25.254  0.00  0.00    +0.006 C 
ATOM     23  C   UNL     1      -3.427   3.261  25.514  0.00  0.00    +0.000 C 
ATOM     24  S   UNL     1      -1.779   1.048  24.555  0.00  0.00    -0.054 S 
ATOM     25  C   UNL     1      -2.447   0.584  24.687  0.00  0.00    +0.186 A 
ATOM     26  N   UNL     1      -2.506  -0.228  24.554  0.00  0.00    -0.148 NA
ATOM     27  C   UNL     1      -3.215  -0.622  24.713  0.00  0.00    +0.305 C 
ATOM     28  O   UNL     1      -3.862  -0.203  25.005  0.00  0.00    -0.265 OA
ATOM     34  N   UNL     1      -3.046   1.072  24.976  0.00  0.00    -0.227 NA
ENDROOT
BRANCH  27  29
ATOM     29  C   UNL     1      -3.274  -1.434  24.579  0.00  0.00    +0.201 A 
ATOM     30  C   UNL     1      -3.903  -1.820  24.210  0.00  0.00    +0.046 A 
ATOM     31  C   UNL     1      -3.733  -2.627  24.194  0.00  0.00    +0.044 A 
ATOM     32  C   UNL     1      -2.999  -2.740  24.553  0.00  0.00    +0.180 A 
ATOM     33  O   UNL     1      -2.716  -2.002  24.791  0.00  0.00    -0.446 OA
ENDBRANCH  27  29
BRANCH  14  16
ATOM     16  C   UNL     1      -0.781   4.439  24.865  0.00  0.00    +0.184 C 
ATOM     17  O   UNL     1      -0.179   4.238  24.338  0.00  0.00    -0.220 OA
ENDBRANCH  14  16
BRANCH   9   8
ATOM      8  C   UNL     1      -3.869   2.566  25.529  0.00  0.00    +0.091 C 
BRANCH   8   6
ATOM      3  N   UNL     1      -5.258   2.410  25.232  0.00  0.00    -0.280 N 
ATOM      6  C   UNL     1      -4.486   2.561  24.982  0.00  0.00    +0.226 C 
ATOM      7  O   UNL     1      -4.331   2.706  24.185  0.00  0.00    -0.275 OA
BRANCH   3   2
ATOM      1  C   UNL     1      -6.430   1.796  24.695  0.00  0.00    +0.023 C 
ATOM      2  C   UNL     1      -5.875   2.406  24.685  0.00  0.00    +0.093 C 
ENDBRANCH   3   2
BRANCH   3   4
ATOM      4  C   UNL     1      -5.413   2.265  26.028  0.00  0.00    +0.093 C 
ATOM      5  C   UNL     1      -6.175   2.367  26.327  0.00  0.00    +0.023 C 
ENDBRANCH   3   4
ENDBRANCH   8   6
ENDBRANCH   9   8
TORSDOF 6
ENDMDL
MODEL 4
REMARK VINA RESULT:     -12.3      1.595      4.991
REMARK  Name = 
REMARK  6 active torsions:
REMARK  status: ('A' for Active; 'I' for Inactive)
REMARK    1  A    between atoms: C_2  and  N_3
REMARK    2  A    between atoms: N_3  and  C_4
REMARK    3  A    between atoms: C_6  and  C_8
REMARK    4  A    between atoms: C_8  and  C_9
REMARK    5  A    between atoms: C_14  and  C_16
REMARK    6  A    between atoms: C_27  and  C_29
REMARK                            x       y       z     vdW  Elec       q    Type
REMARK                         _______ _______ _______ _____ _____    ______ ____
ROOT
ATOM      9  C   UNL     1      -2.441  -0.014  25.018  0.00  0.00    +0.050 C 
ATOM     10  C   UNL     1      -3.185   0.341  24.979  0.00  0.00    +0.063 A 
ATOM     11  C   UNL     1      -3.845  -0.108  24.770  0.00  0.00    +0.023 A 
ATOM     12  C   UNL     1      -3.761  -0.911  24.600  0.00  0.00    +0.034 C 
ATOM     13  C   UNL     1      -3.018  -1.265  24.640  0.00  0.00    +0.010 C 
ATOM     14  C   UNL     1      -2.934  -2.067  24.470  0.00  0.00    +0.059 C 
ATOM     15  C   UNL     1      -3.746  -1.982  24.358  0.00  0.00    +0.005 C 
ATOM     18  C   UNL     1      -2.190  -2.423  24.509  0.00  0.00    +0.154 C 
ATOM     19  O   UNL     1      -2.105  -3.226  24.340  0.00  0.00    -0.223 OA
ATOM     20  C   UNL     1      -1.530  -1.974  24.718  0.00  0.00    +0.033 C 
ATOM     21  C   UNL     1      -1.613  -1.170  24.888  0.00  0.00    +0.003 C 
ATOM     22  C   UNL     1      -2.358  -0.817  24.849  0.00  0.00    +0.006 C 
ATOM     23  C   UNL     1      -1.697  -0.368  25.057  0.00  0.00    +0.000 C 
ATOM     24  S   UNL     1      -4.504   0.390  24.777  0.00  0.00    -0.054 S 
ATOM     25  C   UNL     1      -4.251   1.144  24.990  0.00  0.00    +0.186 A 
ATOM     26  N   UNL     1      -4.729   1.813  25.065  0.00  0.00    -0.148 NA
ATOM     27  C   UNL     1      -4.396   2.536  25.284  0.00  0.00    +0.305 C 
ATOM     28  O   UNL     1      -3.585   2.590  25.427  0.00  0.00    -0.265 OA
ATOM     34  N   UNL     1      -3.436   1.115  25.115  0.00  0.00    -0.227 NA
ENDROOT
BRANCH  27  29
ATOM     29  C   UNL     1      -4.874   3.204  25.359  0.00  0.00    +0.201 A 
ATOM     30  C   UNL     1      -4.683   3.967  25.112  0.00  0.00    +0.046 A 
ATOM     31  C   UNL     1      -5.317   4.462  25.294  0.00  0.00    +0.044 A 
ATOM     32  C   UNL     1      -5.901   4.004  25.655  0.00  0.00    +0.180 A 
ATOM     33  O   UNL     1      -5.627   3.227  25.695  0.00  0.00    -0.446 OA
ENDBRANCH  27  29
BRANCH  14  16
ATOM     16  C   UNL     1      -3.132  -2.841  24.262  0.00  0.00    +0.184 C 
ATOM     17  O   UNL     1      -3.923  -3.055  24.171  0.00  0.00    -0.220 OA
ENDBRANCH  14  16
BRANCH   9   8
ATOM      8  C   UNL     1      -1.781   0.434  25.227  0.00  0.00    +0.091 C 
BRANCH   8   6
ATOM      3  N   UNL     1      -0.835   1.454  24.897  0.00  0.00    -0.280 N 
ATOM      6  C   UNL     1      -1.410   0.910  24.664  0.00  0.00    +0.226 C 
ATOM      7  O   UNL     1      -1.615   0.841  23.868  0.00  0.00    -0.275 OA
BRANCH   3   2
ATOM      1  C   UNL     1       0.359   1.945  24.287  0.00  0.00    +0.023 C 
ATOM      2  C   UNL     1      -0.465   1.928  24.334  0.00  0.00    +0.093 C 
ENDBRANCH   3   2
BRANCH   3   4
ATOM      4  C   UNL     1      -0.631   1.522  25.693  0.00  0.00    +0.093 C 
ATOM      5  C   UNL     1      -0.315   2.228  25.980  0.00  0.00    +0.023 C 
ENDBRANCH   3   4
ENDBRANCH   8   6
ENDBRANCH   9   8
TORSDOF 6
ENDMDL
MODEL 5
REMARK VINA RESULT:     -11.5      1.268      3.393
REMARK  Name = 
REMARK  6 active torsions:
REMARK  status: ('A' for Active; 'I' for Inactive)
REMARK    1  A    between atoms: C_2  and  N_3
REMARK    2  A    between atoms: N_3  and  C_4
REMARK    3  A    between atoms: C_6  and  C_8
REMARK    4  A    between atoms: C_8  and  C_9
REMARK    5  A    between atoms: C_14  and  C_16
REMARK    6  A    between atoms: C_27  and  C_29
REMARK                            x       y       z     vdW  Elec       q    Type
REMARK                         _______ _______ _______ _____ _____    ______ ____
ROOT
ATOM      9  C   UNL     1      -3.320   1.953  24.684  0.00  0.00    +0.050 C 
ATOM     10  C   UNL     1      -3.734   1.242  24.754  0.00  0.00    +0.063 A 
ATOM     11  C   UNL     1      -4.521   1.245  25.002  0.00  0.00    +0.023 A 
ATOM     12  C   UNL     1      -4.894   1.959  25.180  0.00  0.00    +0.034 C 
ATOM     13  C   UNL     1      -4.481   2.669  25.111  0.00  0.00    +0.010 C 
ATOM     14  C   UNL     1      -4.854   3.382  25.289  0.00  0.00    +0.059 C 
ATOM     15  C   UNL     1      -5.472   2.856  25.439  0.00  0.00    +0.005 C 
ATOM     18  C   UNL     1      -4.442   4.093  25.220  0.00  0.00    +0.154 C 
ATOM     19  O   UNL     1      -4.815   4.807  25.398  0.00  0.00    -0.223 OA
ATOM     20  C   UNL     1      -3.655   4.091  24.972  0.00  0.00    +0.033 C 
ATOM     21  C   UNL     1      -3.281   3.376  24.793  0.00  0.00    +0.003 C 
ATOM     22  C   UNL     1      -3.694   2.666  24.863  0.00  0.00    +0.006 C 
ATOM     23  C   UNL     1      -2.908   2.663  24.614  0.00  0.00    +0.000 C 
ATOM     24  S   UNL     1      -4.786   0.463  25.019  0.00  0.00    -0.054 S 
ATOM     25  C   UNL     1      -4.163  -0.021  24.781  0.00  0.00    +0.186 A 
ATOM     26  N   UNL     1      -4.186  -0.844  24.718  0.00  0.00    -0.148 NA
ATOM     27  C   UNL     1      -3.515  -1.258  24.471  0.00  0.00    +0.305 C 
ATOM     28  O   UNL     1      -2.823  -0.849  24.288  0.00  0.00    -0.265 OA
ATOM     34  N   UNL     1      -3.513   0.459  24.617  0.00  0.00    -0.227 NA
ENDROOT
BRANCH  27  29
ATOM     29  C   UNL     1      -3.538  -2.080  24.408  0.00  0.00    +0.201 A 
ATOM     30  C   UNL     1      -3.101  -2.613  24.861  0.00  0.00    +0.046 A 
ATOM     31  C   UNL     1      -3.294  -3.377  24.614  0.00  0.00    +0.044 A 
ATOM     32  C   UNL     1      -3.852  -3.315  24.009  0.00  0.00    +0.180 A 
ATOM     33  O   UNL     1      -4.002  -2.513  23.882  0.00  0.00    -0.446 OA
ENDBRANCH  27  29
BRANCH  14  16
ATOM     16  C   UNL     1      -5.442   3.914  25.520  0.00  0.00    +0.184 C 
ATOM     17  O   UNL     1      -6.164   3.633  25.803  0.00  0.00    -0.220 OA
ENDBRANCH  14  16
BRANCH   9   8
ATOM      8  C   UNL     1      -2.535   1.950  24.436  0.00  0.00    +0.091 C 
BRANCH   8   6
ATOM      3  N   UNL     1      -1.158   1.684  24.713  0.00  0.00    -0.280 N 
ATOM      6  C   UNL     1      -1.931   1.798  24.977  0.00  0.00    +0.226 C 
ATOM      7  O   UNL     1      -2.102   1.759  25.783  0.00  0.00    -0.275 OA
BRANCH   3   2
ATOM      1  C   UNL     1       0.067   2.066  25.340  0.00  0.00    +0.023 C 
ATOM      2  C   UNL     1      -0.556   1.531  25.255  0.00  0.00    +0.093 C 
ENDBRANCH   3   2
BRANCH   3   4
ATOM      4  C   UNL     1      -0.988   1.722  23.907  0.00  0.00    +0.093 C 
ATOM      5  C   UNL     1      -0.349   1.301  23.599  0.00  0.00    +0.023 C 
ENDBRANCH   3   4
ENDBRANCH   8   6
ENDBRANCH   9   8
TORSDOF 6
ENDMDL
MODEL 6
REMARK VINA RESULT:     -11.4      1.651      3.178
REMARK  Name = 
REMARK  6 active torsions:
REMARK  status: ('A' for Active; 'I' for Inactive)
REMARK    1  A    between atoms: C_2  and  N_3
REMARK    2  A    between atoms: N_3  and  C_4
REMARK    3  A    between atoms: C_6  and  C_8
REMARK    4  A    between atoms: C_8  and  C_9
REMARK    5  A    between atoms: C_14  and  C_16
REMARK    6  A    between atoms: C_27  and  C_29
REMARK                            x       y       z     vdW  Elec       q    Type
REMARK                         _______ _______ _______ _____ _____    ______ ____
ROOT
ATOM      9  C   UNL     1      -3.299   2.194  24.888  0.00  0.00    +0.050 C 
ATOM     10  C   UNL     1      -3.420   1.378  24.922  0.00  0.00    +0.063 A 
ATOM     11  C   UNL     1      -4.160   1.080  25.132  0.00  0.00    +0.023 A 
ATOM     12  C   UNL     1      -4.779   1.597  25.308  0.00  0.00    +0.034 C 
ATOM     13  C   UNL     1      -4.658   2.412  25.274  0.00  0.00    +0.010 C 
ATOM     14  C   UNL     1      -5.276   2.928  25.449  0.00  0.00    +0.059 C 
ATOM     15  C   UNL     1      -5.658   2.205  25.558  0.00  0.00    +0.005 C 
ATOM     18  C   UNL     1      -5.155   3.744  25.415  0.00  0.00    +0.154 C 
ATOM     19  O   UNL     1      -5.773   4.261  25.591  0.00  0.00    -0.223 OA
ATOM     20  C   UNL     1      -4.415   4.042  25.206  0.00  0.00    +0.033 C 
ATOM     21  C   UNL     1      -3.796   3.525  25.030  0.00  0.00    +0.003 C 
ATOM     22  C   UNL     1      -3.918   2.710  25.064  0.00  0.00    +0.006 C 
ATOM     23  C   UNL     1      -3.178   3.009  24.854  0.00  0.00    +0.000 C 
ATOM     24  S   UNL     1      -4.116   0.256  25.119  0.00  0.00    -0.054 S 
ATOM     25  C   UNL     1      -3.349   0.046  24.901  0.00  0.00    +0.186 A 
ATOM     26  N   UNL     1      -3.062  -0.723  24.820  0.00  0.00    -0.148 NA
ATOM     27  C   UNL     1      -2.277  -0.850  24.597  0.00  0.00    +0.305 C 
ATOM     28  O   UNL     1      -1.780  -0.206  24.456  0.00  0.00    -0.265 OA
ATOM     34  N   UNL     1      -2.918   0.739  24.780  0.00  0.00    -0.227 NA
ENDROOT
BRANCH  27  29
ATOM     29  C   UNL     1      -1.990  -1.619  24.515  0.00  0.00    +0.201 A 
ATOM     30  C   UNL     1      -1.231  -1.877  24.711  0.00  0.00    +0.046 A 
ATOM     31  C   UNL     1      -1.183  -2.682  24.540  0.00  0.00    +0.044 A 
ATOM     32  C   UNL     1      -1.912  -2.923  24.239  0.00  0.00    +0.180 A 
ATOM     33  O   UNL     1      -2.411  -2.265  24.223  0.00  0.00    -0.446 OA
ENDBRANCH  27  29
BRANCH  14  16
ATOM     16  C   UNL     1      -6.027   3.194  25.663  0.00  0.00    +0.184 C 
ATOM     17  O   UNL     1      -6.497   2.743  26.168  0.00  0.00    -0.220 OA
ENDBRANCH  14  16
BRANCH   9   8
ATOM      8  C   UNL     1      -2.560   2.492  24.678  0.00  0.00    +0.091 C 
BRANCH   8   6
ATOM      3  N   UNL     1      -1.196   2.746  25.022  0.00  0.00    -0.280 N 
ATOM      6  C   UNL     1      -1.970   2.573  25.249  0.00  0.00    +0.226 C 
ATOM      7  O   UNL     1      -2.155   2.481  26.048  0.00  0.00    -0.275 OA
BRANCH   3   2
ATOM      1  C   UNL     1       0.040   2.315  25.593  0.00  0.00    +0.023 C 
ATOM      2  C   UNL     1      -0.607   2.827  25.593  0.00  0.00    +0.093 C 
ENDBRANCH   3   2
BRANCH   3   4
ATOM      4  C   UNL     1      -1.012   2.839  24.224  0.00  0.00    +0.093 C 
ATOM      5  C   UNL     1      -0.363   3.296  24.000  0.00  0.00    +0.023 C 
ENDBRANCH   3   4
ENDBRANCH   8   6
ENDBRANCH   9   8
TORSDOF 6
ENDMDL
MODEL 7
REMARK VINA RESULT:     -10.4      1.035      4.517
REMARK  Name = 
REMARK  6 active torsions:
REMARK  status: ('A' for Active; 'I' for Inactive)
REMARK    1  A    between atoms: C_2  and  N_3
REMARK    2  A    between atoms: N_3  and  C_4
REMARK    3  A    between atoms: C_6  and  C_8
REMARK    4  A    between atoms: C_8  and  C_9
REMARK    5  A    between atoms: C_14  and  C_16
REMARK    6  A    between atoms: C_27  and  C_29
REMARK                            x       y       z     vdW  Elec       q    Type
REMARK                         _______ _______ _______ _____ _____    ______ ____
ROOT
ATOM      9  C   UNL     1      -1.849   0.465  24.219  0.00  0.00    +0.050 C 
ATOM     10  C   UNL     1      -2.147   1.201  24.445  0.00  0.00    +0.063 A 
ATOM     11  C   UNL     1      -1.641   1.851  24.500  0.00  0.00    +0.023 A 
ATOM     12  C   UNL     1      -0.839   1.764  24.329  0.00  0.00    +0.034 C 
ATOM     13  C   UNL     1      -0.542   1.029  24.103  0.00  0.00    +0.010 C 
ATOM     14  C   UNL     1       0.260   0.944  23.931  0.00  0.00    +0.059 C 
ATOM     15  C   UNL     1       0.239   1.746  24.121  0.00  0.00    +0.005 C 
ATOM     18  C   UNL     1       0.558   0.208  23.705  0.00  0.00    +0.154 C 
ATOM     19  O   UNL     1       1.361   0.122  23.533  0.00  0.00    -0.223 OA
ATOM     20  C   UNL     1       0.053  -0.442  23.650  0.00  0.00    +0.033 C 
ATOM     21  C   UNL     1      -0.750  -0.356  23.821  0.00  0.00    +0.003 C 
ATOM     22  C   UNL     1      -1.047   0.380  24.048  0.00  0.00    +0.006 C 
ATOM     23  C   UNL     1      -1.552  -0.270  23.992  0.00  0.00    +0.000 C 
ATOM     24  S   UNL     1      -2.089   2.503  24.736  0.00  0.00    -0.054 S 
ATOM     25  C   UNL     1      -2.870   2.256  24.826  0.00  0.00    +0.186 A 
ATOM     26  N   UNL     1      -3.505   2.730  25.056  0.00  0.00    -0.148 NA
ATOM     27  C   UNL     1      -4.261   2.404  25.123  0.00  0.00    +0.305 C 
ATOM     28  O   UNL     1      -4.380   1.604  24.960  0.00  0.00    -0.265 OA
ATOM     34  N   UNL     1      -2.907   1.451  24.647  0.00  0.00    -0.227 NA
ENDROOT
BRANCH  27  29
ATOM     29  C   UNL     1      -4.896   2.878  25.353  0.00  0.00    +0.201 A 
ATOM     30  C   UNL     1      -5.632   2.611  25.611  0.00  0.00    +0.046 A 
ATOM     31  C   UNL     1      -6.098   3.270  25.783  0.00  0.00    +0.044 A 
ATOM     32  C   UNL     1      -5.649   3.945  25.630  0.00  0.00    +0.180 A 
ATOM     33  O   UNL     1      -4.906   3.703  25.364  0.00  0.00    -0.446 OA
ENDBRANCH  27  29
BRANCH  14  16
ATOM     16  C   UNL     1       1.056   1.136  23.826  0.00  0.00    +0.184 C 
ATOM     17  O   UNL     1       1.319   1.902  23.980  0.00  0.00    -0.220 OA
ENDBRANCH  14  16
BRANCH   9   8
ATOM      8  C   UNL     1      -2.354  -0.184  24.164  0.00  0.00    +0.091 C 
BRANCH   8   6
ATOM      3  N   UNL     1      -3.158  -1.176  24.806  0.00  0.00    -0.280 N 
ATOM      6  C   UNL     1      -2.571  -0.598  24.844  0.00  0.00    +0.226 C 
ATOM      7  O   UNL     1      -2.199  -0.433  25.561  0.00  0.00    -0.275 OA
BRANCH   3   2
ATOM      1  C   UNL     1      -3.360  -2.413  25.490  0.00  0.00    +0.023 C 
ATOM      2  C   UNL     1      -3.375  -1.588  25.486  0.00  0.00    +0.093 C 
ENDBRANCH   3   2
BRANCH   3   4
ATOM      4  C   UNL     1      -3.529  -1.340  24.089  0.00  0.00    +0.093 C 
ATOM      5  C   UNL     1      -4.290  -1.661  24.080  0.00  0.00    +0.023 C 
ENDBRANCH   3   4
ENDBRANCH   8   6
ENDBRANCH   9   8
TORSDOF 6
ENDMDL
MODEL 8
REMARK VINA RESULT:     -10.3      2.298      3.883
REMARK  Name = 
REMARK  6 active torsions:
REMARK  status: ('A' for Active; 'I' for Inactive)
REMARK    1  A    between atoms: C_2  and  N_3
REMARK    2  A    between atoms: N_3  and  C_4
REMARK    3  A    between atoms: C_6  and  C_8
REMARK    4  A    between atoms: C_8  and  C_9
REMARK    5  A    between atoms: C_14  and  C_16
REMARK    6  A    between atoms: C_27  and  C_29
REMARK                            x       y       z     vdW  Elec       q    Type
REMARK                         _______ _______ _______ _____ _____    ______ ____
ROOT
ATOM      9  C   UNL     1      -1.584   0.288  24.602  0.00  0.00    +0.050 C 
ATOM     10  C   UNL     1      -0.928  -0.084  24.267  0.00  0.00    +0.063 A 
ATOM     11  C   UNL     1      -0.914  -0.906  24.191  0.00  0.00    +0.023 A 
ATOM     12  C   UNL     1      -1.555  -1.354  24.451  0.00  0.00    +0.034 C 
ATOM     13  C   UNL     1      -2.210  -0.983  24.786  0.00  0.00    +0.010 C 
ATOM     14  C   UNL     1      -2.851  -1.431  25.046  0.00  0.00    +0.059 C 
ATOM     15  C   UNL     1      -2.359  -2.032  24.767  0.00  0.00    +0.005 C 
ATOM     18  C   UNL     1      -3.507  -1.060  25.382  0.00  0.00    +0.154 C 
ATOM     19  O   UNL     1      -4.149  -1.509  25.642  0.00  0.00    -0.223 OA
ATOM     20  C   UNL     1      -3.521  -0.239  25.457  0.00  0.00    +0.033 C 
ATOM     21  C   UNL     1      -2.880   0.211  25.197  0.00  0.00    +0.003 C 
ATOM     22  C   UNL     1      -2.225  -0.161  24.862  0.00  0.00    +0.006 C 
ATOM     23  C   UNL     1      -2.239   0.660  24.938  0.00  0.00    +0.000 C 
ATOM     24  S   UNL     1      -0.197  -1.117  23.841  0.00  0.00    -0.054 S 
ATOM     25  C   UNL     1       0.231  -0.427  23.700  0.00  0.00    +0.186 A 
ATOM     26  N   UNL     1       0.980  -0.382  23.356  0.00  0.00    -0.148 NA
ATOM     27  C   UNL     1       1.342   0.352  23.250  0.00  0.00    +0.305 C 
ATOM     28  O   UNL     1       0.955   1.041  23.487  0.00  0.00    -0.265 OA
ATOM     34  N   UNL     1      -0.220   0.212  23.963  0.00  0.00    -0.227 NA
ENDROOT
BRANCH  27  29
ATOM     29  C   UNL     1       2.091   0.396  22.906  0.00  0.00    +0.201 A 
ATOM     30  C   UNL     1       2.711   0.879  23.156  0.00  0.00    +0.046 A 
ATOM     31  C   UNL     1       3.355   0.747  22.657  0.00  0.00    +0.044 A 
ATOM     32  C   UNL     1       3.132   0.183  22.098  0.00  0.00    +0.180 A 
ATOM     33  O   UNL     1       2.350  -0.033  22.252  0.00  0.00    -0.446 OA
ENDBRANCH  27  29
BRANCH  14  16
ATOM     16  C   UNL     1      -3.322  -2.089  25.209  0.00  0.00    +0.184 C 
ATOM     17  O   UNL     1      -3.138  -2.822  24.879  0.00  0.00    -0.220 OA
ENDBRANCH  14  16
BRANCH   9   8
ATOM      8  C   UNL     1      -1.598   1.109  24.678  0.00  0.00    +0.091 C 
BRANCH   8   6
ATOM      3  N   UNL     1      -1.144   2.293  25.337  0.00  0.00    -0.280 N 
ATOM      6  C   UNL     1      -1.219   1.472  25.314  0.00  0.00    +0.226 C 
ATOM      7  O   UNL     1      -0.914   1.012  25.928  0.00  0.00    -0.275 OA
BRANCH   3   2
ATOM      1  C   UNL     1      -0.068   3.079  25.851  0.00  0.00    +0.023 C 
ATOM      2  C   UNL     1      -0.765   2.655  25.973  0.00  0.00    +0.093 C 
ENDBRANCH   3   2
BRANCH   3   4
ATOM      4  C   UNL     1      -1.448   2.751  24.723  0.00  0.00    +0.093 C 
ATOM      5  C   UNL     1      -1.635   3.545  24.853  0.00  0.00    +0.023 C 
ENDBRANCH   3   4
ENDBRANCH   8   6
ENDBRANCH   9   8
TORSDOF 6
ENDMDL
MODEL 9
REMARK VINA RESULT:     -10.3     16.391     19.214
REMARK  Name = 
REMARK  6 active torsions:
REMARK  status: ('A' for Active; 'I' for Inactive)
REMARK    1  A    between atoms: C_2  and  N_3
REMARK    2  A    between atoms: N_3  and  C_4
REMARK    3  A    between atoms: C_6  and  C_8
REMARK    4  A    between atoms: C_8  and  C_9
REMARK    5  A    between atoms: C_14  and  C_16
REMARK    6  A    between atoms: C_27  and  C_29
REMARK                            x       y       z     vdW  Elec       q    Type
REMARK                         _______ _______ _______ _____ _____    ______ ____
ROOT
ATOM      9  C   UNL     1      14.104   7.492  19.943  0.00  0.00    +0.050 C 
ATOM     10  C   UNL     1      13.926   7.569  19.140  0.00  0.00    +0.063 A 
ATOM     11  C   UNL     1      14.472   7.328  18.571  0.00  0.00    +0.023 A 
ATOM     12  C   UNL     1      15.197   7.010  18.804  0.00  0.00    +0.034 C 
ATOM     13  C   UNL     1      15.376   6.933  19.605  0.00  0.00    +0.010 C 
ATOM     14  C   UNL     1      16.100   6.615  19.837  0.00  0.00    +0.059 C 
ATOM     15  C   UNL     1      16.183   6.577  19.017  0.00  0.00    +0.005 C 
ATOM     18  C   UNL     1      16.279   6.538  20.639  0.00  0.00    +0.154 C 
ATOM     19  O   UNL     1      17.004   6.220  20.872  0.00  0.00    -0.223 OA
ATOM     20  C   UNL     1      15.733   6.779  21.208  0.00  0.00    +0.033 C 
ATOM     21  C   UNL     1      15.008   7.097  20.976  0.00  0.00    +0.003 C 
ATOM     22  C   UNL     1      14.829   7.174  20.174  0.00  0.00    +0.006 C 
ATOM     23  C   UNL     1      14.283   7.415  20.744  0.00  0.00    +0.000 C 
ATOM     24  S   UNL     1      14.144   7.471  17.827  0.00  0.00    -0.054 S 
ATOM     25  C   UNL     1      13.397   7.799  17.937  0.00  0.00    +0.186 A 
ATOM     26  N   UNL     1      12.875   8.028  17.340  0.00  0.00    -0.148 NA
ATOM     27  C   UNL     1      12.140   8.351  17.535  0.00  0.00    +0.305 C 
ATOM     28  O   UNL     1      11.929   8.445  18.326  0.00  0.00    -0.265 OA
ATOM     34  N   UNL     1      13.261   7.861  18.748  0.00  0.00    -0.227 NA
ENDROOT
BRANCH  27  29
ATOM     29  C   UNL     1      11.619   8.579  16.938  0.00  0.00    +0.201 A 
ATOM     30  C   UNL     1      10.804   8.451  16.930  0.00  0.00    +0.046 A 
ATOM     31  C   UNL     1      10.501   8.768  16.231  0.00  0.00    +0.044 A 
ATOM     32  C   UNL     1      11.129   9.092  15.806  0.00  0.00    +0.180 A 
ATOM     33  O   UNL     1      11.820   8.975  16.243  0.00  0.00    -0.446 OA
ENDBRANCH  27  29
BRANCH  14  16
ATOM     16  C   UNL     1      16.854   6.284  19.785  0.00  0.00    +0.184 C 
ATOM     17  O   UNL     1      17.142   6.024  19.057  0.00  0.00    -0.220 OA
ENDBRANCH  14  16
BRANCH   9   8
ATOM      8  C   UNL     1      13.559   7.733  20.511  0.00  0.00    +0.091 C 
BRANCH   8   6
ATOM      3  N   UNL     1      12.351   7.497  21.238  0.00  0.00    -0.280 N 
ATOM      6  C   UNL     1      12.950   7.225  20.740  0.00  0.00    +0.226 C 
ATOM      7  O   UNL     1      12.941   6.446  20.471  0.00  0.00    -0.275 OA
BRANCH   3   2
ATOM      1  C   UNL     1      10.957   7.201  21.331  0.00  0.00    +0.023 C 
ATOM      2  C   UNL     1      11.743   6.990  21.467  0.00  0.00    +0.093 C 
ENDBRANCH   3   2
BRANCH   3   4
ATOM      4  C   UNL     1      12.361   8.277  21.507  0.00  0.00    +0.093 C 
ATOM      5  C   UNL     1      11.852   8.512  22.112  0.00  0.00    +0.023 C 
ENDBRANCH   3   4
ENDBRANCH   8   6
ENDBRANCH   9   8
TORSDOF 6
ENDMDL
MODEL 10
REMARK VINA RESULT:     -10.2      1.468      3.869
REMARK  Name = 
REMARK  6 active torsions:
REMARK  status: ('A' for Active; 'I' for Inactive)
REMARK    1  A    between atoms: C_2  and  N_3
REMARK    2  A    between atoms: N_3  and  C_4
REMARK    3  A    between atoms: C_6  and  C_8
REMARK    4  A    between atoms: C_8  and  C_9
REMARK    5  A    between atoms: C_14  and  C_16
REMARK    6  A    between atoms: C_27  and  C_29
REMARK                            x       y       z     vdW  Elec       q    Type
REMARK                         _______ _______ _______ _____ _____    ______ ____
ROOT
ATOM      9  C   UNL     1      -1.521   1.700  24.773  0.00  0.00    +0.050 C 
ATOM     10  C   UNL     1      -2.246   1.305  24.737  0.00  0.00    +0.063 A 
ATOM     11  C   UNL     1      -2.947   1.717  24.877  0.00  0.00    +0.023 A 
ATOM     12  C   UNL     1      -2.924   2.523  25.054  0.00  0.00    +0.034 C 
ATOM     13  C   UNL     1      -2.200   2.917  25.090  0.00  0.00    +0.010 C 
ATOM     14  C   UNL     1      -2.178   3.722  25.266  0.00  0.00    +0.059 C 
ATOM     15  C   UNL     1      -2.992   3.592  25.295  0.00  0.00    +0.005 C 
ATOM     18  C   UNL     1      -1.454   4.116  25.303  0.00  0.00    +0.154 C 
ATOM     19  O   UNL     1      -1.430   4.922  25.479  0.00  0.00    -0.223 OA
ATOM     20  C   UNL     1      -0.753   3.705  25.163  0.00  0.00    +0.033 C 
ATOM     21  C   UNL     1      -0.775   2.899  24.986  0.00  0.00    +0.003 C 
ATOM     22  C   UNL     1      -1.499   2.505  24.950  0.00  0.00    +0.006 C 
ATOM     23  C   UNL     1      -0.798   2.094  24.810  0.00  0.00    +0.000 C 
ATOM     24  S   UNL     1      -3.574   1.185  24.804  0.00  0.00    -0.054 S 
ATOM     25  C   UNL     1      -3.260   0.446  24.619  0.00  0.00    +0.186 A 
ATOM     26  N   UNL     1      -3.691  -0.247  24.496  0.00  0.00    -0.148 NA
ATOM     27  C   UNL     1      -3.299  -0.950  24.313  0.00  0.00    +0.305 C 
ATOM     28  O   UNL     1      -2.476  -0.959  24.253  0.00  0.00    -0.265 OA
ATOM     34  N   UNL     1      -2.439   0.519  24.577  0.00  0.00    -0.227 NA
ENDROOT
BRANCH  27  29
ATOM     29  C   UNL     1      -3.730  -1.643  24.190  0.00  0.00    +0.201 A 
ATOM     30  C   UNL     1      -3.528  -2.394  24.462  0.00  0.00    +0.046 A 
ATOM     31  C   UNL     1      -4.112  -2.922  24.214  0.00  0.00    +0.044 A 
ATOM     32  C   UNL     1      -4.675  -2.496  23.788  0.00  0.00    +0.180 A 
ATOM     33  O   UNL     1      -4.439  -1.705  23.773  0.00  0.00    -0.446 OA
ENDBRANCH  27  29
BRANCH  14  16
ATOM     16  C   UNL     1      -2.437   4.483  25.453  0.00  0.00    +0.184 C 
ATOM     17  O   UNL     1      -3.160   4.590  25.835  0.00  0.00    -0.220 OA
ENDBRANCH  14  16
BRANCH   9   8
ATOM      8  C   UNL     1      -0.821   1.289  24.633  0.00  0.00    +0.091 C 
BRANCH   8   6
ATOM      3  N   UNL     1      -0.011   0.551  23.716  0.00  0.00    -0.280 N 
ATOM      6  C   UNL     1      -0.586   1.124  23.860  0.00  0.00    +0.226 C 
ATOM      7  O   UNL     1      -0.929   1.533  23.231  0.00  0.00    -0.275 OA
BRANCH   3   2
ATOM      1  C   UNL     1       0.994   0.136  22.790  0.00  0.00    +0.023 C 
ATOM      2  C   UNL     1       0.223   0.387  22.943  0.00  0.00    +0.093 C 
ENDBRANCH   3   2
BRANCH   3   4
ATOM      4  C   UNL     1       0.331   0.143  24.346  0.00  0.00    +0.093 C 
ATOM      5  C   UNL     1       0.552  -0.647  24.255  0.00  0.00    +0.023 C 
ENDBRANCH   3   4
ENDBRANCH   8   6
ENDBRANCH   9   8
TORSDOF 6
ENDMDL
