MODEL 1
REMARK VINA RESULT:     -11.3      0.000      0.000
REMARK  Name = 
REMARK  5 active torsions:
REMARK  status: ('A' for Active; 'I' for Inactive)
REMARK    1  A    between atoms: C_1  and  N_2
REMARK    2  A    between atoms: C_1  and  C_24
REMARK    3  A    between atoms: C_6  and  C_7
REMARK    4  A    between atoms: C_9  and  C_12
REMARK    5  A    between atoms: C_16  and  N_18
REMARK                            x       y       z     vdW  Elec       q    Type
REMARK                         _______ _______ _______ _____ _____    ______ ____
ROOT
ATOM      7  C   UNL     1      -4.458   2.598  24.756  0.00  0.00    +0.251 A 
ATOM      8  N   UNL     1      -3.739   2.744  25.134  0.00  0.00    -0.190 NA
ATOM      9  C   UNL     1      -3.370   3.372  24.746  0.00  0.00    +0.203 A 
ATOM     10  N   UNL     1      -3.861   3.614  24.129  0.00  0.00    -0.056 NA
ATOM     11  O   UNL     1      -4.534   3.136  24.136  0.00  0.00    -0.336 OA
ENDROOT
BRANCH   9  12
ATOM     12  C   UNL     1      -2.639   3.700  24.941  0.00  0.00    +0.043 A 
ATOM     13  C   UNL     1      -2.571   4.513  25.062  0.00  0.00    +0.024 A 
ATOM     14  C   UNL     1      -1.839   4.841  25.257  0.00  0.00    +0.100 A 
ATOM     15  N   UNL     1      -1.176   4.356  25.331  0.00  0.00    -0.229 NA
ATOM     16  C   UNL     1      -1.244   3.543  25.209  0.00  0.00    +0.132 A 
ATOM     17  C   UNL     1      -1.975   3.215  25.014  0.00  0.00    +0.037 A 
BRANCH  16  18
ATOM     18  N   UNL     1      -0.581   3.057  25.283  0.00  0.00    -0.288 N 
ATOM     19  C   UNL     1      -0.287   2.871  26.030  0.00  0.00    +0.124 C 
ATOM     20  C   UNL     1       0.376   2.386  26.104  0.00  0.00    +0.164 C 
ATOM     21  O   UNL     1       0.746   2.087  25.430  0.00  0.00    -0.350 OA
ATOM     22  C   UNL     1       0.452   2.274  24.681  0.00  0.00    +0.164 C 
ATOM     23  C   UNL     1      -0.211   2.759  24.608  0.00  0.00    +0.124 C 
ENDBRANCH  16  18
ENDBRANCH   9  12
BRANCH   7   6
ATOM      2  N   UNL     1      -4.910   1.203  24.864  0.00  0.00    -0.263 NA
ATOM      3  C   UNL     1      -5.590   0.831  25.146  0.00  0.00    +0.073 C 
ATOM      4  C   UNL     1      -6.106   1.414  25.420  0.00  0.00    +0.019 C 
ATOM      5  C   UNL     1      -5.745   2.147  25.307  0.00  0.00    +0.027 C 
ATOM      6  C   UNL     1      -5.005   2.017  24.963  0.00  0.00    +0.138 C 
BRANCH   2   1
ATOM      1  C   UNL     1      -4.250   0.829  24.539  0.00  0.00    +0.101 C 
BRANCH   1  24
ATOM     24  C   UNL     1      -4.150   0.016  24.634  0.00  0.00    +0.013 A 
ATOM     25  C   UNL     1      -4.345  -0.498  24.018  0.00  0.00    +0.000 A 
ATOM     26  C   UNL     1      -4.244  -1.312  24.113  0.00  0.00    +0.020 A 
ATOM     27  C   UNL     1      -3.949  -1.611  24.823  0.00  0.00    +0.099 A 
ATOM     28  N   UNL     1      -3.755  -1.097  25.438  0.00  0.00    -0.243 NA
ATOM     29  C   UNL     1      -3.855  -0.284  25.344  0.00  0.00    +0.096 A 
ENDBRANCH   1  24
ENDBRANCH   2   1
ENDBRANCH   7   6
TORSDOF 5
ENDMDL
MODEL 2
REMARK VINA RESULT:     -11.2      2.050      4.521
REMARK  Name = 
REMARK  5 active torsions:
REMARK  status: ('A' for Active; 'I' for Inactive)
REMARK    1  A    between atoms: C_1  and  N_2
REMARK    2  A    between atoms: C_1  and  C_24
REMARK    3  A    between atoms: C_6  and  C_7
REMARK    4  A    between atoms: C_9  and  C_12
REMARK    5  A    between atoms: C_16  and  N_18
REMARK                            x       y       z     vdW  Elec       q    Type
REMARK                         _______ _______ _______ _____ _____    ______ ____
ROOT
ATOM      7  C   UNL     1      -1.734   2.278  24.658  0.00  0.00    +0.251 A 
ATOM      8  N   UNL     1      -1.651   1.533  25.003  0.00  0.00    -0.190 NA
ATOM      9  C   UNL     1      -1.403   1.007  24.419  0.00  0.00    +0.203 A 
ATOM     10  N   UNL     1      -1.333   1.426  23.712  0.00  0.00    -0.056 NA
ATOM     11  O   UNL     1      -1.538   2.211  23.860  0.00  0.00    -0.336 OA
ENDROOT
BRANCH   9  12
ATOM     12  C   UNL     1      -1.251   0.202  24.523  0.00  0.00    +0.043 A 
ATOM     13  C   UNL     1      -0.473  -0.072  24.532  0.00  0.00    +0.024 A 
ATOM     14  C   UNL     1      -0.322  -0.877  24.636  0.00  0.00    +0.100 A 
ATOM     15  N   UNL     1      -0.947  -1.406  24.731  0.00  0.00    -0.229 NA
ATOM     16  C   UNL     1      -1.725  -1.131  24.722  0.00  0.00    +0.132 A 
ATOM     17  C   UNL     1      -1.877  -0.327  24.618  0.00  0.00    +0.037 A 
BRANCH  16  18
ATOM     18  N   UNL     1      -2.351  -1.660  24.817  0.00  0.00    -0.288 N 
ATOM     19  C   UNL     1      -2.420  -2.311  24.316  0.00  0.00    +0.124 C 
ATOM     20  C   UNL     1      -3.045  -2.840  24.411  0.00  0.00    +0.164 C 
ATOM     21  O   UNL     1      -3.603  -2.718  25.006  0.00  0.00    -0.350 OA
ATOM     22  C   UNL     1      -3.534  -2.066  25.507  0.00  0.00    +0.164 C 
ATOM     23  C   UNL     1      -2.908  -1.537  25.413  0.00  0.00    +0.124 C 
ENDBRANCH  16  18
ENDBRANCH   9  12
BRANCH   7   6
ATOM      2  N   UNL     1      -2.739   3.271  25.063  0.00  0.00    -0.263 NA
ATOM      3  C   UNL     1      -2.727   3.965  25.508  0.00  0.00    +0.073 C 
ATOM      4  C   UNL     1      -1.952   4.091  25.763  0.00  0.00    +0.019 C 
ATOM      5  C   UNL     1      -1.486   3.474  25.475  0.00  0.00    +0.027 C 
ATOM      6  C   UNL     1      -1.972   2.967  25.043  0.00  0.00    +0.138 C 
BRANCH   2   1
ATOM      1  C   UNL     1      -3.402   2.939  24.702  0.00  0.00    +0.101 C 
BRANCH   1  24
ATOM     24  C   UNL     1      -4.152   3.066  25.020  0.00  0.00    +0.013 A 
ATOM     25  C   UNL     1      -4.541   2.454  25.415  0.00  0.00    +0.000 A 
ATOM     26  C   UNL     1      -5.292   2.581  25.734  0.00  0.00    +0.020 A 
ATOM     27  C   UNL     1      -5.653   3.319  25.657  0.00  0.00    +0.099 A 
ATOM     28  N   UNL     1      -5.264   3.930  25.262  0.00  0.00    -0.243 NA
ATOM     29  C   UNL     1      -4.514   3.803  24.944  0.00  0.00    +0.096 A 
ENDBRANCH   1  24
ENDBRANCH   2   1
ENDBRANCH   7   6
TORSDOF 5
ENDMDL
MODEL 3
REMARK VINA RESULT:     -11.0      1.784      3.970
REMARK  Name = 
REMARK  5 active torsions:
REMARK  status: ('A' for Active; 'I' for Inactive)
REMARK    1  A    between atoms: C_1  and  N_2
REMARK    2  A    between atoms: C_1  and  C_24
REMARK    3  A    between atoms: C_6  and  C_7
REMARK    4  A    between atoms: C_9  and  C_12
REMARK    5  A    between atoms: C_16  and  N_18
REMARK                            x       y       z     vdW  Elec       q    Type
REMARK                         _______ _______ _______ _____ _____    ______ ____
ROOT
ATOM      7  C   UNL     1      -0.535   1.358  24.812  0.00  0.00    +0.251 A 
ATOM      8  N   UNL     1      -1.167   1.855  24.624  0.00  0.00    -0.190 NA
ATOM      9  C   UNL     1      -1.244   2.410  25.229  0.00  0.00    +0.203 A 
ATOM     10  N   UNL     1      -0.660   2.256  25.791  0.00  0.00    -0.056 NA
ATOM     11  O   UNL     1      -0.222   1.606  25.533  0.00  0.00    -0.336 OA
ENDROOT
BRANCH   9  12
ATOM     12  C   UNL     1      -1.806   3.013  25.266  0.00  0.00    +0.043 A 
ATOM     13  C   UNL     1      -1.564   3.798  25.337  0.00  0.00    +0.024 A 
ATOM     14  C   UNL     1      -2.126   4.402  25.374  0.00  0.00    +0.100 A 
ATOM     15  N   UNL     1      -2.930   4.219  25.339  0.00  0.00    -0.229 NA
ATOM     16  C   UNL     1      -3.172   3.434  25.268  0.00  0.00    +0.132 A 
ATOM     17  C   UNL     1      -2.610   2.830  25.231  0.00  0.00    +0.037 A 
BRANCH  16  18
ATOM     18  N   UNL     1      -3.976   3.251  25.233  0.00  0.00    -0.288 N 
ATOM     19  C   UNL     1      -4.257   2.742  24.649  0.00  0.00    +0.124 C 
ATOM     20  C   UNL     1      -5.061   2.559  24.615  0.00  0.00    +0.164 C 
ATOM     21  O   UNL     1      -5.583   2.885  25.164  0.00  0.00    -0.350 OA
ATOM     22  C   UNL     1      -5.300   3.395  25.748  0.00  0.00    +0.164 C 
ATOM     23  C   UNL     1      -4.497   3.578  25.783  0.00  0.00    +0.124 C 
ENDBRANCH  16  18
ENDBRANCH   9  12
BRANCH   7   6
ATOM      2  N   UNL     1      -0.485  -0.065  24.448  0.00  0.00    -0.263 NA
ATOM      3  C   UNL     1      -0.083  -0.508  23.880  0.00  0.00    +0.073 C 
ATOM      4  C   UNL     1       0.386   0.008  23.439  0.00  0.00    +0.019 C 
ATOM      5  C   UNL     1       0.274   0.770  23.734  0.00  0.00    +0.027 C 
ATOM      6  C   UNL     1      -0.265   0.725  24.358  0.00  0.00    +0.138 C 
BRANCH   2   1
ATOM      1  C   UNL     1      -1.015  -0.360  25.008  0.00  0.00    +0.101 C 
BRANCH   1  24
ATOM     24  C   UNL     1      -1.389  -1.083  24.880  0.00  0.00    +0.013 A 
ATOM     25  C   UNL     1      -2.173  -1.102  24.624  0.00  0.00    +0.000 A 
ATOM     26  C   UNL     1      -2.549  -1.826  24.495  0.00  0.00    +0.020 A 
ATOM     27  C   UNL     1      -2.139  -2.530  24.623  0.00  0.00    +0.099 A 
ATOM     28  N   UNL     1      -1.355  -2.512  24.879  0.00  0.00    -0.243 NA
ATOM     29  C   UNL     1      -0.981  -1.789  25.007  0.00  0.00    +0.096 A 
ENDBRANCH   1  24
ENDBRANCH   2   1
ENDBRANCH   7   6
TORSDOF 5
ENDMDL
MODEL 4
REMARK VINA RESULT:     -11.0      1.589      4.462
REMARK  Name = 
REMARK  5 active torsions:
REMARK  status: ('A' for Active; 'I' for Inactive)
REMARK    1  A    between atoms: C_1  and  N_2
REMARK    2  A    between atoms: C_1  and  C_24
REMARK    3  A    between atoms: C_6  and  C_7
REMARK    4  A    between atoms: C_9  and  C_12
REMARK    5  A    between atoms: C_16  and  N_18
REMARK                            x       y       z     vdW  Elec       q    Type
REMARK                         _______ _______ _______ _____ _____    ______ ____
ROOT
ATOM      7  C   UNL     1      -4.155   1.818  24.592  0.00  0.00    +0.251 A 
ATOM      8  N   UNL     1      -3.815   1.144  24.257  0.00  0.00    -0.190 NA
ATOM      9  C   UNL     1      -4.036   0.494  24.713  0.00  0.00    +0.203 A 
ATOM     10  N   UNL     1      -4.512   0.764  25.329  0.00  0.00    -0.056 NA
ATOM     11  O   UNL     1      -4.585   1.583  25.255  0.00  0.00    -0.336 OA
ENDROOT
BRANCH   9  12
ATOM     12  C   UNL     1      -3.819  -0.291  24.576  0.00  0.00    +0.043 A 
ATOM     13  C   UNL     1      -4.367  -0.821  24.261  0.00  0.00    +0.024 A 
ATOM     14  C   UNL     1      -4.150  -1.605  24.124  0.00  0.00    +0.100 A 
ATOM     15  N   UNL     1      -3.385  -1.859  24.302  0.00  0.00    -0.229 NA
ATOM     16  C   UNL     1      -2.837  -1.329  24.617  0.00  0.00    +0.132 A 
ATOM     17  C   UNL     1      -3.054  -0.544  24.754  0.00  0.00    +0.037 A 
BRANCH  16  18
ATOM     18  N   UNL     1      -2.073  -1.582  24.795  0.00  0.00    -0.288 N 
ATOM     19  C   UNL     1      -1.806  -2.312  24.519  0.00  0.00    +0.124 C 
ATOM     20  C   UNL     1      -1.041  -2.565  24.697  0.00  0.00    +0.164 C 
ATOM     21  O   UNL     1      -0.544  -2.089  25.151  0.00  0.00    -0.350 OA
ATOM     22  C   UNL     1      -0.811  -1.358  25.426  0.00  0.00    +0.164 C 
ATOM     23  C   UNL     1      -1.575  -1.105  25.249  0.00  0.00    +0.124 C 
ENDBRANCH  16  18
ENDBRANCH   9  12
BRANCH   7   6
ATOM      2  N   UNL     1      -3.491   3.128  24.532  0.00  0.00    -0.263 NA
ATOM      3  C   UNL     1      -3.623   3.830  24.121  0.00  0.00    +0.073 C 
ATOM      4  C   UNL     1      -4.291   3.727  23.647  0.00  0.00    +0.019 C 
ATOM      5  C   UNL     1      -4.572   2.960  23.766  0.00  0.00    +0.027 C 
ATOM      6  C   UNL     1      -4.077   2.590  24.313  0.00  0.00    +0.138 C 
BRANCH   2   1
ATOM      1  C   UNL     1      -2.880   2.988  25.069  0.00  0.00    +0.101 C 
BRANCH   1  24
ATOM     24  C   UNL     1      -2.216   3.476  25.074  0.00  0.00    +0.013 A 
ATOM     25  C   UNL     1      -2.228   4.185  25.496  0.00  0.00    +0.000 A 
ATOM     26  C   UNL     1      -1.563   4.674  25.501  0.00  0.00    +0.020 A 
ATOM     27  C   UNL     1      -0.887   4.454  25.084  0.00  0.00    +0.099 A 
ATOM     28  N   UNL     1      -0.874   3.745  24.661  0.00  0.00    -0.243 NA
ATOM     29  C   UNL     1      -1.538   3.257  24.656  0.00  0.00    +0.096 A 
ENDBRANCH   1  24
ENDBRANCH   2   1
ENDBRANCH   7   6
TORSDOF 5
ENDMDL
MODEL 5
REMARK VINA RESULT:     -10.9      1.720      2.902
REMARK  Name = 
REMARK  5 active torsions:
REMARK  status: ('A' for Active; 'I' for Inactive)
REMARK    1  A    between atoms: C_1  and  N_2
REMARK    2  A    between atoms: C_1  and  C_24
REMARK    3  A    between atoms: C_6  and  C_7
REMARK    4  A    between atoms: C_9  and  C_12
REMARK    5  A    between atoms: C_16  and  N_18
REMARK                            x       y       z     vdW  Elec       q    Type
REMARK                         _______ _______ _______ _____ _____    ______ ____
ROOT
ATOM      7  C   UNL     1      -4.082   0.140  24.760  0.00  0.00    +0.251 A 
ATOM      8  N   UNL     1      -3.797   0.830  24.408  0.00  0.00    -0.190 NA
ATOM      9  C   UNL     1      -4.148   1.473  24.787  0.00  0.00    +0.203 A 
ATOM     10  N   UNL     1      -4.648   1.181  25.374  0.00  0.00    -0.056 NA
ATOM     11  O   UNL     1      -4.607   0.357  25.357  0.00  0.00    -0.336 OA
ENDROOT
BRANCH   9  12
ATOM     12  C   UNL     1      -4.019   2.269  24.611  0.00  0.00    +0.043 A 
ATOM     13  C   UNL     1      -4.613   2.711  24.247  0.00  0.00    +0.024 A 
ATOM     14  C   UNL     1      -4.485   3.507  24.071  0.00  0.00    +0.100 A 
ATOM     15  N   UNL     1      -3.764   3.860  24.259  0.00  0.00    -0.229 NA
ATOM     16  C   UNL     1      -3.170   3.418  24.623  0.00  0.00    +0.132 A 
ATOM     17  C   UNL     1      -3.298   2.622  24.799  0.00  0.00    +0.037 A 
BRANCH  16  18
ATOM     18  N   UNL     1      -2.448   3.771  24.811  0.00  0.00    -0.288 N 
ATOM     19  C   UNL     1      -1.742   3.390  24.624  0.00  0.00    +0.124 C 
ATOM     20  C   UNL     1      -1.021   3.743  24.812  0.00  0.00    +0.164 C 
ATOM     21  O   UNL     1      -1.006   4.478  25.187  0.00  0.00    -0.350 OA
ATOM     22  C   UNL     1      -1.713   4.860  25.373  0.00  0.00    +0.164 C 
ATOM     23  C   UNL     1      -2.435   4.506  25.185  0.00  0.00    +0.124 C 
ENDBRANCH  16  18
ENDBRANCH   9  12
BRANCH   7   6
ATOM      2  N   UNL     1      -3.171  -1.014  24.744  0.00  0.00    -0.263 NA
ATOM      3  C   UNL     1      -3.198  -1.774  24.425  0.00  0.00    +0.073 C 
ATOM      4  C   UNL     1      -3.920  -1.861  24.035  0.00  0.00    +0.019 C 
ATOM      5  C   UNL     1      -4.339  -1.155  24.113  0.00  0.00    +0.027 C 
ATOM      6  C   UNL     1      -3.876  -0.631  24.551  0.00  0.00    +0.138 C 
BRANCH   2   1
ATOM      1  C   UNL     1      -2.548  -0.693  25.180  0.00  0.00    +0.101 C 
BRANCH   1  24
ATOM     24  C   UNL     1      -1.775  -0.944  25.040  0.00  0.00    +0.013 A 
ATOM     25  C   UNL     1      -1.440  -1.530  25.514  0.00  0.00    +0.000 A 
ATOM     26  C   UNL     1      -0.666  -1.781  25.374  0.00  0.00    +0.020 A 
ATOM     27  C   UNL     1      -0.229  -1.446  24.761  0.00  0.00    +0.099 A 
ATOM     28  N   UNL     1      -0.564  -0.859  24.287  0.00  0.00    -0.243 NA
ATOM     29  C   UNL     1      -1.337  -0.608  24.427  0.00  0.00    +0.096 A 
ENDBRANCH   1  24
ENDBRANCH   2   1
ENDBRANCH   7   6
TORSDOF 5
ENDMDL
