REMARK  Name = 
REMARK  6 active torsions:
REMARK  status: ('A' for Active; 'I' for Inactive)
REMARK    1  A    between atoms: C_2  and  C_3
REMARK    2  A    between atoms: C_3  and  C_4
REMARK    3  A    between atoms: C_9  and  C_10
REMARK    4  A    between atoms: C_10  and  C_11
REMARK    5  A    between atoms: C_14  and  C_15
REMARK    6  A    between atoms: C_15  and  C_16
REMARK                            x       y       z     vdW  Elec       q    Type
REMARK                         _______ _______ _______ _____ _____    ______ ____
ROOT
ATOM      4  C   UNL     1      -0.608  -0.474   0.000  0.00  0.00    +0.012 C 
ATOM      5  C   UNL     1       0.107  -0.062   0.000  0.00  0.00    +0.019 C 
ATOM      6  C   UNL     1       0.821  -0.474   0.000  0.00  0.00    +0.089 C 
ATOM      7  N   UNL     1       0.821  -1.299   0.000  0.00  0.00    -0.218 NA
ATOM      8  C   UNL     1       0.107  -1.712   0.000  0.00  0.00    +0.089 C 
ATOM      9  C   UNL     1      -0.608  -1.299   0.000  0.00  0.00    +0.024 C 
ENDROOT
BRANCH   4   3
ATOM      3  C   UNL     1      -1.322  -0.062   0.000  0.00  0.00    +0.085 C 
BRANCH   3   2
ATOM      1  O   UNL     1      -2.037  -1.299   0.000  0.00  0.00    -0.275 OA
ATOM      2  C   UNL     1      -2.037  -0.474   0.000  0.00  0.00    +0.226 C 
ATOM     23  N   UNL     1      -2.751  -0.062   0.000  0.00  0.00    -0.274 N 
ATOM     24  C   UNL     1      -3.466  -0.474   0.000  0.00  0.00    +0.125 C 
ATOM     25  C   UNL     1      -4.180  -0.062   0.000  0.00  0.00    +0.164 C 
ATOM     26  O   UNL     1      -4.180   0.763   0.000  0.00  0.00    -0.350 OA
ATOM     27  C   UNL     1      -3.466   1.176   0.000  0.00  0.00    +0.164 C 
ATOM     28  C   UNL     1      -2.751   0.763   0.000  0.00  0.00    +0.125 C 
ENDBRANCH   3   2
ENDBRANCH   4   3
BRANCH   9  10
ATOM     10  C   UNL     1      -1.322  -1.712   0.000  0.00  0.00    +0.051 C 
BRANCH  10  11
ATOM     11  C   UNL     1      -1.322  -2.537   0.000  0.00  0.00    +0.100 A 
ATOM     12  N   UNL     1      -0.655  -3.022   0.000  0.00  0.00    -0.082 NA
ATOM     13  O   UNL     1      -0.910  -3.806   0.000  0.00  0.00    -0.358 OA
ATOM     14  C   UNL     1      -1.735  -3.806   0.000  0.00  0.00    +0.154 A 
ATOM     22  C   UNL     1      -1.990  -3.022   0.000  0.00  0.00    +0.054 A 
BRANCH  14  15
ATOM     15  C   UNL     1      -2.220  -4.474   0.000  0.00  0.00    +0.067 C 
BRANCH  15  16
ATOM     16  C   UNL     1      -1.884  -5.227   0.000  0.00  0.00    +0.008 C 
ATOM     17  C   UNL     1      -1.064  -5.314   0.000  0.00  0.00    +0.000 C 
ATOM     18  C   UNL     1      -0.728  -6.067   0.000  0.00  0.00    +0.000 C 
ATOM     19  C   UNL     1      -1.213  -6.735   0.000  0.00  0.00    +0.000 C 
ATOM     20  C   UNL     1      -2.034  -6.648   0.000  0.00  0.00    +0.000 C 
ATOM     21  C   UNL     1      -2.369  -5.895   0.000  0.00  0.00    +0.000 C 
ENDBRANCH  15  16
ENDBRANCH  14  15
ENDBRANCH  10  11
ENDBRANCH   9  10
TORSDOF 6
