MODEL 1
REMARK VINA RESULT:      -8.7      0.000      0.000
REMARK  Name = 
REMARK  6 active torsions:
REMARK  status: ('A' for Active; 'I' for Inactive)
REMARK    1  A    between atoms: C_2  and  N_4
REMARK    2  A    between atoms: N_7  and  C_8
REMARK    3  A    between atoms: C_11  and  C_14
REMARK    4  A    between atoms: N_19  and  C_20
REMARK    5  A    between atoms: C_20  and  C_21
REMARK    6  A    between atoms: C_26  and  C_27
REMARK                            x       y       z     vdW  Elec       q    Type
REMARK                         _______ _______ _______ _____ _____    ______ ____
ROOT
ATOM     14  C   UNL     1      -3.840   2.191  25.057  0.00  0.00    +0.159 C 
ATOM     15  O   UNL     1      -4.494   2.669  25.210  0.00  0.00    -0.341 OA
ATOM     16  C   UNL     1      -4.387   3.444  25.471  0.00  0.00    +0.227 C 
ATOM     17  C   UNL     1      -3.625   3.741  25.580  0.00  0.00    +0.256 C 
ATOM     18  O   UNL     1      -3.518   4.516  25.841  0.00  0.00    -0.272 OA
ATOM     19  N   UNL     1      -2.970   3.263  25.428  0.00  0.00    -0.265 N 
ATOM     26  C   UNL     1      -3.078   2.488  25.167  0.00  0.00    +0.140 C 
ENDROOT
BRANCH  14  11
ATOM      8  C   UNL     1      -4.161  -0.136  24.275  0.00  0.00    +0.075 A 
ATOM      9  C   UNL     1      -4.416   0.086  25.028  0.00  0.00    +0.016 A 
ATOM     10  C   UNL     1      -4.309   0.860  25.289  0.00  0.00    -0.001 A 
ATOM     11  C   UNL     1      -3.947   1.415  24.796  0.00  0.00    +0.006 A 
ATOM     12  C   UNL     1      -3.692   1.195  24.044  0.00  0.00    -0.001 A 
ATOM     13  C   UNL     1      -3.798   0.419  23.783  0.00  0.00    +0.016 A 
BRANCH   8   7
ATOM      4  N   UNL     1      -3.874  -2.284  24.022  0.00  0.00    -0.189 NA
ATOM      5  C   UNL     1      -3.767  -1.510  24.283  0.00  0.00    +0.343 C 
ATOM      6  O   UNL     1      -3.159  -1.333  24.813  0.00  0.00    -0.249 OA
ATOM      7  N   UNL     1      -4.267  -0.911  24.015  0.00  0.00    -0.161 NA
BRANCH   4   2
ATOM      1  C   UNL     1      -3.568  -3.311  24.968  0.00  0.00    +0.023 C 
ATOM      2  C   UNL     1      -3.374  -2.882  24.290  0.00  0.00    +0.097 C 
ATOM      3  C   UNL     1      -2.677  -3.053  23.880  0.00  0.00    +0.023 C 
ENDBRANCH   4   2
ENDBRANCH   8   7
ENDBRANCH  14  11
BRANCH  26  27
ATOM     27  C   UNL     1      -2.423   2.009  25.014  0.00  0.00    +0.205 C 
ATOM     28  O   UNL     1      -1.972   1.716  25.640  0.00  0.00    -0.218 OA
ENDBRANCH  26  27
BRANCH  19  20
ATOM     20  C   UNL     1      -2.209   3.559  25.537  0.00  0.00    +0.179 C 
BRANCH  20  21
ATOM     21  C   UNL     1      -1.927   4.163  25.049  0.00  0.00    +0.246 C 
ATOM     22  O   UNL     1      -2.421   4.496  24.479  0.00  0.00    -0.273 OA
ATOM     23  N   UNL     1      -1.152   4.432  25.131  0.00  0.00    -0.275 N 
ATOM     24  C   UNL     1      -0.870   5.034  24.644  0.00  0.00    +0.115 C 
ATOM     25  C   UNL     1      -0.658   4.097  25.702  0.00  0.00    +0.115 C 
ENDBRANCH  20  21
ENDBRANCH  19  20
TORSDOF 6
ENDMDL
MODEL 2
REMARK VINA RESULT:      -8.5      1.832      5.887
REMARK  Name = 
REMARK  6 active torsions:
REMARK  status: ('A' for Active; 'I' for Inactive)
REMARK    1  A    between atoms: C_2  and  N_4
REMARK    2  A    between atoms: N_7  and  C_8
REMARK    3  A    between atoms: C_11  and  C_14
REMARK    4  A    between atoms: N_19  and  C_20
REMARK    5  A    between atoms: C_20  and  C_21
REMARK    6  A    between atoms: C_26  and  C_27
REMARK                            x       y       z     vdW  Elec       q    Type
REMARK                         _______ _______ _______ _____ _____    ______ ____
ROOT
ATOM     14  C   UNL     1      -0.835  -0.050  24.735  0.00  0.00    +0.159 C 
ATOM     15  O   UNL     1      -0.200  -0.575  24.709  0.00  0.00    -0.341 OA
ATOM     16  C   UNL     1      -0.329  -1.373  24.546  0.00  0.00    +0.227 C 
ATOM     17  C   UNL     1      -1.095  -1.646  24.407  0.00  0.00    +0.256 C 
ATOM     18  O   UNL     1      -1.226  -2.444  24.243  0.00  0.00    -0.272 OA
ATOM     19  N   UNL     1      -1.732  -1.121  24.432  0.00  0.00    -0.265 N 
ATOM     26  C   UNL     1      -1.601  -0.323  24.596  0.00  0.00    +0.140 C 
ENDROOT
BRANCH  14  11
ATOM      8  C   UNL     1      -0.446   2.345  25.224  0.00  0.00    +0.075 A 
ATOM      9  C   UNL     1      -0.290   2.047  24.470  0.00  0.00    +0.016 A 
ATOM     10  C   UNL     1      -0.420   1.249  24.307  0.00  0.00    -0.001 A 
ATOM     11  C   UNL     1      -0.706   0.748  24.898  0.00  0.00    +0.006 A 
ATOM     12  C   UNL     1      -0.861   1.046  25.651  0.00  0.00    -0.001 A 
ATOM     13  C   UNL     1      -0.732   1.844  25.815  0.00  0.00    +0.016 A 
BRANCH   8   7
ATOM      4  N   UNL     1      -0.753   4.503  25.339  0.00  0.00    -0.189 NA
ATOM      5  C   UNL     1      -0.883   3.705  25.176  0.00  0.00    +0.343 C 
ATOM      6  O   UNL     1      -1.580   3.468  24.801  0.00  0.00    -0.249 OA
ATOM      7  N   UNL     1      -0.316   3.143  25.387  0.00  0.00    -0.161 NA
BRANCH   4   2
ATOM      1  C   UNL     1      -2.068   5.046  25.474  0.00  0.00    +0.023 C 
ATOM      2  C   UNL     1      -1.319   5.064  25.129  0.00  0.00    +0.097 C 
ATOM      3  C   UNL     1      -1.136   5.645  24.571  0.00  0.00    +0.023 C 
ENDBRANCH   4   2
ENDBRANCH   8   7
ENDBRANCH  14  11
BRANCH  26  27
ATOM     27  C   UNL     1      -2.238   0.202  24.621  0.00  0.00    +0.205 C 
ATOM     28  O   UNL     1      -2.625   0.413  23.924  0.00  0.00    -0.218 OA
ENDBRANCH  26  27
BRANCH  19  20
ATOM     20  C   UNL     1      -2.497  -1.394  24.293  0.00  0.00    +0.179 C 
BRANCH  20  21
ATOM     21  C   UNL     1      -2.846  -1.929  24.817  0.00  0.00    +0.246 C 
ATOM     22  O   UNL     1      -2.509  -2.058  25.559  0.00  0.00    -0.273 OA
ATOM     23  N   UNL     1      -3.530  -2.334  24.598  0.00  0.00    -0.275 N 
ATOM     24  C   UNL     1      -3.878  -2.867  25.121  0.00  0.00    +0.115 C 
ATOM     25  C   UNL     1      -3.866  -2.204  23.855  0.00  0.00    +0.115 C 
ENDBRANCH  20  21
ENDBRANCH  19  20
TORSDOF 6
ENDMDL
MODEL 3
REMARK VINA RESULT:      -8.1      3.082      4.638
REMARK  Name = 
REMARK  6 active torsions:
REMARK  status: ('A' for Active; 'I' for Inactive)
REMARK    1  A    between atoms: C_2  and  N_4
REMARK    2  A    between atoms: N_7  and  C_8
REMARK    3  A    between atoms: C_11  and  C_14
REMARK    4  A    between atoms: N_19  and  C_20
REMARK    5  A    between atoms: C_20  and  C_21
REMARK    6  A    between atoms: C_26  and  C_27
REMARK                            x       y       z     vdW  Elec       q    Type
REMARK                         _______ _______ _______ _____ _____    ______ ____
ROOT
ATOM     14  C   UNL     1      -1.284   0.294  24.296  0.00  0.00    +0.159 C 
ATOM     15  O   UNL     1      -1.345  -0.478  24.579  0.00  0.00    -0.341 OA
ATOM     16  C   UNL     1      -0.697  -0.987  24.533  0.00  0.00    +0.227 C 
ATOM     17  C   UNL     1       0.012  -0.723  24.204  0.00  0.00    +0.256 C 
ATOM     18  O   UNL     1       0.660  -1.231  24.158  0.00  0.00    -0.272 OA
ATOM     19  N   UNL     1       0.073   0.050  23.921  0.00  0.00    -0.265 N 
ATOM     26  C   UNL     1      -0.575   0.558  23.967  0.00  0.00    +0.140 C 
ENDROOT
BRANCH  14  11
ATOM      8  C   UNL     1      -3.228   1.821  24.430  0.00  0.00    +0.075 A 
ATOM      9  C   UNL     1      -3.119   1.350  23.762  0.00  0.00    +0.016 A 
ATOM     10  C   UNL     1      -2.471   0.841  23.717  0.00  0.00    -0.001 A 
ATOM     11  C   UNL     1      -1.932   0.803  24.341  0.00  0.00    +0.006 A 
ATOM     12  C   UNL     1      -2.041   1.274  25.009  0.00  0.00    -0.001 A 
ATOM     13  C   UNL     1      -2.689   1.783  25.055  0.00  0.00    +0.016 A 
BRANCH   8   7
ATOM      4  N   UNL     1      -5.211   2.598  24.909  0.00  0.00    -0.189 NA
ATOM      5  C   UNL     1      -4.563   2.090  24.864  0.00  0.00    +0.343 C 
ATOM      6  O   UNL     1      -4.603   1.340  25.208  0.00  0.00    -0.249 OA
ATOM      7  N   UNL     1      -3.876   2.329  24.475  0.00  0.00    -0.161 NA
BRANCH   4   2
ATOM      1  C   UNL     1      -6.464   1.912  24.896  0.00  0.00    +0.023 C 
ATOM      2  C   UNL     1      -5.897   2.358  25.297  0.00  0.00    +0.097 C 
ATOM      3  C   UNL     1      -6.019   2.565  26.087  0.00  0.00    +0.023 C 
ENDBRANCH   4   2
ENDBRANCH   8   7
ENDBRANCH  14  11
BRANCH  26  27
ATOM     27  C   UNL     1      -0.514   1.331  23.683  0.00  0.00    +0.205 C 
ATOM     28  O   UNL     1      -0.055   1.883  24.089  0.00  0.00    -0.218 OA
ENDBRANCH  26  27
BRANCH  19  20
ATOM     20  C   UNL     1       0.781   0.314  23.592  0.00  0.00    +0.179 C 
BRANCH  20  21
ATOM     21  C   UNL     1       1.039   0.011  22.868  0.00  0.00    +0.246 C 
ATOM     22  O   UNL     1       0.515  -0.406  22.387  0.00  0.00    -0.273 OA
ATOM     23  N   UNL     1       1.819   0.127  22.627  0.00  0.00    -0.275 N 
ATOM     24  C   UNL     1       2.076  -0.175  21.904  0.00  0.00    +0.115 C 
ATOM     25  C   UNL     1       2.342   0.545  23.109  0.00  0.00    +0.115 C 
ENDBRANCH  20  21
ENDBRANCH  19  20
TORSDOF 6
ENDMDL
MODEL 4
REMARK VINA RESULT:      -8.0      1.735      2.526
REMARK  Name = 
REMARK  6 active torsions:
REMARK  status: ('A' for Active; 'I' for Inactive)
REMARK    1  A    between atoms: C_2  and  N_4
REMARK    2  A    between atoms: N_7  and  C_8
REMARK    3  A    between atoms: C_11  and  C_14
REMARK    4  A    between atoms: N_19  and  C_20
REMARK    5  A    between atoms: C_20  and  C_21
REMARK    6  A    between atoms: C_26  and  C_27
REMARK                            x       y       z     vdW  Elec       q    Type
REMARK                         _______ _______ _______ _____ _____    ______ ____
ROOT
ATOM     14  C   UNL     1      -0.770   1.457  25.155  0.00  0.00    +0.159 C 
ATOM     15  O   UNL     1      -0.007   1.681  25.372  0.00  0.00    -0.341 OA
ATOM     16  C   UNL     1       0.173   2.479  25.487  0.00  0.00    +0.227 C 
ATOM     17  C   UNL     1      -0.411   3.052  25.384  0.00  0.00    +0.256 C 
ATOM     18  O   UNL     1      -0.233   3.849  25.499  0.00  0.00    -0.272 OA
ATOM     19  N   UNL     1      -1.176   2.828  25.167  0.00  0.00    -0.265 N 
ATOM     26  C   UNL     1      -1.354   2.031  25.053  0.00  0.00    +0.140 C 
ENDROOT
BRANCH  14  11
ATOM      8  C   UNL     1      -1.311  -0.934  24.814  0.00  0.00    +0.075 A 
ATOM      9  C   UNL     1      -1.419  -0.588  25.555  0.00  0.00    +0.016 A 
ATOM     10  C   UNL     1      -1.239   0.208  25.669  0.00  0.00    -0.001 A 
ATOM     11  C   UNL     1      -0.950   0.660  25.041  0.00  0.00    +0.006 A 
ATOM     12  C   UNL     1      -0.841   0.315  24.300  0.00  0.00    -0.001 A 
ATOM     13  C   UNL     1      -1.021  -0.482  24.186  0.00  0.00    +0.016 A 
BRANCH   8   7
ATOM      4  N   UNL     1      -2.457  -2.767  24.518  0.00  0.00    -0.189 NA
ATOM      5  C   UNL     1      -2.277  -1.971  24.632  0.00  0.00    +0.343 C 
ATOM      6  O   UNL     1      -2.884  -1.413  24.679  0.00  0.00    -0.249 OA
ATOM      7  N   UNL     1      -1.490  -1.731  24.700  0.00  0.00    -0.161 NA
BRANCH   4   2
ATOM      1  C   UNL     1      -3.639  -3.315  25.106  0.00  0.00    +0.023 C 
ATOM      2  C   UNL     1      -3.243  -3.007  24.450  0.00  0.00    +0.097 C 
ATOM      3  C   UNL     1      -3.634  -2.940  23.726  0.00  0.00    +0.023 C 
ENDBRANCH   4   2
ENDBRANCH   8   7
ENDBRANCH  14  11
BRANCH  26  27
ATOM     27  C   UNL     1      -2.119   1.807  24.836  0.00  0.00    +0.205 C 
ATOM     28  O   UNL     1      -2.380   1.930  24.063  0.00  0.00    -0.218 OA
ENDBRANCH  26  27
BRANCH  19  20
ATOM     20  C   UNL     1      -1.760   3.400  25.065  0.00  0.00    +0.179 C 
BRANCH  20  21
ATOM     21  C   UNL     1      -2.129   3.735  25.723  0.00  0.00    +0.246 C 
ATOM     22  O   UNL     1      -1.901   3.509  26.483  0.00  0.00    -0.273 OA
ATOM     23  N   UNL     1      -2.726   4.295  25.620  0.00  0.00    -0.275 N 
ATOM     24  C   UNL     1      -3.095   4.630  26.277  0.00  0.00    +0.115 C 
ATOM     25  C   UNL     1      -2.954   4.520  24.860  0.00  0.00    +0.115 C 
ENDBRANCH  20  21
ENDBRANCH  19  20
TORSDOF 6
ENDMDL
MODEL 5
REMARK VINA RESULT:      -7.9      2.488      3.841
REMARK  Name = 
REMARK  6 active torsions:
REMARK  status: ('A' for Active; 'I' for Inactive)
REMARK    1  A    between atoms: C_2  and  N_4
REMARK    2  A    between atoms: N_7  and  C_8
REMARK    3  A    between atoms: C_11  and  C_14
REMARK    4  A    between atoms: N_19  and  C_20
REMARK    5  A    between atoms: C_20  and  C_21
REMARK    6  A    between atoms: C_26  and  C_27
REMARK                            x       y       z     vdW  Elec       q    Type
REMARK                         _______ _______ _______ _____ _____    ______ ____
ROOT
ATOM     14  C   UNL     1      -2.973   3.141  24.917  0.00  0.00    +0.159 C 
ATOM     15  O   UNL     1      -3.015   3.942  25.105  0.00  0.00    -0.341 OA
ATOM     16  C   UNL     1      -3.746   4.293  25.260  0.00  0.00    +0.227 C 
ATOM     17  C   UNL     1      -4.435   3.841  25.225  0.00  0.00    +0.256 C 
ATOM     18  O   UNL     1      -5.166   4.191  25.379  0.00  0.00    -0.272 OA
ATOM     19  N   UNL     1      -4.394   3.038  25.037  0.00  0.00    -0.265 N 
ATOM     26  C   UNL     1      -3.662   2.689  24.883  0.00  0.00    +0.140 C 
ENDROOT
BRANCH  14  11
ATOM      8  C   UNL     1      -0.781   2.089  24.452  0.00  0.00    +0.075 A 
ATOM      9  C   UNL     1      -1.173   2.506  23.858  0.00  0.00    +0.016 A 
ATOM     10  C   UNL     1      -1.903   2.857  24.013  0.00  0.00    -0.001 A 
ATOM     11  C   UNL     1      -2.242   2.790  24.763  0.00  0.00    +0.006 A 
ATOM     12  C   UNL     1      -1.851   2.373  25.357  0.00  0.00    -0.001 A 
ATOM     13  C   UNL     1      -1.120   2.022  25.202  0.00  0.00    +0.016 A 
BRANCH   8   7
ATOM      4  N   UNL     1       0.715   0.660  23.757  0.00  0.00    -0.189 NA
ATOM      5  C   UNL     1      -0.015   1.010  23.911  0.00  0.00    +0.343 C 
ATOM      6  O   UNL     1      -0.712   0.632  23.679  0.00  0.00    -0.249 OA
ATOM      7  N   UNL     1      -0.051   1.738  24.298  0.00  0.00    -0.161 NA
BRANCH   4   2
ATOM      1  C   UNL     1       1.097  -0.123  22.624  0.00  0.00    +0.023 C 
ATOM      2  C   UNL     1       0.750  -0.068  23.370  0.00  0.00    +0.097 C 
ATOM      3  C   UNL     1       0.437  -0.742  23.731  0.00  0.00    +0.023 C 
ENDBRANCH   4   2
ENDBRANCH   8   7
ENDBRANCH  14  11
BRANCH  26  27
ATOM     27  C   UNL     1      -3.621   1.886  24.695  0.00  0.00    +0.205 C 
ATOM     28  O   UNL     1      -3.880   1.622  23.957  0.00  0.00    -0.218 OA
ENDBRANCH  26  27
BRANCH  19  20
ATOM     20  C   UNL     1      -5.082   2.587  25.003  0.00  0.00    +0.179 C 
BRANCH  20  21
ATOM     21  C   UNL     1      -5.495   2.410  25.696  0.00  0.00    +0.246 C 
ATOM     22  O   UNL     1      -5.221   2.692  26.421  0.00  0.00    -0.273 OA
ATOM     23  N   UNL     1      -6.180   1.952  25.663  0.00  0.00    -0.275 N 
ATOM     24  C   UNL     1      -6.592   1.776  26.355  0.00  0.00    +0.115 C 
ATOM     25  C   UNL     1      -6.453   1.671  24.936  0.00  0.00    +0.115 C 
ENDBRANCH  20  21
ENDBRANCH  19  20
TORSDOF 6
ENDMDL
MODEL 6
REMARK VINA RESULT:      -7.6      1.176      5.259
REMARK  Name = 
REMARK  6 active torsions:
REMARK  status: ('A' for Active; 'I' for Inactive)
REMARK    1  A    between atoms: C_2  and  N_4
REMARK    2  A    between atoms: N_7  and  C_8
REMARK    3  A    between atoms: C_11  and  C_14
REMARK    4  A    between atoms: N_19  and  C_20
REMARK    5  A    between atoms: C_20  and  C_21
REMARK    6  A    between atoms: C_26  and  C_27
REMARK                            x       y       z     vdW  Elec       q    Type
REMARK                         _______ _______ _______ _____ _____    ______ ____
ROOT
ATOM     14  C   UNL     1      -3.858   0.627  24.414  0.00  0.00    +0.159 C 
ATOM     15  O   UNL     1      -4.644   0.399  24.312  0.00  0.00    -0.341 OA
ATOM     16  C   UNL     1      -4.829  -0.393  24.172  0.00  0.00    +0.227 C 
ATOM     17  C   UNL     1      -4.228  -0.957  24.134  0.00  0.00    +0.256 C 
ATOM     18  O   UNL     1      -4.412  -1.748  23.993  0.00  0.00    -0.272 OA
ATOM     19  N   UNL     1      -3.441  -0.729  24.236  0.00  0.00    -0.265 N 
ATOM     26  C   UNL     1      -3.257   0.063  24.376  0.00  0.00    +0.140 C 
ENDROOT
BRANCH  14  11
ATOM      8  C   UNL     1      -3.301   3.001  24.838  0.00  0.00    +0.075 A 
ATOM      9  C   UNL     1      -3.355   2.471  25.468  0.00  0.00    +0.016 A 
ATOM     10  C   UNL     1      -3.541   1.680  25.327  0.00  0.00    -0.001 A 
ATOM     11  C   UNL     1      -3.672   1.418  24.555  0.00  0.00    +0.006 A 
ATOM     12  C   UNL     1      -3.618   1.948  23.925  0.00  0.00    -0.001 A 
ATOM     13  C   UNL     1      -3.432   2.739  24.066  0.00  0.00    +0.016 A 
BRANCH   8   7
ATOM      4  N   UNL     1      -2.145   4.837  25.081  0.00  0.00    -0.189 NA
ATOM      5  C   UNL     1      -2.331   4.046  24.940  0.00  0.00    +0.343 C 
ATOM      6  O   UNL     1      -1.731   3.507  24.760  0.00  0.00    -0.249 OA
ATOM      7  N   UNL     1      -3.115   3.792  24.979  0.00  0.00    -0.161 NA
BRANCH   4   2
ATOM      1  C   UNL     1      -0.760   4.623  25.361  0.00  0.00    +0.023 C 
ATOM      2  C   UNL     1      -1.362   5.090  25.042  0.00  0.00    +0.097 C 
ATOM      3  C   UNL     1      -1.178   5.811  24.684  0.00  0.00    +0.023 C 
ENDBRANCH   4   2
ENDBRANCH   8   7
ENDBRANCH  14  11
BRANCH  26  27
ATOM     27  C   UNL     1      -2.470   0.291  24.479  0.00  0.00    +0.205 C 
ATOM     28  O   UNL     1      -1.962   0.321  23.829  0.00  0.00    -0.218 OA
ENDBRANCH  26  27
BRANCH  19  20
ATOM     20  C   UNL     1      -2.841  -1.292  24.198  0.00  0.00    +0.179 C 
BRANCH  20  21
ATOM     21  C   UNL     1      -2.741  -1.831  24.815  0.00  0.00    +0.246 C 
ATOM     22  O   UNL     1      -3.211  -1.776  25.490  0.00  0.00    -0.273 OA
ATOM     23  N   UNL     1      -2.170  -2.424  24.757  0.00  0.00    -0.275 N 
ATOM     24  C   UNL     1      -2.070  -2.962  25.373  0.00  0.00    +0.115 C 
ATOM     25  C   UNL     1      -1.700  -2.478  24.081  0.00  0.00    +0.115 C 
ENDBRANCH  20  21
ENDBRANCH  19  20
TORSDOF 6
ENDMDL
