REMARK  Name = 
REMARK  5 active torsions:
REMARK  status: ('A' for Active; 'I' for Inactive)
REMARK    1  A    between atoms: O_2  and  C_3
REMARK    2  A    between atoms: C_6  and  C_7
REMARK    3  A    between atoms: C_7  and  N_8
REMARK    4  A    between atoms: C_17  and  C_18
REMARK    5  A    between atoms: C_19  and  C_20
REMARK                            x       y       z     vdW  Elec       q    Type
REMARK                         _______ _______ _______ _____ _____    ______ ____
ROOT
ATOM      8  N   UNL     1       0.813  -2.091   0.000  0.00  0.00    -0.269 NA
ATOM      9  C   UNL     1       1.629  -1.912   0.000  0.00  0.00    +0.074 C 
ATOM     10  C   UNL     1       1.582  -0.925   0.000  0.00  0.00    +0.039 C 
ATOM     11  C   UNL     1       1.713  -0.121   0.000  0.00  0.00    +0.011 C 
ATOM     12  C   UNL     1       1.163  -0.557   0.000  0.00  0.00    +0.054 C 
ATOM     13  C   UNL     1       1.225  -1.510   0.000  0.00  0.00    +0.078 C 
ATOM     14  C   UNL     1       0.244  -0.558   0.000  0.00  0.00    +0.041 A 
ATOM     15  C   UNL     1      -0.397  -0.039   0.000  0.00  0.00    +0.013 A 
ATOM     16  C   UNL     1      -1.167  -0.335   0.000  0.00  0.00    +0.006 A 
ATOM     17  C   UNL     1      -1.296  -1.150   0.000  0.00  0.00    +0.056 A 
ATOM     27  C   UNL     1      -0.655  -1.669   0.000  0.00  0.00    +0.261 A 
ATOM     28  O   UNL     1      -0.784  -2.484   0.000  0.00  0.00    -0.267 OA
ATOM     29  N   UNL     1       0.115  -1.373   0.000  0.00  0.00    -0.299 N 
ATOM     30  C   UNL     1       0.622  -0.936   0.000  0.00  0.00    +0.110 C 
ENDROOT
BRANCH  17  18
ATOM     18  C   UNL     1      -2.066  -1.445   0.000  0.00  0.00    +0.005 C 
ATOM     19  C   UNL     1      -2.195  -2.260   0.000  0.00  0.00    +0.000 C 
BRANCH  19  20
ATOM     20  C   UNL     1      -2.965  -2.556   0.000  0.00  0.00    +0.000 A 
ATOM     21  C   UNL     1      -3.094  -3.371   0.000  0.00  0.00    +0.001 A 
ATOM     22  C   UNL     1      -3.864  -3.667   0.000  0.00  0.00    +0.011 A 
ATOM     23  C   UNL     1      -4.505  -3.147   0.000  0.00  0.00    +0.058 A 
ATOM     24 CL   UNL     1      -5.276  -3.443   0.000  0.00  0.00    -0.082 Cl
ATOM     25  C   UNL     1      -4.377  -2.333   0.000  0.00  0.00    +0.011 A 
ATOM     26  C   UNL     1      -3.606  -2.037   0.000  0.00  0.00    +0.001 A 
ENDBRANCH  19  20
ENDBRANCH  17  18
BRANCH   8   7
ATOM      7  C   UNL     1       0.125  -2.547   0.000  0.00  0.00    +0.099 C 
BRANCH   7   6
ATOM      3  C   UNL     1       0.277  -5.017   0.000  0.00  0.00    +0.139 A 
ATOM      4  C   UNL     1      -0.461  -4.650   0.000  0.00  0.00    +0.037 A 
ATOM      5  C   UNL     1      -0.512  -3.826   0.000  0.00  0.00    +0.000 A 
ATOM      6  C   UNL     1       0.176  -3.370   0.000  0.00  0.00    -0.006 A 
ATOM     31  C   UNL     1       0.914  -3.738   0.000  0.00  0.00    +0.000 A 
ATOM     32  C   UNL     1       0.965  -4.562   0.000  0.00  0.00    +0.037 A 
BRANCH   3   2
ATOM      1  C   UNL     1       1.066  -6.209   0.000  0.00  0.00    +0.252 C 
ATOM      2  O   UNL     1       0.328  -5.841   0.000  0.00  0.00    -0.471 OA
ENDBRANCH   3   2
ENDBRANCH   7   6
ENDBRANCH   8   7
TORSDOF 5
