MODEL 1
REMARK VINA RESULT:     -11.1      0.000      0.000
REMARK  Name = 
REMARK  8 active torsions:
REMARK  status: ('A' for Active; 'I' for Inactive)
REMARK    1  A    between atoms: C_2  and  C_4
REMARK    2  A    between atoms: C_6  and  C_7
REMARK    3  A    between atoms: C_7  and  C_8
REMARK    4  A    between atoms: C_11  and  C_13
REMARK    5  A    between atoms: C_22  and  C_23
REMARK    6  A    between atoms: C_23  and  N_24
REMARK    7  A    between atoms: N_24  and  C_25
REMARK    8  A    between atoms: C_25  and  C_26
REMARK                            x       y       z     vdW  Elec       q    Type
REMARK                         _______ _______ _______ _____ _____    ______ ____
ROOT
ATOM      4  C   UNL     1      -3.530   1.593  23.921  0.00  0.00    +0.006 C 
ATOM      5  C   UNL     1      -3.606   2.359  24.218  0.00  0.00    +0.005 C 
ATOM      6  C   UNL     1      -4.197   2.532  24.765  0.00  0.00    +0.027 C 
ATOM     19  C   UNL     1      -4.714   1.940  25.017  0.00  0.00    -0.048 C 
ATOM     20  C   UNL     1      -5.306   2.113  25.565  0.00  0.00    +0.026 C 
ATOM     21  C   UNL     1      -4.638   1.173  24.720  0.00  0.00    -0.033 C 
ATOM     22  C   UNL     1      -4.046   1.000  24.173  0.00  0.00    +0.039 C 
ENDROOT
BRANCH   4   2
ATOM      1  C   UNL     1      -2.213   1.120  23.631  0.00  0.00    +0.000 C 
ATOM      2  C   UNL     1      -2.938   1.420  23.373  0.00  0.00    +0.000 C 
ATOM      3  C   UNL     1      -3.070   1.546  22.570  0.00  0.00    +0.000 C 
ENDBRANCH   4   2
BRANCH   6   7
ATOM      7  C   UNL     1      -4.274   3.298  25.063  0.00  0.00    +0.091 C 
BRANCH   7   8
ATOM      8  C   UNL     1      -3.615   3.690  25.367  0.00  0.00    +0.227 A 
ATOM      9  N   UNL     1      -3.440   3.799  26.165  0.00  0.00    -0.111 NA
ATOM     10  N   UNL     1      -2.732   4.219  26.217  0.00  0.00    -0.106 NA
ATOM     11  C   UNL     1      -2.468   4.370  25.451  0.00  0.00    +0.267 A 
ATOM     12  O   UNL     1      -3.013   4.043  24.924  0.00  0.00    -0.418 OA
BRANCH  11  13
ATOM     13  C   UNL     1      -1.780   4.776  25.245  0.00  0.00    +0.136 A 
ATOM     14  C   UNL     1      -1.733   5.569  25.024  0.00  0.00    +0.123 A 
ATOM     15  N   UNL     1      -0.942   5.743  24.868  0.00  0.00    -0.222 NA
ATOM     16  C   UNL     1      -0.500   5.058  24.992  0.00  0.00    +0.179 A 
ATOM     17  N   UNL     1      -1.018   4.460  25.226  0.00  0.00    -0.303 N 
ATOM     18  C   UNL     1      -0.810   3.683  25.408  0.00  0.00    +0.132 C 
ENDBRANCH  11  13
ENDBRANCH   7   8
ENDBRANCH   6   7
BRANCH  22  23
ATOM     23  C   UNL     1      -3.970   0.234  23.876  0.00  0.00    +0.093 C 
BRANCH  23  24
ATOM     24  N   UNL     1      -4.104  -0.415  24.367  0.00  0.00    -0.213 NA
BRANCH  24  25
ATOM     25  C   UNL     1      -4.314  -1.142  24.041  0.00  0.00    +0.117 C 
BRANCH  25  26
ATOM     26  C   UNL     1      -3.978  -1.838  24.333  0.00  0.00    +0.014 A 
ATOM     27  C   UNL     1      -3.667  -1.856  25.097  0.00  0.00    +0.000 A 
ATOM     28  C   UNL     1      -3.332  -2.551  25.389  0.00  0.00    +0.020 A 
ATOM     29  C   UNL     1      -3.308  -3.228  24.917  0.00  0.00    +0.099 A 
ATOM     30  N   UNL     1      -3.619  -3.209  24.153  0.00  0.00    -0.243 NA
ATOM     31  C   UNL     1      -3.954  -2.514  23.862  0.00  0.00    +0.096 A 
ENDBRANCH  25  26
ENDBRANCH  24  25
ENDBRANCH  23  24
ENDBRANCH  22  23
TORSDOF 8
ENDMDL
MODEL 2
REMARK VINA RESULT:      -9.8      2.892      4.539
REMARK  Name = 
REMARK  8 active torsions:
REMARK  status: ('A' for Active; 'I' for Inactive)
REMARK    1  A    between atoms: C_2  and  C_4
REMARK    2  A    between atoms: C_6  and  C_7
REMARK    3  A    between atoms: C_7  and  C_8
REMARK    4  A    between atoms: C_11  and  C_13
REMARK    5  A    between atoms: C_22  and  C_23
REMARK    6  A    between atoms: C_23  and  N_24
REMARK    7  A    between atoms: N_24  and  C_25
REMARK    8  A    between atoms: C_25  and  C_26
REMARK                            x       y       z     vdW  Elec       q    Type
REMARK                         _______ _______ _______ _____ _____    ______ ____
ROOT
ATOM      4  C   UNL     1      -1.289   0.899  24.783  0.00  0.00    +0.006 C 
ATOM      5  C   UNL     1      -1.732   1.542  25.046  0.00  0.00    +0.005 C 
ATOM      6  C   UNL     1      -1.496   2.310  24.862  0.00  0.00    +0.027 C 
ATOM     19  C   UNL     1      -0.815   2.435  24.413  0.00  0.00    -0.048 C 
ATOM     20  C   UNL     1      -0.578   3.204  24.228  0.00  0.00    +0.026 C 
ATOM     21  C   UNL     1      -0.370   1.792  24.149  0.00  0.00    -0.033 C 
ATOM     22  C   UNL     1      -0.607   1.024  24.334  0.00  0.00    +0.039 C 
ENDROOT
BRANCH   4   2
ATOM      1  C   UNL     1      -1.275  -0.220  25.672  0.00  0.00    +0.000 C 
ATOM      2  C   UNL     1      -1.525   0.130  24.968  0.00  0.00    +0.000 C 
ATOM      3  C   UNL     1      -2.012  -0.287  24.449  0.00  0.00    +0.000 C 
ENDBRANCH   4   2
BRANCH   6   7
ATOM      7  C   UNL     1      -1.940   2.954  25.125  0.00  0.00    +0.091 C 
BRANCH   7   8
ATOM      8  C   UNL     1      -2.746   2.998  24.953  0.00  0.00    +0.227 A 
ATOM      9  N   UNL     1      -3.076   3.235  24.235  0.00  0.00    -0.111 NA
ATOM     10  N   UNL     1      -3.897   3.196  24.306  0.00  0.00    -0.106 NA
ATOM     11  C   UNL     1      -4.075   2.934  25.068  0.00  0.00    +0.267 A 
ATOM     12  O   UNL     1      -3.363   2.811  25.468  0.00  0.00    -0.418 OA
BRANCH  11  13
ATOM     13  C   UNL     1      -4.830   2.815  25.376  0.00  0.00    +0.136 A 
ATOM     14  C   UNL     1      -5.241   3.336  25.867  0.00  0.00    +0.123 A 
ATOM     15  N   UNL     1      -5.972   2.998  26.042  0.00  0.00    -0.222 NA
ATOM     16  C   UNL     1      -6.015   2.268  25.659  0.00  0.00    +0.179 A 
ATOM     17  N   UNL     1      -5.309   2.155  25.248  0.00  0.00    -0.303 N 
ATOM     18  C   UNL     1      -5.115   1.498  24.789  0.00  0.00    +0.132 C 
ENDBRANCH  11  13
ENDBRANCH   7   8
ENDBRANCH   6   7
BRANCH  22  23
ATOM     23  C   UNL     1      -0.163   0.381  24.071  0.00  0.00    +0.093 C 
BRANCH  23  24
ATOM     24  N   UNL     1       0.495   0.502  23.589  0.00  0.00    -0.213 NA
BRANCH  24  25
ATOM     25  C   UNL     1       0.898  -0.143  23.271  0.00  0.00    +0.117 C 
BRANCH  25  26
ATOM     26  C   UNL     1       1.594  -0.024  22.842  0.00  0.00    +0.014 A 
ATOM     27  C   UNL     1       2.250   0.318  23.208  0.00  0.00    +0.000 A 
ATOM     28  C   UNL     1       2.945   0.437  22.780  0.00  0.00    +0.020 A 
ATOM     29  C   UNL     1       2.985   0.212  21.986  0.00  0.00    +0.099 A 
ATOM     30  N   UNL     1       2.329  -0.131  21.622  0.00  0.00    -0.243 NA
ATOM     31  C   UNL     1       1.633  -0.249  22.050  0.00  0.00    +0.096 A 
ENDBRANCH  25  26
ENDBRANCH  24  25
ENDBRANCH  23  24
ENDBRANCH  22  23
TORSDOF 8
ENDMDL
MODEL 3
REMARK VINA RESULT:      -9.6      2.346      4.703
REMARK  Name = 
REMARK  8 active torsions:
REMARK  status: ('A' for Active; 'I' for Inactive)
REMARK    1  A    between atoms: C_2  and  C_4
REMARK    2  A    between atoms: C_6  and  C_7
REMARK    3  A    between atoms: C_7  and  C_8
REMARK    4  A    between atoms: C_11  and  C_13
REMARK    5  A    between atoms: C_22  and  C_23
REMARK    6  A    between atoms: C_23  and  N_24
REMARK    7  A    between atoms: N_24  and  C_25
REMARK    8  A    between atoms: C_25  and  C_26
REMARK                            x       y       z     vdW  Elec       q    Type
REMARK                         _______ _______ _______ _____ _____    ______ ____
ROOT
ATOM      4  C   UNL     1      -2.137   3.285  24.698  0.00  0.00    +0.006 C 
ATOM      5  C   UNL     1      -1.510   2.886  24.340  0.00  0.00    +0.005 C 
ATOM      6  C   UNL     1      -1.646   2.409  23.682  0.00  0.00    +0.027 C 
ATOM     19  C   UNL     1      -2.410   2.330  23.380  0.00  0.00    -0.048 C 
ATOM     20  C   UNL     1      -2.547   1.852  22.722  0.00  0.00    +0.026 C 
ATOM     21  C   UNL     1      -3.038   2.729  23.738  0.00  0.00    -0.033 C 
ATOM     22  C   UNL     1      -2.901   3.206  24.396  0.00  0.00    +0.039 C 
ENDROOT
BRANCH   4   2
ATOM      1  C   UNL     1      -1.969   3.427  26.109  0.00  0.00    +0.000 C 
ATOM      2  C   UNL     1      -2.000   3.763  25.356  0.00  0.00    +0.000 C 
ATOM      3  C   UNL     1      -1.895   4.575  25.262  0.00  0.00    +0.000 C 
ENDBRANCH   4   2
BRANCH   6   7
ATOM      7  C   UNL     1      -1.019   2.010  23.324  0.00  0.00    +0.091 C 
BRANCH   7   8
ATOM      8  C   UNL     1      -0.631   1.404  23.727  0.00  0.00    +0.227 A 
ATOM      9  N   UNL     1       0.140   1.430  24.018  0.00  0.00    -0.111 NA
ATOM     10  N   UNL     1       0.301   0.706  24.382  0.00  0.00    -0.106 NA
ATOM     11  C   UNL     1      -0.372   0.233  24.315  0.00  0.00    +0.267 A 
ATOM     12  O   UNL     1      -0.948   0.664  23.911  0.00  0.00    -0.418 OA
BRANCH  11  13
ATOM     13  C   UNL     1      -0.454  -0.536  24.603  0.00  0.00    +0.136 A 
ATOM     14  C   UNL     1      -0.181  -1.223  24.235  0.00  0.00    +0.123 A 
ATOM     15  N   UNL     1      -0.382  -1.863  24.713  0.00  0.00    -0.222 NA
ATOM     16  C   UNL     1      -0.779  -1.575  25.376  0.00  0.00    +0.179 A 
ATOM     17  N   UNL     1      -0.823  -0.753  25.308  0.00  0.00    -0.303 N 
ATOM     18  C   UNL     1      -1.175  -0.240  25.849  0.00  0.00    +0.132 C 
ENDBRANCH  11  13
ENDBRANCH   7   8
ENDBRANCH   6   7
BRANCH  22  23
ATOM     23  C   UNL     1      -3.528   3.605  24.754  0.00  0.00    +0.093 C 
BRANCH  23  24
ATOM     24  N   UNL     1      -4.299   3.321  24.675  0.00  0.00    -0.213 NA
BRANCH  24  25
ATOM     25  C   UNL     1      -4.877   3.538  25.221  0.00  0.00    +0.117 C 
BRANCH  25  26
ATOM     26  C   UNL     1      -5.423   2.979  25.488  0.00  0.00    +0.014 A 
ATOM     27  C   UNL     1      -5.770   2.454  24.953  0.00  0.00    +0.000 A 
ATOM     28  C   UNL     1      -6.316   1.896  25.220  0.00  0.00    +0.020 A 
ATOM     29  C   UNL     1      -6.515   1.862  26.021  0.00  0.00    +0.099 A 
ATOM     30  N   UNL     1      -6.167   2.387  26.554  0.00  0.00    -0.243 NA
ATOM     31  C   UNL     1      -5.621   2.945  26.287  0.00  0.00    +0.096 A 
ENDBRANCH  25  26
ENDBRANCH  24  25
ENDBRANCH  23  24
ENDBRANCH  22  23
TORSDOF 8
ENDMDL
MODEL 4
REMARK VINA RESULT:      -9.3      1.431      5.496
REMARK  Name = 
REMARK  8 active torsions:
REMARK  status: ('A' for Active; 'I' for Inactive)
REMARK    1  A    between atoms: C_2  and  C_4
REMARK    2  A    between atoms: C_6  and  C_7
REMARK    3  A    between atoms: C_7  and  C_8
REMARK    4  A    between atoms: C_11  and  C_13
REMARK    5  A    between atoms: C_22  and  C_23
REMARK    6  A    between atoms: C_23  and  N_24
REMARK    7  A    between atoms: N_24  and  C_25
REMARK    8  A    between atoms: C_25  and  C_26
REMARK                            x       y       z     vdW  Elec       q    Type
REMARK                         _______ _______ _______ _____ _____    ______ ____
ROOT
ATOM      4  C   UNL     1      -4.475   1.927  24.808  0.00  0.00    +0.006 C 
ATOM      5  C   UNL     1      -4.530   1.159  24.513  0.00  0.00    +0.005 C 
ATOM      6  C   UNL     1      -4.026   0.911  23.910  0.00  0.00    +0.027 C 
ATOM     19  C   UNL     1      -3.466   1.431  23.601  0.00  0.00    -0.048 C 
ATOM     20  C   UNL     1      -2.961   1.183  22.997  0.00  0.00    +0.026 C 
ATOM     21  C   UNL     1      -3.410   2.200  23.896  0.00  0.00    -0.033 C 
ATOM     22  C   UNL     1      -3.914   2.448  24.499  0.00  0.00    +0.039 C 
ENDROOT
BRANCH   4   2
ATOM      1  C   UNL     1      -4.752   2.087  26.201  0.00  0.00    +0.000 C 
ATOM      2  C   UNL     1      -4.979   2.175  25.412  0.00  0.00    +0.000 C 
ATOM      3  C   UNL     1      -5.709   2.510  25.228  0.00  0.00    +0.000 C 
ENDBRANCH   4   2
BRANCH   6   7
ATOM      7  C   UNL     1      -4.082   0.142  23.615  0.00  0.00    +0.091 C 
BRANCH   7   8
ATOM      8  C   UNL     1      -3.776  -0.490  24.048  0.00  0.00    +0.227 A 
ATOM      9  N   UNL     1      -4.209  -1.007  24.523  0.00  0.00    -0.111 NA
ATOM     10  N   UNL     1      -3.684  -1.552  24.851  0.00  0.00    -0.106 NA
ATOM     11  C   UNL     1      -2.926  -1.372  24.580  0.00  0.00    +0.267 A 
ATOM     12  O   UNL     1      -2.983  -0.715  24.084  0.00  0.00    -0.418 OA
BRANCH  11  13
ATOM     13  C   UNL     1      -2.233  -1.776  24.771  0.00  0.00    +0.136 A 
ATOM     14  C   UNL     1      -1.978  -2.486  24.436  0.00  0.00    +0.123 A 
ATOM     15  N   UNL     1      -1.261  -2.690  24.788  0.00  0.00    -0.222 NA
ATOM     16  C   UNL     1      -1.073  -2.108  25.342  0.00  0.00    +0.179 A 
ATOM     17  N   UNL     1      -1.674  -1.543  25.331  0.00  0.00    -0.303 N 
ATOM     18  C   UNL     1      -1.709  -0.864  25.798  0.00  0.00    +0.132 C 
ENDBRANCH  11  13
ENDBRANCH   7   8
ENDBRANCH   6   7
BRANCH  22  23
ATOM     23  C   UNL     1      -3.858   3.216  24.794  0.00  0.00    +0.093 C 
BRANCH  23  24
ATOM     24  N   UNL     1      -3.178   3.662  24.659  0.00  0.00    -0.213 NA
BRANCH  24  25
ATOM     25  C   UNL     1      -2.904   4.182  25.238  0.00  0.00    +0.117 C 
BRANCH  25  26
ATOM     26  C   UNL     1      -2.155   4.523  25.165  0.00  0.00    +0.014 A 
ATOM     27  C   UNL     1      -1.480   4.050  25.211  0.00  0.00    +0.000 A 
ATOM     28  C   UNL     1      -0.733   4.391  25.139  0.00  0.00    +0.020 A 
ATOM     29  C   UNL     1      -0.660   5.205  25.020  0.00  0.00    +0.099 A 
ATOM     30  N   UNL     1      -1.335   5.677  24.975  0.00  0.00    -0.243 NA
ATOM     31  C   UNL     1      -2.083   5.336  25.047  0.00  0.00    +0.096 A 
ENDBRANCH  25  26
ENDBRANCH  24  25
ENDBRANCH  23  24
ENDBRANCH  22  23
TORSDOF 8
ENDMDL
MODEL 5
REMARK VINA RESULT:      -9.1      2.666      4.474
REMARK  Name = 
REMARK  8 active torsions:
REMARK  status: ('A' for Active; 'I' for Inactive)
REMARK    1  A    between atoms: C_2  and  C_4
REMARK    2  A    between atoms: C_6  and  C_7
REMARK    3  A    between atoms: C_7  and  C_8
REMARK    4  A    between atoms: C_11  and  C_13
REMARK    5  A    between atoms: C_22  and  C_23
REMARK    6  A    between atoms: C_23  and  N_24
REMARK    7  A    between atoms: N_24  and  C_25
REMARK    8  A    between atoms: C_25  and  C_26
REMARK                            x       y       z     vdW  Elec       q    Type
REMARK                         _______ _______ _______ _____ _____    ______ ____
ROOT
ATOM      4  C   UNL     1      -2.260   2.349  23.606  0.00  0.00    +0.006 C 
ATOM      5  C   UNL     1      -1.440   2.367  23.696  0.00  0.00    +0.005 C 
ATOM      6  C   UNL     1      -1.101   2.806  24.306  0.00  0.00    +0.027 C 
ATOM     19  C   UNL     1      -1.582   3.227  24.828  0.00  0.00    -0.048 C 
ATOM     20  C   UNL     1      -1.243   3.666  25.439  0.00  0.00    +0.026 C 
ATOM     21  C   UNL     1      -2.402   3.209  24.738  0.00  0.00    -0.033 C 
ATOM     22  C   UNL     1      -2.741   2.771  24.128  0.00  0.00    +0.039 C 
ENDROOT
BRANCH   4   2
ATOM      1  C   UNL     1      -2.827   1.129  23.128  0.00  0.00    +0.000 C 
ATOM      2  C   UNL     1      -2.599   1.910  22.995  0.00  0.00    +0.000 C 
ATOM      3  C   UNL     1      -2.709   2.253  22.254  0.00  0.00    +0.000 C 
ENDBRANCH   4   2
BRANCH   6   7
ATOM      7  C   UNL     1      -0.281   2.823  24.396  0.00  0.00    +0.091 C 
BRANCH   7   8
ATOM      8  C   UNL     1       0.157   2.127  24.329  0.00  0.00    +0.227 A 
ATOM      9  N   UNL     1       0.205   1.528  24.893  0.00  0.00    -0.111 NA
ATOM     10  N   UNL     1       0.701   0.938  24.598  0.00  0.00    -0.106 NA
ATOM     11  C   UNL     1       0.960   1.173  23.851  0.00  0.00    +0.267 A 
ATOM     12  O   UNL     1       0.624   1.908  23.684  0.00  0.00    -0.418 OA
BRANCH  11  13
ATOM     13  C   UNL     1       1.466   0.749  23.358  0.00  0.00    +0.136 A 
ATOM     14  C   UNL     1       2.248   0.945  23.180  0.00  0.00    +0.123 A 
ATOM     15  N   UNL     1       2.544   0.372  22.668  0.00  0.00    -0.222 NA
ATOM     16  C   UNL     1       1.947  -0.180  22.528  0.00  0.00    +0.179 A 
ATOM     17  N   UNL     1       1.281   0.053  22.955  0.00  0.00    -0.303 N 
ATOM     18  C   UNL     1       0.556  -0.340  22.975  0.00  0.00    +0.132 C 
ENDBRANCH  11  13
ENDBRANCH   7   8
ENDBRANCH   6   7
BRANCH  22  23
ATOM     23  C   UNL     1      -3.561   2.753  24.038  0.00  0.00    +0.093 C 
BRANCH  23  24
ATOM     24  N   UNL     1      -4.050   2.820  24.699  0.00  0.00    -0.213 NA
BRANCH  24  25
ATOM     25  C   UNL     1      -4.865   2.903  24.601  0.00  0.00    +0.117 C 
BRANCH  25  26
ATOM     26  C   UNL     1      -5.381   2.606  25.173  0.00  0.00    +0.014 A 
ATOM     27  C   UNL     1      -5.797   1.907  25.029  0.00  0.00    +0.000 A 
ATOM     28  C   UNL     1      -6.313   1.610  25.600  0.00  0.00    +0.020 A 
ATOM     29  C   UNL     1      -6.414   2.012  26.315  0.00  0.00    +0.099 A 
ATOM     30  N   UNL     1      -5.998   2.710  26.457  0.00  0.00    -0.243 NA
ATOM     31  C   UNL     1      -5.482   3.007  25.886  0.00  0.00    +0.096 A 
ENDBRANCH  25  26
ENDBRANCH  24  25
ENDBRANCH  23  24
ENDBRANCH  22  23
TORSDOF 8
ENDMDL
MODEL 6
REMARK VINA RESULT:      -9.1      2.121      6.156
REMARK  Name = 
REMARK  8 active torsions:
REMARK  status: ('A' for Active; 'I' for Inactive)
REMARK    1  A    between atoms: C_2  and  C_4
REMARK    2  A    between atoms: C_6  and  C_7
REMARK    3  A    between atoms: C_7  and  C_8
REMARK    4  A    between atoms: C_11  and  C_13
REMARK    5  A    between atoms: C_22  and  C_23
REMARK    6  A    between atoms: C_23  and  N_24
REMARK    7  A    between atoms: N_24  and  C_25
REMARK    8  A    between atoms: C_25  and  C_26
REMARK                            x       y       z     vdW  Elec       q    Type
REMARK                         _______ _______ _______ _____ _____    ______ ____
ROOT
ATOM      4  C   UNL     1      -0.327   0.504  24.421  0.00  0.00    +0.006 C 
ATOM      5  C   UNL     1      -0.465  -0.299  24.552  0.00  0.00    +0.005 C 
ATOM      6  C   UNL     1      -0.767  -0.553  25.275  0.00  0.00    +0.027 C 
ATOM     19  C   UNL     1      -0.932  -0.005  25.869  0.00  0.00    -0.048 C 
ATOM     20  C   UNL     1      -1.235  -0.259  26.593  0.00  0.00    +0.026 C 
ATOM     21  C   UNL     1      -0.795   0.799  25.738  0.00  0.00    -0.033 C 
ATOM     22  C   UNL     1      -0.492   1.053  25.015  0.00  0.00    +0.039 C 
ENDROOT
BRANCH   4   2
ATOM      1  C   UNL     1      -0.538   0.988  23.093  0.00  0.00    +0.000 C 
ATOM      2  C   UNL     1      -0.024   0.758  23.697  0.00  0.00    +0.000 C 
ATOM      3  C   UNL     1       0.791   0.782  23.576  0.00  0.00    +0.000 C 
ENDBRANCH   4   2
BRANCH   6   7
ATOM      7  C   UNL     1      -0.905  -1.356  25.406  0.00  0.00    +0.091 C 
BRANCH   7   8
ATOM      8  C   UNL     1      -1.430  -1.769  24.922  0.00  0.00    +0.227 A 
ATOM      9  N   UNL     1      -1.224  -2.308  24.332  0.00  0.00    -0.111 NA
ATOM     10  N   UNL     1      -1.921  -2.588  23.988  0.00  0.00    -0.106 NA
ATOM     11  C   UNL     1      -2.556  -2.221  24.365  0.00  0.00    +0.267 A 
ATOM     12  O   UNL     1      -2.253  -1.715  24.942  0.00  0.00    -0.418 OA
BRANCH  11  13
ATOM     13  C   UNL     1      -3.355  -2.340  24.195  0.00  0.00    +0.136 A 
ATOM     14  C   UNL     1      -3.767  -3.050  24.275  0.00  0.00    +0.123 A 
ATOM     15  N   UNL     1      -4.548  -2.918  24.045  0.00  0.00    -0.222 NA
ATOM     16  C   UNL     1      -4.619  -2.126  23.822  0.00  0.00    +0.179 A 
ATOM     17  N   UNL     1      -3.881  -1.769  23.915  0.00  0.00    -0.303 N 
ATOM     18  C   UNL     1      -3.701  -0.980  23.757  0.00  0.00    +0.132 C 
ENDBRANCH  11  13
ENDBRANCH   7   8
ENDBRANCH   6   7
BRANCH  22  23
ATOM     23  C   UNL     1      -0.355   1.855  24.884  0.00  0.00    +0.093 C 
BRANCH  23  24
ATOM     24  N   UNL     1      -0.823   2.421  25.259  0.00  0.00    -0.213 NA
BRANCH  24  25
ATOM     25  C   UNL     1      -0.530   3.182  25.384  0.00  0.00    +0.117 C 
BRANCH  25  26
ATOM     26  C   UNL     1      -1.041   3.830  25.363  0.00  0.00    +0.014 A 
ATOM     27  C   UNL     1      -0.805   4.529  24.993  0.00  0.00    +0.000 A 
ATOM     28  C   UNL     1      -1.315   5.177  24.972  0.00  0.00    +0.020 A 
ATOM     29  C   UNL     1      -2.062   5.125  25.321  0.00  0.00    +0.099 A 
ATOM     30  N   UNL     1      -2.297   4.426  25.690  0.00  0.00    -0.243 NA
ATOM     31  C   UNL     1      -1.786   3.778  25.711  0.00  0.00    +0.096 A 
ENDBRANCH  25  26
ENDBRANCH  24  25
ENDBRANCH  23  24
ENDBRANCH  22  23
TORSDOF 8
ENDMDL
MODEL 7
REMARK VINA RESULT:      -8.8      3.439      5.156
REMARK  Name = 
REMARK  8 active torsions:
REMARK  status: ('A' for Active; 'I' for Inactive)
REMARK    1  A    between atoms: C_2  and  C_4
REMARK    2  A    between atoms: C_6  and  C_7
REMARK    3  A    between atoms: C_7  and  C_8
REMARK    4  A    between atoms: C_11  and  C_13
REMARK    5  A    between atoms: C_22  and  C_23
REMARK    6  A    between atoms: C_23  and  N_24
REMARK    7  A    between atoms: N_24  and  C_25
REMARK    8  A    between atoms: C_25  and  C_26
REMARK                            x       y       z     vdW  Elec       q    Type
REMARK                         _______ _______ _______ _____ _____    ______ ____
ROOT
ATOM      4  C   UNL     1      -0.837   1.751  24.659  0.00  0.00    +0.006 C 
ATOM      5  C   UNL     1      -0.291   1.155  24.497  0.00  0.00    +0.005 C 
ATOM      6  C   UNL     1      -0.552   0.392  24.328  0.00  0.00    +0.027 C 
ATOM     19  C   UNL     1      -1.359   0.223  24.321  0.00  0.00    -0.048 C 
ATOM     20  C   UNL     1      -1.620  -0.541  24.152  0.00  0.00    +0.026 C 
ATOM     21  C   UNL     1      -1.906   0.820  24.483  0.00  0.00    -0.033 C 
ATOM     22  C   UNL     1      -1.645   1.583  24.652  0.00  0.00    +0.039 C 
ENDROOT
BRANCH   4   2
ATOM      1  C   UNL     1      -0.365   2.718  25.600  0.00  0.00    +0.000 C 
ATOM      2  C   UNL     1      -0.576   2.515  24.828  0.00  0.00    +0.000 C 
ATOM      3  C   UNL     1      -0.525   3.076  24.226  0.00  0.00    +0.000 C 
ENDBRANCH   4   2
BRANCH   6   7
ATOM      7  C   UNL     1      -0.005  -0.205  24.166  0.00  0.00    +0.091 C 
BRANCH   7   8
ATOM      8  C   UNL     1       0.589  -0.080  23.607  0.00  0.00    +0.227 A 
ATOM      9  N   UNL     1       0.516  -0.175  22.792  0.00  0.00    -0.111 NA
ATOM     10  N   UNL     1       1.243   0.008  22.447  0.00  0.00    -0.106 NA
ATOM     11  C   UNL     1       1.766   0.217  23.050  0.00  0.00    +0.267 A 
ATOM     12  O   UNL     1       1.362   0.163  23.767  0.00  0.00    -0.418 OA
BRANCH  11  13
ATOM     13  C   UNL     1       2.553   0.441  22.953  0.00  0.00    +0.136 A 
ATOM     14  C   UNL     1       2.830   1.214  22.862  0.00  0.00    +0.123 A 
ATOM     15  N   UNL     1       3.650   1.182  22.783  0.00  0.00    -0.222 NA
ATOM     16  C   UNL     1       3.881   0.391  22.824  0.00  0.00    +0.179 A 
ATOM     17  N   UNL     1       3.203  -0.067  22.929  0.00  0.00    -0.303 N 
ATOM     18  C   UNL     1       3.179  -0.888  22.998  0.00  0.00    +0.132 C 
ENDBRANCH  11  13
ENDBRANCH   7   8
ENDBRANCH   6   7
BRANCH  22  23
ATOM     23  C   UNL     1      -2.191   2.180  24.814  0.00  0.00    +0.093 C 
BRANCH  23  24
ATOM     24  N   UNL     1      -2.996   2.004  24.852  0.00  0.00    -0.213 NA
BRANCH  24  25
ATOM     25  C   UNL     1      -3.554   2.595  24.714  0.00  0.00    +0.117 C 
BRANCH  25  26
ATOM     26  C   UNL     1      -4.325   2.510  24.998  0.00  0.00    +0.014 A 
ATOM     27  C   UNL     1      -4.829   1.950  24.661  0.00  0.00    +0.000 A 
ATOM     28  C   UNL     1      -5.599   1.865  24.945  0.00  0.00    +0.020 A 
ATOM     29  C   UNL     1      -5.865   2.339  25.567  0.00  0.00    +0.099 A 
ATOM     30  N   UNL     1      -5.360   2.898  25.903  0.00  0.00    -0.243 NA
ATOM     31  C   UNL     1      -4.590   2.983  25.619  0.00  0.00    +0.096 A 
ENDBRANCH  25  26
ENDBRANCH  24  25
ENDBRANCH  23  24
ENDBRANCH  22  23
TORSDOF 8
ENDMDL
MODEL 8
REMARK VINA RESULT:      -8.8      3.348      5.291
REMARK  Name = 
REMARK  8 active torsions:
REMARK  status: ('A' for Active; 'I' for Inactive)
REMARK    1  A    between atoms: C_2  and  C_4
REMARK    2  A    between atoms: C_6  and  C_7
REMARK    3  A    between atoms: C_7  and  C_8
REMARK    4  A    between atoms: C_11  and  C_13
REMARK    5  A    between atoms: C_22  and  C_23
REMARK    6  A    between atoms: C_23  and  N_24
REMARK    7  A    between atoms: N_24  and  C_25
REMARK    8  A    between atoms: C_25  and  C_26
REMARK                            x       y       z     vdW  Elec       q    Type
REMARK                         _______ _______ _______ _____ _____    ______ ____
ROOT
ATOM      4  C   UNL     1      -0.537   0.999  24.240  0.00  0.00    +0.006 C 
ATOM      5  C   UNL     1      -1.221   0.750  24.628  0.00  0.00    +0.005 C 
ATOM      6  C   UNL     1      -1.395  -0.054  24.683  0.00  0.00    +0.027 C 
ATOM     19  C   UNL     1      -0.885  -0.610  24.350  0.00  0.00    -0.048 C 
ATOM     20  C   UNL     1      -1.059  -1.415  24.405  0.00  0.00    +0.026 C 
ATOM     21  C   UNL     1      -0.200  -0.361  23.961  0.00  0.00    -0.033 C 
ATOM     22  C   UNL     1      -0.027   0.443  23.906  0.00  0.00    +0.039 C 
ENDROOT
BRANCH   4   2
ATOM      1  C   UNL     1      -0.621   2.237  23.532  0.00  0.00    +0.000 C 
ATOM      2  C   UNL     1      -0.364   1.804  24.185  0.00  0.00    +0.000 C 
ATOM      3  C   UNL     1       0.067   2.174  24.783  0.00  0.00    +0.000 C 
ENDBRANCH   4   2
BRANCH   6   7
ATOM      7  C   UNL     1      -2.079  -0.303  25.072  0.00  0.00    +0.091 C 
BRANCH   7   8
ATOM      8  C   UNL     1      -2.816  -0.021  24.831  0.00  0.00    +0.227 A 
ATOM      9  N   UNL     1      -3.251  -0.290  24.184  0.00  0.00    -0.111 NA
ATOM     10  N   UNL     1      -3.952   0.144  24.149  0.00  0.00    -0.106 NA
ATOM     11  C   UNL     1      -3.950   0.682  24.774  0.00  0.00    +0.267 A 
ATOM     12  O   UNL     1      -3.248   0.580  25.197  0.00  0.00    -0.418 OA
BRANCH  11  13
ATOM     13  C   UNL     1      -4.545   1.226  24.947  0.00  0.00    +0.136 A 
ATOM     14  C   UNL     1      -5.160   1.117  25.487  0.00  0.00    +0.123 A 
ATOM     15  N   UNL     1      -5.625   1.798  25.484  0.00  0.00    -0.222 NA
ATOM     16  C   UNL     1      -5.298   2.329  24.945  0.00  0.00    +0.179 A 
ATOM     17  N   UNL     1      -4.630   1.975  24.612  0.00  0.00    -0.303 N 
ATOM     18  C   UNL     1      -4.135   2.312  24.045  0.00  0.00    +0.132 C 
ENDBRANCH  11  13
ENDBRANCH   7   8
ENDBRANCH   6   7
BRANCH  22  23
ATOM     23  C   UNL     1       0.657   0.692  23.518  0.00  0.00    +0.093 C 
BRANCH  23  24
ATOM     24  N   UNL     1       1.277   0.162  23.392  0.00  0.00    -0.213 NA
BRANCH  24  25
ATOM     25  C   UNL     1       1.765   0.249  22.734  0.00  0.00    +0.117 C 
BRANCH  25  26
ATOM     26  C   UNL     1       2.586   0.221  22.823  0.00  0.00    +0.014 A 
ATOM     27  C   UNL     1       3.033   0.911  22.747  0.00  0.00    +0.000 A 
ATOM     28  C   UNL     1       3.852   0.883  22.836  0.00  0.00    +0.020 A 
ATOM     29  C   UNL     1       4.226   0.166  23.000  0.00  0.00    +0.099 A 
ATOM     30  N   UNL     1       3.778  -0.523  23.076  0.00  0.00    -0.243 NA
ATOM     31  C   UNL     1       2.959  -0.495  22.987  0.00  0.00    +0.096 A 
ENDBRANCH  25  26
ENDBRANCH  24  25
ENDBRANCH  23  24
ENDBRANCH  22  23
TORSDOF 8
ENDMDL
MODEL 9
REMARK VINA RESULT:      -8.8      2.916      5.001
REMARK  Name = 
REMARK  8 active torsions:
REMARK  status: ('A' for Active; 'I' for Inactive)
REMARK    1  A    between atoms: C_2  and  C_4
REMARK    2  A    between atoms: C_6  and  C_7
REMARK    3  A    between atoms: C_7  and  C_8
REMARK    4  A    between atoms: C_11  and  C_13
REMARK    5  A    between atoms: C_22  and  C_23
REMARK    6  A    between atoms: C_23  and  N_24
REMARK    7  A    between atoms: N_24  and  C_25
REMARK    8  A    between atoms: C_25  and  C_26
REMARK                            x       y       z     vdW  Elec       q    Type
REMARK                         _______ _______ _______ _____ _____    ______ ____
ROOT
ATOM      4  C   UNL     1      -2.807  -0.113  24.840  0.00  0.00    +0.006 C 
ATOM      5  C   UNL     1      -2.010  -0.295  24.945  0.00  0.00    +0.005 C 
ATOM      6  C   UNL     1      -1.462   0.308  25.067  0.00  0.00    +0.027 C 
ATOM     19  C   UNL     1      -1.710   1.094  25.084  0.00  0.00    -0.048 C 
ATOM     20  C   UNL     1      -1.161   1.698  25.207  0.00  0.00    +0.026 C 
ATOM     21  C   UNL     1      -2.508   1.277  24.979  0.00  0.00    -0.033 C 
ATOM     22  C   UNL     1      -3.056   0.674  24.857  0.00  0.00    +0.039 C 
ENDROOT
BRANCH   4   2
ATOM      1  C   UNL     1      -3.610  -0.894  23.952  0.00  0.00    +0.000 C 
ATOM      2  C   UNL     1      -3.356  -0.717  24.717  0.00  0.00    +0.000 C 
ATOM      3  C   UNL     1      -3.650  -1.143  25.359  0.00  0.00    +0.000 C 
ENDBRANCH   4   2
BRANCH   6   7
ATOM      7  C   UNL     1      -0.663   0.125  25.172  0.00  0.00    +0.091 C 
BRANCH   7   8
ATOM      8  C   UNL     1      -0.243  -0.250  24.570  0.00  0.00    +0.227 A 
ATOM      9  N   UNL     1      -0.160  -1.065  24.471  0.00  0.00    -0.111 NA
ATOM     10  N   UNL     1       0.303  -1.195  23.800  0.00  0.00    -0.106 NA
ATOM     11  C   UNL     1       0.506  -0.460  23.485  0.00  0.00    +0.267 A 
ATOM     12  O   UNL     1       0.169   0.124  23.960  0.00  0.00    -0.418 OA
BRANCH  11  13
ATOM     13  C   UNL     1       0.966  -0.332  22.812  0.00  0.00    +0.136 A 
ATOM     14  C   UNL     1       0.755  -0.521  22.037  0.00  0.00    +0.123 A 
ATOM     15  N   UNL     1       1.375  -0.298  21.543  0.00  0.00    -0.222 NA
ATOM     16  C   UNL     1       1.971   0.029  22.010  0.00  0.00    +0.179 A 
ATOM     17  N   UNL     1       1.718   0.008  22.796  0.00  0.00    -0.303 N 
ATOM     18  C   UNL     1       2.142   0.279  23.449  0.00  0.00    +0.132 C 
ENDBRANCH  11  13
ENDBRANCH   7   8
ENDBRANCH   6   7
BRANCH  22  23
ATOM     23  C   UNL     1      -3.854   0.856  24.752  0.00  0.00    +0.093 C 
BRANCH  23  24
ATOM     24  N   UNL     1      -4.124   1.623  24.890  0.00  0.00    -0.213 NA
BRANCH  24  25
ATOM     25  C   UNL     1      -4.928   1.794  24.826  0.00  0.00    +0.117 C 
BRANCH  25  26
ATOM     26  C   UNL     1      -5.225   2.503  25.129  0.00  0.00    +0.014 A 
ATOM     27  C   UNL     1      -4.916   3.223  24.869  0.00  0.00    +0.000 A 
ATOM     28  C   UNL     1      -5.212   3.931  25.172  0.00  0.00    +0.020 A 
ATOM     29  C   UNL     1      -5.817   3.919  25.734  0.00  0.00    +0.099 A 
ATOM     30  N   UNL     1      -6.125   3.198  25.992  0.00  0.00    -0.243 NA
ATOM     31  C   UNL     1      -5.829   2.490  25.690  0.00  0.00    +0.096 A 
ENDBRANCH  25  26
ENDBRANCH  24  25
ENDBRANCH  23  24
ENDBRANCH  22  23
TORSDOF 8
ENDMDL
MODEL 10
REMARK VINA RESULT:      -8.6      1.904      5.697
REMARK  Name = 
REMARK  8 active torsions:
REMARK  status: ('A' for Active; 'I' for Inactive)
REMARK    1  A    between atoms: C_2  and  C_4
REMARK    2  A    between atoms: C_6  and  C_7
REMARK    3  A    between atoms: C_7  and  C_8
REMARK    4  A    between atoms: C_11  and  C_13
REMARK    5  A    between atoms: C_22  and  C_23
REMARK    6  A    between atoms: C_23  and  N_24
REMARK    7  A    between atoms: N_24  and  C_25
REMARK    8  A    between atoms: C_25  and  C_26
REMARK                            x       y       z     vdW  Elec       q    Type
REMARK                         _______ _______ _______ _____ _____    ______ ____
ROOT
ATOM      4  C   UNL     1      -0.601   1.917  25.212  0.00  0.00    +0.006 C 
ATOM      5  C   UNL     1      -0.352   1.170  24.965  0.00  0.00    +0.005 C 
ATOM      6  C   UNL     1      -0.606   0.870  24.241  0.00  0.00    +0.027 C 
ATOM     19  C   UNL     1      -1.109   1.315  23.762  0.00  0.00    -0.048 C 
ATOM     20  C   UNL     1      -1.363   1.014  23.037  0.00  0.00    +0.026 C 
ATOM     21  C   UNL     1      -1.358   2.062  24.009  0.00  0.00    -0.033 C 
ATOM     22  C   UNL     1      -1.105   2.363  24.733  0.00  0.00    +0.039 C 
ENDROOT
BRANCH   4   2
ATOM      1  C   UNL     1      -0.721   1.983  26.634  0.00  0.00    +0.000 C 
ATOM      2  C   UNL     1      -0.347   2.218  25.937  0.00  0.00    +0.000 C 
ATOM      3  C   UNL     1       0.280   2.752  25.964  0.00  0.00    +0.000 C 
ENDBRANCH   4   2
BRANCH   6   7
ATOM      7  C   UNL     1      -0.357   0.122  23.994  0.00  0.00    +0.091 C 
BRANCH   7   8
ATOM      8  C   UNL     1      -0.670  -0.555  24.346  0.00  0.00    +0.227 A 
ATOM      9  N   UNL     1      -0.278  -1.052  24.874  0.00  0.00    -0.111 NA
ATOM     10  N   UNL     1      -0.796  -1.658  25.087  0.00  0.00    -0.106 NA
ATOM     11  C   UNL     1      -1.509  -1.535  24.691  0.00  0.00    +0.267 A 
ATOM     12  O   UNL     1      -1.431  -0.853  24.232  0.00  0.00    -0.418 OA
BRANCH  11  13
ATOM     13  C   UNL     1      -2.181  -2.010  24.742  0.00  0.00    +0.136 A 
ATOM     14  C   UNL     1      -2.317  -2.707  24.322  0.00  0.00    +0.123 A 
ATOM     15  N   UNL     1      -3.055  -2.998  24.543  0.00  0.00    -0.222 NA
ATOM     16  C   UNL     1      -3.377  -2.483  25.101  0.00  0.00    +0.179 A 
ATOM     17  N   UNL     1      -2.837  -1.871  25.224  0.00  0.00    -0.303 N 
ATOM     18  C   UNL     1      -2.935  -1.234  25.738  0.00  0.00    +0.132 C 
ENDBRANCH  11  13
ENDBRANCH   7   8
ENDBRANCH   6   7
BRANCH  22  23
ATOM     23  C   UNL     1      -1.353   3.110  24.980  0.00  0.00    +0.093 C 
BRANCH  23  24
ATOM     24  N   UNL     1      -2.069   3.417  24.710  0.00  0.00    -0.213 NA
BRANCH  24  25
ATOM     25  C   UNL     1      -2.478   3.970  25.164  0.00  0.00    +0.117 C 
BRANCH  25  26
ATOM     26  C   UNL     1      -3.300   3.923  25.230  0.00  0.00    +0.014 A 
ATOM     27  C   UNL     1      -3.768   3.902  24.550  0.00  0.00    +0.000 A 
ATOM     28  C   UNL     1      -4.589   3.856  24.615  0.00  0.00    +0.020 A 
ATOM     29  C   UNL     1      -4.943   3.830  25.361  0.00  0.00    +0.099 A 
ATOM     30  N   UNL     1      -4.475   3.851  26.040  0.00  0.00    -0.243 NA
ATOM     31  C   UNL     1      -3.654   3.898  25.974  0.00  0.00    +0.096 A 
ENDBRANCH  25  26
ENDBRANCH  24  25
ENDBRANCH  23  24
ENDBRANCH  22  23
TORSDOF 8
ENDMDL
