MODEL 1
REMARK VINA RESULT:     -10.1      0.000      0.000
REMARK  Name = 
REMARK  4 active torsions:
REMARK  status: ('A' for Active; 'I' for Inactive)
REMARK    1  A    between atoms: S_2  and  C_3
REMARK    2  A    between atoms: C_6  and  C_9
REMARK    3  A    between atoms: C_17  and  N_25
REMARK    4  A    between atoms: C_26  and  C_28
REMARK                            x       y       z     vdW  Elec       q    Type
REMARK                         _______ _______ _______ _____ _____    ______ ____
ROOT
ATOM      9  C   UNL     1      -2.432   2.009  24.627  0.00  0.00    +0.000 A 
ATOM     10  C   UNL     1      -1.981   2.644  24.897  0.00  0.00    +0.001 A 
ATOM     11  C   UNL     1      -1.163   2.644  24.791  0.00  0.00    +0.017 A 
ATOM     12  C   UNL     1      -0.796   2.009  24.415  0.00  0.00    +0.078 A 
ATOM     13  N   UNL     1       0.020   2.118  24.366  0.00  0.00    -0.178 NA
ATOM     14  C   UNL     1       0.587   1.619  24.034  0.00  0.00    +0.265 C 
ATOM     15  O   UNL     1       1.366   1.887  24.072  0.00  0.00    -0.271 OA
ATOM     16  C   UNL     1       0.478   0.887  23.669  0.00  0.00    +0.174 C 
ATOM     17  C   UNL     1       1.095   0.438  23.357  0.00  0.00    +0.124 C 
ATOM     18  C   UNL     1       0.774  -0.253  23.041  0.00  0.00    +0.045 C 
ATOM     19  C   UNL     1      -0.042  -0.231  23.158  0.00  0.00    +0.096 C 
ATOM     20  N   UNL     1      -0.225   0.474  23.546  0.00  0.00    -0.268 N 
ATOM     21  C   UNL     1      -0.992   0.690  23.758  0.00  0.00    +0.251 C 
ATOM     22  O   UNL     1      -1.584   0.152  23.556  0.00  0.00    -0.270 OA
ATOM     23  C   UNL     1      -1.246   1.373  24.144  0.00  0.00    +0.069 A 
ATOM     24  C   UNL     1      -2.064   1.373  24.250  0.00  0.00    +0.006 A 
ENDROOT
BRANCH   9   6
ATOM      3  C   UNL     1      -4.887   2.006  24.945  0.00  0.00    +0.025 A 
ATOM      4  C   UNL     1      -4.430   1.390  25.248  0.00  0.00    +0.006 A 
ATOM      5  C   UNL     1      -3.612   1.391  25.142  0.00  0.00    +0.001 A 
ATOM      6  C   UNL     1      -3.251   2.008  24.733  0.00  0.00    +0.000 A 
ATOM      7  C   UNL     1      -3.706   2.625  24.429  0.00  0.00    +0.001 A 
ATOM      8  C   UNL     1      -4.524   2.624  24.535  0.00  0.00    +0.006 A 
BRANCH   3   2
ATOM      1  C   UNL     1      -6.033   2.346  25.726  0.00  0.00    +0.074 C 
ATOM      2  S   UNL     1      -5.705   2.005  25.051  0.00  0.00    -0.113 S 
ENDBRANCH   3   2
ENDBRANCH   9   6
BRANCH  17  25
ATOM     25  N   UNL     1       1.895   0.645  23.360  0.00  0.00    -0.205 NA
ATOM     26  C   UNL     1       2.430   0.227  22.892  0.00  0.00    +0.241 C 
ATOM     27  O   UNL     1       2.167  -0.397  22.420  0.00  0.00    -0.273 OA
BRANCH  26  28
ATOM     28  C   UNL     1       3.229   0.433  22.895  0.00  0.00    +0.078 C 
ATOM     29  C   UNL     1       3.566   1.077  22.504  0.00  0.00    +0.009 C 
ATOM     30  C   UNL     1       4.377   1.073  22.658  0.00  0.00    +0.001 C 
ATOM     31  C   UNL     1       4.541   0.427  23.143  0.00  0.00    +0.001 C 
ATOM     32  C   UNL     1       3.832   0.031  23.291  0.00  0.00    +0.009 C 
ENDBRANCH  26  28
ENDBRANCH  17  25
TORSDOF 4
ENDMDL
MODEL 2
REMARK VINA RESULT:     -10.0      2.220      6.430
REMARK  Name = 
REMARK  4 active torsions:
REMARK  status: ('A' for Active; 'I' for Inactive)
REMARK    1  A    between atoms: S_2  and  C_3
REMARK    2  A    between atoms: C_6  and  C_9
REMARK    3  A    between atoms: C_17  and  N_25
REMARK    4  A    between atoms: C_26  and  C_28
REMARK                            x       y       z     vdW  Elec       q    Type
REMARK                         _______ _______ _______ _____ _____    ______ ____
ROOT
ATOM      9  C   UNL     1       0.324   0.382  23.575  0.00  0.00    +0.000 A 
ATOM     10  C   UNL     1      -0.001  -0.296  23.914  0.00  0.00    +0.001 A 
ATOM     11  C   UNL     1      -0.765  -0.276  24.225  0.00  0.00    +0.017 A 
ATOM     12  C   UNL     1      -1.203   0.421  24.197  0.00  0.00    +0.078 A 
ATOM     13  N   UNL     1      -1.949   0.323  24.537  0.00  0.00    -0.178 NA
ATOM     14  C   UNL     1      -2.554   0.877  24.621  0.00  0.00    +0.265 C 
ATOM     15  O   UNL     1      -3.240   0.605  24.988  0.00  0.00    -0.271 OA
ATOM     16  C   UNL     1      -2.562   1.668  24.386  0.00  0.00    +0.174 C 
ATOM     17  C   UNL     1      -3.207   2.169  24.503  0.00  0.00    +0.124 C 
ATOM     18  C   UNL     1      -3.012   2.911  24.199  0.00  0.00    +0.045 C 
ATOM     19  C   UNL     1      -2.246   2.868  23.894  0.00  0.00    +0.096 C 
ATOM     20  N   UNL     1      -1.968   2.099  24.010  0.00  0.00    -0.268 N 
ATOM     21  C   UNL     1      -1.220   1.846  23.775  0.00  0.00    +0.251 C 
ATOM     22  O   UNL     1      -0.749   2.415  23.408  0.00  0.00    -0.270 OA
ATOM     23  C   UNL     1      -0.879   1.100  23.858  0.00  0.00    +0.069 A 
ATOM     24  C   UNL     1      -0.116   1.080  23.547  0.00  0.00    +0.006 A 
ENDROOT
BRANCH   9   6
ATOM      3  C   UNL     1       2.615   0.324  22.639  0.00  0.00    +0.025 A 
ATOM      4  C   UNL     1       2.029  -0.169  22.330  0.00  0.00    +0.006 A 
ATOM      5  C   UNL     1       1.266  -0.149  22.642  0.00  0.00    +0.001 A 
ATOM      6  C   UNL     1       1.088   0.363  23.263  0.00  0.00    +0.000 A 
ATOM      7  C   UNL     1       1.672   0.855  23.573  0.00  0.00    +0.001 A 
ATOM      8  C   UNL     1       2.435   0.836  23.261  0.00  0.00    +0.006 A 
BRANCH   3   2
ATOM      1  C   UNL     1       4.012   0.592  22.770  0.00  0.00    +0.074 C 
ATOM      2  S   UNL     1       3.378   0.304  22.327  0.00  0.00    -0.113 S 
ENDBRANCH   3   2
ENDBRANCH   9   6
BRANCH  17  25
ATOM     25  N   UNL     1      -3.922   1.965  24.862  0.00  0.00    -0.205 NA
ATOM     26  C   UNL     1      -4.548   2.502  24.868  0.00  0.00    +0.241 C 
ATOM     27  O   UNL     1      -4.460   3.244  24.517  0.00  0.00    -0.273 OA
BRANCH  26  28
ATOM     28  C   UNL     1      -5.263   2.298  25.227  0.00  0.00    +0.078 C 
ATOM     29  C   UNL     1      -5.861   1.840  24.890  0.00  0.00    +0.009 C 
ATOM     30  C   UNL     1      -6.472   1.775  25.441  0.00  0.00    +0.001 C 
ATOM     31  C   UNL     1      -6.252   2.192  26.117  0.00  0.00    +0.001 C 
ATOM     32  C   UNL     1      -5.504   2.516  25.985  0.00  0.00    +0.009 C 
ENDBRANCH  26  28
ENDBRANCH  17  25
TORSDOF 4
ENDMDL
MODEL 3
REMARK VINA RESULT:      -7.5      2.993      4.784
REMARK  Name = 
REMARK  4 active torsions:
REMARK  status: ('A' for Active; 'I' for Inactive)
REMARK    1  A    between atoms: S_2  and  C_3
REMARK    2  A    between atoms: C_6  and  C_9
REMARK    3  A    between atoms: C_17  and  N_25
REMARK    4  A    between atoms: C_26  and  C_28
REMARK                            x       y       z     vdW  Elec       q    Type
REMARK                         _______ _______ _______ _____ _____    ______ ____
ROOT
ATOM      9  C   UNL     1      -3.669  -0.609  24.495  0.00  0.00    +0.000 A 
ATOM     10  C   UNL     1      -4.332  -0.122  24.550  0.00  0.00    +0.001 A 
ATOM     11  C   UNL     1      -4.240   0.695  24.616  0.00  0.00    +0.017 A 
ATOM     12  C   UNL     1      -3.485   1.025  24.628  0.00  0.00    +0.078 A 
ATOM     13  N   UNL     1      -3.515   1.847  24.698  0.00  0.00    -0.178 NA
ATOM     14  C   UNL     1      -2.891   2.385  24.730  0.00  0.00    +0.265 C 
ATOM     15  O   UNL     1      -3.105   3.178  24.801  0.00  0.00    -0.271 OA
ATOM     16  C   UNL     1      -2.080   2.233  24.700  0.00  0.00    +0.174 C 
ATOM     17  C   UNL     1      -1.506   2.824  24.737  0.00  0.00    +0.124 C 
ATOM     18  C   UNL     1      -0.766   2.464  24.691  0.00  0.00    +0.045 C 
ATOM     19  C   UNL     1      -0.882   1.650  24.625  0.00  0.00    +0.096 C 
ATOM     20  N   UNL     1      -1.695   1.507  24.631  0.00  0.00    -0.268 N 
ATOM     21  C   UNL     1      -2.024   0.754  24.574  0.00  0.00    +0.251 C 
ATOM     22  O   UNL     1      -1.486   0.132  24.511  0.00  0.00    -0.270 OA
ATOM     23  C   UNL     1      -2.821   0.539  24.573  0.00  0.00    +0.069 A 
ATOM     24  C   UNL     1      -2.913  -0.278  24.506  0.00  0.00    +0.006 A 
ENDROOT
BRANCH   9   6
ATOM      3  C   UNL     1      -3.944  -3.061  24.294  0.00  0.00    +0.025 A 
ATOM      4  C   UNL     1      -4.250  -2.561  23.712  0.00  0.00    +0.006 A 
ATOM      5  C   UNL     1      -4.158  -1.744  23.780  0.00  0.00    +0.001 A 
ATOM      6  C   UNL     1      -3.760  -1.426  24.428  0.00  0.00    +0.000 A 
ATOM      7  C   UNL     1      -3.454  -1.924  25.009  0.00  0.00    +0.001 A 
ATOM      8  C   UNL     1      -3.546  -2.741  24.942  0.00  0.00    +0.006 A 
BRANCH   3   2
ATOM      1  C   UNL     1      -3.599  -4.296  23.665  0.00  0.00    +0.074 C 
ATOM      2  S   UNL     1      -4.036  -3.878  24.226  0.00  0.00    -0.113 S 
ENDBRANCH   3   2
ENDBRANCH   9   6
BRANCH  17  25
ATOM     25  N   UNL     1      -1.648   3.635  24.809  0.00  0.00    -0.205 NA
ATOM     26  C   UNL     1      -1.015   4.163  24.840  0.00  0.00    +0.241 C 
ATOM     27  O   UNL     1      -0.240   3.882  24.799  0.00  0.00    -0.273 OA
BRANCH  26  28
ATOM     28  C   UNL     1      -1.157   4.973  24.911  0.00  0.00    +0.078 C 
ATOM     29  C   UNL     1      -0.706   5.576  24.573  0.00  0.00    +0.009 C 
ATOM     30  C   UNL     1      -1.046   6.297  24.786  0.00  0.00    +0.001 C 
ATOM     31  C   UNL     1      -1.706   6.140  25.255  0.00  0.00    +0.001 C 
ATOM     32  C   UNL     1      -1.775   5.321  25.332  0.00  0.00    +0.009 C 
ENDBRANCH  26  28
ENDBRANCH  17  25
TORSDOF 4
ENDMDL
MODEL 4
REMARK VINA RESULT:      -7.1     15.047     16.753
REMARK  Name = 
REMARK  4 active torsions:
REMARK  status: ('A' for Active; 'I' for Inactive)
REMARK    1  A    between atoms: S_2  and  C_3
REMARK    2  A    between atoms: C_6  and  C_9
REMARK    3  A    between atoms: C_17  and  N_25
REMARK    4  A    between atoms: C_26  and  C_28
REMARK                            x       y       z     vdW  Elec       q    Type
REMARK                         _______ _______ _______ _____ _____    ______ ____
ROOT
ATOM      9  C   UNL     1      -4.724 -10.089  11.944  0.00  0.00    +0.000 A 
ATOM     10  C   UNL     1      -3.991 -10.307  12.253  0.00  0.00    +0.001 A 
ATOM     11  C   UNL     1      -3.905 -10.426  13.065  0.00  0.00    +0.017 A 
ATOM     12  C   UNL     1      -4.551 -10.327  13.567  0.00  0.00    +0.078 A 
ATOM     13  N   UNL     1      -4.346 -10.472  14.354  0.00  0.00    -0.178 NA
ATOM     14  C   UNL     1      -4.824 -10.435  15.025  0.00  0.00    +0.265 C 
ATOM     15  O   UNL     1      -4.453 -10.612  15.739  0.00  0.00    -0.271 OA
ATOM     16  C   UNL     1      -5.625 -10.243  15.076  0.00  0.00    +0.174 C 
ATOM     17  C   UNL     1      -6.044 -10.225  15.786  0.00  0.00    +0.124 C 
ATOM     18  C   UNL     1      -6.823 -10.013  15.618  0.00  0.00    +0.045 C 
ATOM     19  C   UNL     1      -6.886  -9.899  14.804  0.00  0.00    +0.096 C 
ATOM     20  N   UNL     1      -6.146 -10.042  14.468  0.00  0.00    -0.268 N 
ATOM     21  C   UNL     1      -5.993  -9.982  13.660  0.00  0.00    +0.251 C 
ATOM     22  O   UNL     1      -6.637  -9.767  13.190  0.00  0.00    -0.270 OA
ATOM     23  C   UNL     1      -5.284 -10.109  13.259  0.00  0.00    +0.069 A 
ATOM     24  C   UNL     1      -5.371  -9.990  12.448  0.00  0.00    +0.006 A 
ENDROOT
BRANCH   9   6
ATOM      3  C   UNL     1      -4.986  -9.733   9.509  0.00  0.00    +0.025 A 
ATOM      4  C   UNL     1      -5.151 -10.472   9.839  0.00  0.00    +0.006 A 
ATOM      5  C   UNL     1      -5.063 -10.590  10.650  0.00  0.00    +0.001 A 
ATOM      6  C   UNL     1      -4.811  -9.970  11.132  0.00  0.00    +0.000 A 
ATOM      7  C   UNL     1      -4.646  -9.232  10.804  0.00  0.00    +0.001 A 
ATOM      8  C   UNL     1      -4.734  -9.114   9.992  0.00  0.00    +0.006 A 
BRANCH   3   2
ATOM      1  C   UNL     1      -4.945 -10.239   8.174  0.00  0.00    +0.074 C 
ATOM      2  S   UNL     1      -5.074  -9.615   8.697  0.00  0.00    -0.113 S 
ENDBRANCH   3   2
ENDBRANCH   9   6
BRANCH  17  25
ATOM     25  N   UNL     1      -5.736 -10.391  16.534  0.00  0.00    -0.205 NA
ATOM     26  C   UNL     1      -6.215 -10.314  17.203  0.00  0.00    +0.241 C 
ATOM     27  O   UNL     1      -7.000 -10.072  17.123  0.00  0.00    -0.273 OA
BRANCH  26  28
ATOM     28  C   UNL     1      -5.908 -10.480  17.951  0.00  0.00    +0.078 C 
ATOM     29  C   UNL     1      -5.120 -10.653  18.124  0.00  0.00    +0.009 C 
ATOM     30  C   UNL     1      -5.060 -10.781  18.937  0.00  0.00    +0.001 C 
ATOM     31  C   UNL     1      -5.811 -10.687  19.266  0.00  0.00    +0.001 C 
ATOM     32  C   UNL     1      -6.336 -10.501  18.656  0.00  0.00    +0.009 C 
ENDBRANCH  26  28
ENDBRANCH  17  25
TORSDOF 4
ENDMDL
MODEL 5
REMARK VINA RESULT:      -6.7     15.129     16.976
REMARK  Name = 
REMARK  4 active torsions:
REMARK  status: ('A' for Active; 'I' for Inactive)
REMARK    1  A    between atoms: S_2  and  C_3
REMARK    2  A    between atoms: C_6  and  C_9
REMARK    3  A    between atoms: C_17  and  N_25
REMARK    4  A    between atoms: C_26  and  C_28
REMARK                            x       y       z     vdW  Elec       q    Type
REMARK                         _______ _______ _______ _____ _____    ______ ____
ROOT
ATOM      9  C   UNL     1      -6.032  -9.768  12.383  0.00  0.00    +0.000 A 
ATOM     10  C   UNL     1      -6.820  -9.880  12.167  0.00  0.00    +0.001 A 
ATOM     11  C   UNL     1      -7.398  -9.970  12.749  0.00  0.00    +0.017 A 
ATOM     12  C   UNL     1      -7.188  -9.946  13.546  0.00  0.00    +0.078 A 
ATOM     13  N   UNL     1      -7.846 -10.046  14.034  0.00  0.00    -0.178 NA
ATOM     14  C   UNL     1      -7.879 -10.058  14.858  0.00  0.00    +0.265 C 
ATOM     15  O   UNL     1      -8.628 -10.170  15.185  0.00  0.00    -0.271 OA
ATOM     16  C   UNL     1      -7.261  -9.973  15.398  0.00  0.00    +0.174 C 
ATOM     17  C   UNL     1      -7.366  -9.996  16.216  0.00  0.00    +0.124 C 
ATOM     18  C   UNL     1      -6.629  -9.892  16.571  0.00  0.00    +0.045 C 
ATOM     19  C   UNL     1      -6.068  -9.805  15.973  0.00  0.00    +0.096 C 
ATOM     20  N   UNL     1      -6.459  -9.855  15.247  0.00  0.00    -0.268 N 
ATOM     21  C   UNL     1      -6.076  -9.793  14.520  0.00  0.00    +0.251 C 
ATOM     22  O   UNL     1      -5.260  -9.675  14.554  0.00  0.00    -0.270 OA
ATOM     23  C   UNL     1      -6.401  -9.834  13.762  0.00  0.00    +0.069 A 
ATOM     24  C   UNL     1      -5.822  -9.744  13.181  0.00  0.00    +0.006 A 
ENDROOT
BRANCH   9   6
ATOM      3  C   UNL     1      -4.295  -9.499  10.640  0.00  0.00    +0.025 A 
ATOM      4  C   UNL     1      -4.786  -8.865  10.835  0.00  0.00    +0.006 A 
ATOM      5  C   UNL     1      -5.365  -8.955  11.416  0.00  0.00    +0.001 A 
ATOM      6  C   UNL     1      -5.453  -9.678  11.802  0.00  0.00    +0.000 A 
ATOM      7  C   UNL     1      -4.962 -10.312  11.608  0.00  0.00    +0.001 A 
ATOM      8  C   UNL     1      -4.383 -10.222  11.027  0.00  0.00    +0.006 A 
BRANCH   3   2
ATOM      1  C   UNL     1      -3.936  -9.243   9.282  0.00  0.00    +0.074 C 
ATOM      2  S   UNL     1      -3.716  -9.409  10.059  0.00  0.00    -0.113 S 
ENDBRANCH   3   2
ENDBRANCH   9   6
BRANCH  17  25
ATOM     25  N   UNL     1      -8.084 -10.104  16.609  0.00  0.00    -0.205 NA
ATOM     26  C   UNL     1      -8.128  -9.984  17.425  0.00  0.00    +0.241 C 
ATOM     27  O   UNL     1      -7.457  -9.757  17.846  0.00  0.00    -0.273 OA
BRANCH  26  28
ATOM     28  C   UNL     1      -8.846 -10.092  17.818  0.00  0.00    +0.078 C 
ATOM     29  C   UNL     1      -9.445  -9.530  17.898  0.00  0.00    +0.009 C 
ATOM     30  C   UNL     1     -10.059  -9.872  18.330  0.00  0.00    +0.001 C 
ATOM     31  C   UNL     1      -9.840 -10.644  18.518  0.00  0.00    +0.001 C 
ATOM     32  C   UNL     1      -9.089 -10.781  18.202  0.00  0.00    +0.009 C 
ENDBRANCH  26  28
ENDBRANCH  17  25
TORSDOF 4
ENDMDL
MODEL 6
REMARK VINA RESULT:      -6.7     15.847     17.120
REMARK  Name = 
REMARK  4 active torsions:
REMARK  status: ('A' for Active; 'I' for Inactive)
REMARK    1  A    between atoms: S_2  and  C_3
REMARK    2  A    between atoms: C_6  and  C_9
REMARK    3  A    between atoms: C_17  and  N_25
REMARK    4  A    between atoms: C_26  and  C_28
REMARK                            x       y       z     vdW  Elec       q    Type
REMARK                         _______ _______ _______ _____ _____    ______ ____
ROOT
ATOM      9  C   UNL     1      -6.198  -9.761  10.929  0.00  0.00    +0.000 A 
ATOM     10  C   UNL     1      -6.605  -9.820  11.644  0.00  0.00    +0.001 A 
ATOM     11  C   UNL     1      -6.191  -9.957  12.344  0.00  0.00    +0.017 A 
ATOM     12  C   UNL     1      -5.370 -10.034  12.329  0.00  0.00    +0.078 A 
ATOM     13  N   UNL     1      -5.066 -10.168  13.085  0.00  0.00    -0.178 NA
ATOM     14  C   UNL     1      -4.281 -10.275  13.312  0.00  0.00    +0.265 C 
ATOM     15  O   UNL     1      -4.155 -10.398  14.118  0.00  0.00    -0.271 OA
ATOM     16  C   UNL     1      -3.604 -10.274  12.840  0.00  0.00    +0.174 C 
ATOM     17  C   UNL     1      -2.843 -10.389  13.137  0.00  0.00    +0.124 C 
ATOM     18  C   UNL     1      -2.315 -10.352  12.505  0.00  0.00    +0.045 C 
ATOM     19  C   UNL     1      -2.749 -10.215  11.817  0.00  0.00    +0.096 C 
ATOM     20  N   UNL     1      -3.547 -10.167  12.024  0.00  0.00    -0.268 N 
ATOM     21  C   UNL     1      -4.151 -10.034  11.479  0.00  0.00    +0.251 C 
ATOM     22  O   UNL     1      -3.912  -9.948  10.694  0.00  0.00    -0.270 OA
ATOM     23  C   UNL     1      -4.962  -9.974  11.615  0.00  0.00    +0.069 A 
ATOM     24  C   UNL     1      -5.376  -9.838  10.915  0.00  0.00    +0.006 A 
ENDROOT
BRANCH   9   6
ATOM      3  C   UNL     1      -7.438  -9.350   8.826  0.00  0.00    +0.025 A 
ATOM      4  C   UNL     1      -7.140  -8.715   9.261  0.00  0.00    +0.006 A 
ATOM      5  C   UNL     1      -6.727  -8.852   9.962  0.00  0.00    +0.001 A 
ATOM      6  C   UNL     1      -6.611  -9.624  10.228  0.00  0.00    +0.000 A 
ATOM      7  C   UNL     1      -6.908 -10.259   9.793  0.00  0.00    +0.001 A 
ATOM      8  C   UNL     1      -7.321 -10.122   9.093  0.00  0.00    +0.006 A 
BRANCH   3   2
ATOM      1  C   UNL     1      -8.675  -9.193   8.131  0.00  0.00    +0.074 C 
ATOM      2  S   UNL     1      -7.851  -9.213   8.125  0.00  0.00    -0.113 S 
ENDBRANCH   3   2
ENDBRANCH   9   6
BRANCH  17  25
ATOM     25  N   UNL     1      -2.646 -10.517  13.928  0.00  0.00    -0.205 NA
ATOM     26  C   UNL     1      -1.873 -10.382  14.187  0.00  0.00    +0.241 C 
ATOM     27  O   UNL     1      -1.300 -10.120  13.655  0.00  0.00    -0.273 OA
BRANCH  26  28
ATOM     28  C   UNL     1      -1.676 -10.511  14.978  0.00  0.00    +0.078 C 
ATOM     29  C   UNL     1      -0.918 -10.469  15.301  0.00  0.00    +0.009 C 
ATOM     30  C   UNL     1      -0.975 -10.636  16.107  0.00  0.00    +0.001 C 
ATOM     31  C   UNL     1      -1.768 -10.781  16.282  0.00  0.00    +0.001 C 
ATOM     32  C   UNL     1      -2.202 -10.704  15.583  0.00  0.00    +0.009 C 
ENDBRANCH  26  28
ENDBRANCH  17  25
TORSDOF 4
ENDMDL
MODEL 7
REMARK VINA RESULT:      -6.5      3.280      5.103
REMARK  Name = 
REMARK  4 active torsions:
REMARK  status: ('A' for Active; 'I' for Inactive)
REMARK    1  A    between atoms: S_2  and  C_3
REMARK    2  A    between atoms: C_6  and  C_9
REMARK    3  A    between atoms: C_17  and  N_25
REMARK    4  A    between atoms: C_26  and  C_28
REMARK                            x       y       z     vdW  Elec       q    Type
REMARK                         _______ _______ _______ _____ _____    ______ ____
ROOT
ATOM      9  C   UNL     1      -1.444   3.036  25.022  0.00  0.00    +0.000 A 
ATOM     10  C   UNL     1      -0.815   2.558  25.258  0.00  0.00    +0.001 A 
ATOM     11  C   UNL     1      -0.901   1.737  25.267  0.00  0.00    +0.017 A 
ATOM     12  C   UNL     1      -1.615   1.395  25.040  0.00  0.00    +0.078 A 
ATOM     13  N   UNL     1      -1.585   0.572  25.089  0.00  0.00    -0.178 NA
ATOM     14  C   UNL     1      -2.176   0.023  24.914  0.00  0.00    +0.265 C 
ATOM     15  O   UNL     1      -1.971  -0.769  25.020  0.00  0.00    -0.271 OA
ATOM     16  C   UNL     1      -2.944   0.163  24.646  0.00  0.00    +0.174 C 
ATOM     17  C   UNL     1      -3.486  -0.439  24.490  0.00  0.00    +0.124 C 
ATOM     18  C   UNL     1      -4.188  -0.089  24.235  0.00  0.00    +0.045 C 
ATOM     19  C   UNL     1      -4.080   0.729  24.234  0.00  0.00    +0.096 C 
ATOM     20  N   UNL     1      -3.310   0.885  24.488  0.00  0.00    -0.268 N 
ATOM     21  C   UNL     1      -2.999   1.645  24.558  0.00  0.00    +0.251 C 
ATOM     22  O   UNL     1      -3.510   2.260  24.356  0.00  0.00    -0.270 OA
ATOM     23  C   UNL     1      -2.245   1.872  24.804  0.00  0.00    +0.069 A 
ATOM     24  C   UNL     1      -2.160   2.693  24.795  0.00  0.00    +0.006 A 
ENDROOT
BRANCH   9   6
ATOM      3  C   UNL     1      -1.188   5.498  24.993  0.00  0.00    +0.025 A 
ATOM      4  C   UNL     1      -0.638   5.020  24.605  0.00  0.00    +0.006 A 
ATOM      5  C   UNL     1      -0.723   4.200  24.615  0.00  0.00    +0.001 A 
ATOM      6  C   UNL     1      -1.359   3.857  25.012  0.00  0.00    +0.000 A 
ATOM      7  C   UNL     1      -1.909   4.333  25.400  0.00  0.00    +0.001 A 
ATOM      8  C   UNL     1      -1.824   5.153  25.391  0.00  0.00    +0.006 A 
BRANCH   3   2
ATOM      1  C   UNL     1      -1.762   6.800  24.867  0.00  0.00    +0.074 C 
ATOM      2  S   UNL     1      -1.102   6.318  24.983  0.00  0.00    -0.113 S 
ENDBRANCH   3   2
ENDBRANCH   9   6
BRANCH  17  25
ATOM     25  N   UNL     1      -3.350  -1.248  24.574  0.00  0.00    -0.205 NA
ATOM     26  C   UNL     1      -3.897  -1.791  24.279  0.00  0.00    +0.241 C 
ATOM     27  O   UNL     1      -4.580  -1.524  23.900  0.00  0.00    -0.273 OA
BRANCH  26  28
ATOM     28  C   UNL     1      -3.761  -2.601  24.363  0.00  0.00    +0.078 C 
ATOM     29  C   UNL     1      -3.819  -3.167  23.765  0.00  0.00    +0.009 C 
ATOM     30  C   UNL     1      -3.637  -3.902  24.093  0.00  0.00    +0.001 C 
ATOM     31  C   UNL     1      -3.466  -3.790  24.892  0.00  0.00    +0.001 C 
ATOM     32  C   UNL     1      -3.543  -2.985  25.060  0.00  0.00    +0.009 C 
ENDBRANCH  26  28
ENDBRANCH  17  25
TORSDOF 4
ENDMDL
MODEL 8
REMARK VINA RESULT:      -6.4     17.381     19.189
REMARK  Name = 
REMARK  4 active torsions:
REMARK  status: ('A' for Active; 'I' for Inactive)
REMARK    1  A    between atoms: S_2  and  C_3
REMARK    2  A    between atoms: C_6  and  C_9
REMARK    3  A    between atoms: C_17  and  N_25
REMARK    4  A    between atoms: C_26  and  C_28
REMARK                            x       y       z     vdW  Elec       q    Type
REMARK                         _______ _______ _______ _____ _____    ______ ____
ROOT
ATOM      9  C   UNL     1      -3.798  -9.384  10.136  0.00  0.00    +0.000 A 
ATOM     10  C   UNL     1      -3.827  -9.392   9.312  0.00  0.00    +0.001 A 
ATOM     11  C   UNL     1      -4.551  -9.324   8.924  0.00  0.00    +0.017 A 
ATOM     12  C   UNL     1      -5.247  -9.249   9.359  0.00  0.00    +0.078 A 
ATOM     13  N   UNL     1      -5.907  -9.189   8.867  0.00  0.00    -0.178 NA
ATOM     14  C   UNL     1      -6.700  -9.107   9.077  0.00  0.00    +0.265 C 
ATOM     15  O   UNL     1      -7.233  -9.061   8.449  0.00  0.00    -0.271 OA
ATOM     16  C   UNL     1      -7.031  -9.064   9.832  0.00  0.00    +0.174 C 
ATOM     17  C   UNL     1      -7.840  -8.981   9.969  0.00  0.00    +0.124 C 
ATOM     18  C   UNL     1      -7.959  -8.958  10.785  0.00  0.00    +0.045 C 
ATOM     19  C   UNL     1      -7.223  -9.027  11.152  0.00  0.00    +0.096 C 
ATOM     20  N   UNL     1      -6.649  -9.093  10.562  0.00  0.00    -0.268 N 
ATOM     21  C   UNL     1      -5.843  -9.171  10.719  0.00  0.00    +0.251 C 
ATOM     22  O   UNL     1      -5.634  -9.182  11.517  0.00  0.00    -0.270 OA
ATOM     23  C   UNL     1      -5.220  -9.241  10.184  0.00  0.00    +0.069 A 
ATOM     24  C   UNL     1      -4.495  -9.309  10.572  0.00  0.00    +0.006 A 
ENDROOT
BRANCH   9   6
ATOM      3  C   UNL     1      -1.625  -9.588  11.304  0.00  0.00    +0.025 A 
ATOM      4  C   UNL     1      -2.236 -10.117  11.472  0.00  0.00    +0.006 A 
ATOM      5  C   UNL     1      -2.960 -10.049  11.083  0.00  0.00    +0.001 A 
ATOM      6  C   UNL     1      -3.074  -9.452  10.526  0.00  0.00    +0.000 A 
ATOM      7  C   UNL     1      -2.464  -8.923  10.357  0.00  0.00    +0.001 A 
ATOM      8  C   UNL     1      -1.740  -8.991  10.746  0.00  0.00    +0.006 A 
BRANCH   3   2
ATOM      1  C   UNL     1      -0.379  -9.018  11.707  0.00  0.00    +0.074 C 
ATOM      2  S   UNL     1      -0.901  -9.656  11.694  0.00  0.00    -0.113 S 
ENDBRANCH   3   2
ENDBRANCH   9   6
BRANCH  17  25
ATOM     25  N   UNL     1      -8.427  -8.929   9.391  0.00  0.00    -0.205 NA
ATOM     26  C   UNL     1      -9.211  -8.796   9.611  0.00  0.00    +0.241 C 
ATOM     27  O   UNL     1      -9.408  -8.713  10.408  0.00  0.00    -0.273 OA
BRANCH  26  28
ATOM     28  C   UNL     1      -9.798  -8.744   9.034  0.00  0.00    +0.078 C 
ATOM     29  C   UNL     1     -10.168  -9.380   8.660  0.00  0.00    +0.009 C 
ATOM     30  C   UNL     1     -10.717  -9.076   8.124  0.00  0.00    +0.001 C 
ATOM     31  C   UNL     1     -10.686  -8.253   8.166  0.00  0.00    +0.001 C 
ATOM     32  C   UNL     1     -10.118  -8.047   8.729  0.00  0.00    +0.009 C 
ENDBRANCH  26  28
ENDBRANCH  17  25
TORSDOF 4
ENDMDL
MODEL 9
REMARK VINA RESULT:      -6.4     15.132     16.697
REMARK  Name = 
REMARK  4 active torsions:
REMARK  status: ('A' for Active; 'I' for Inactive)
REMARK    1  A    between atoms: S_2  and  C_3
REMARK    2  A    between atoms: C_6  and  C_9
REMARK    3  A    between atoms: C_17  and  N_25
REMARK    4  A    between atoms: C_26  and  C_28
REMARK                            x       y       z     vdW  Elec       q    Type
REMARK                         _______ _______ _______ _____ _____    ______ ____
ROOT
ATOM      9  C   UNL     1      -4.394 -10.570  14.551  0.00  0.00    +0.000 A 
ATOM     10  C   UNL     1      -4.213 -10.729  15.339  0.00  0.00    +0.001 A 
ATOM     11  C   UNL     1      -4.800 -10.676  15.917  0.00  0.00    +0.017 A 
ATOM     12  C   UNL     1      -5.568 -10.463  15.705  0.00  0.00    +0.078 A 
ATOM     13  N   UNL     1      -6.067 -10.443  16.362  0.00  0.00    -0.178 NA
ATOM     14  C   UNL     1      -6.871 -10.258  16.393  0.00  0.00    +0.265 C 
ATOM     15  O   UNL     1      -7.216 -10.287  17.141  0.00  0.00    -0.271 OA
ATOM     16  C   UNL     1      -7.374 -10.047  15.773  0.00  0.00    +0.174 C 
ATOM     17  C   UNL     1      -8.173  -9.874  15.877  0.00  0.00    +0.124 C 
ATOM     18  C   UNL     1      -8.492  -9.690  15.139  0.00  0.00    +0.045 C 
ATOM     19  C   UNL     1      -7.889  -9.749  14.579  0.00  0.00    +0.096 C 
ATOM     20  N   UNL     1      -7.198  -9.970  14.971  0.00  0.00    -0.268 N 
ATOM     21  C   UNL     1      -6.475 -10.084  14.590  0.00  0.00    +0.251 C 
ATOM     22  O   UNL     1      -6.478  -9.963  13.774  0.00  0.00    -0.270 OA
ATOM     23  C   UNL     1      -5.750 -10.304  14.917  0.00  0.00    +0.069 A 
ATOM     24  C   UNL     1      -5.163 -10.357  14.340  0.00  0.00    +0.006 A 
ENDROOT
BRANCH   9   6
ATOM      3  C   UNL     1      -2.634 -10.728  12.818  0.00  0.00    +0.025 A 
ATOM      4  C   UNL     1      -2.426 -10.632  13.611  0.00  0.00    +0.006 A 
ATOM      5  C   UNL     1      -3.013 -10.579  14.188  0.00  0.00    +0.001 A 
ATOM      6  C   UNL     1      -3.808 -10.623  13.973  0.00  0.00    +0.000 A 
ATOM      7  C   UNL     1      -4.016 -10.719  13.181  0.00  0.00    +0.001 A 
ATOM      8  C   UNL     1      -3.429 -10.772  12.604  0.00  0.00    +0.006 A 
BRANCH   3   2
ATOM      1  C   UNL     1      -1.736 -10.095  11.905  0.00  0.00    +0.074 C 
ATOM      2  S   UNL     1      -2.047 -10.781  12.241  0.00  0.00    -0.113 S 
ENDBRANCH   3   2
ENDBRANCH   9   6
BRANCH  17  25
ATOM     25  N   UNL     1      -8.583  -9.884  16.594  0.00  0.00    -0.205 NA
ATOM     26  C   UNL     1      -9.402  -9.789  16.601  0.00  0.00    +0.241 C 
ATOM     27  O   UNL     1      -9.813  -9.685  15.893  0.00  0.00    -0.273 OA
BRANCH  26  28
ATOM     28  C   UNL     1      -9.812  -9.798  17.318  0.00  0.00    +0.078 C 
ATOM     29  C   UNL     1      -9.913  -9.157  17.827  0.00  0.00    +0.009 C 
ATOM     30  C   UNL     1     -10.356  -9.414  18.475  0.00  0.00    +0.001 C 
ATOM     31  C   UNL     1     -10.528 -10.213  18.366  0.00  0.00    +0.001 C 
ATOM     32  C   UNL     1     -10.192 -10.452  17.650  0.00  0.00    +0.009 C 
ENDBRANCH  26  28
ENDBRANCH  17  25
TORSDOF 4
ENDMDL
