MODEL 1
REMARK VINA RESULT:     -13.8      0.000      0.000
REMARK  Name = 
REMARK  6 active torsions:
REMARK  status: ('A' for Active; 'I' for Inactive)
REMARK    1  A    between atoms: N_4  and  C_22
REMARK    2  A    between atoms: C_7  and  C_8
REMARK    3  A    between atoms: C_10  and  N_11
REMARK    4  A    between atoms: N_11  and  S_12
REMARK    5  A    between atoms: S_12  and  C_15
REMARK    6  A    between atoms: C_25  and  C_28
REMARK                            x       y       z     vdW  Elec       q    Type
REMARK                         _______ _______ _______ _____ _____    ______ ____
ROOT
ATOM      1  C   UNL     1      -5.797   1.696  25.458  0.00  0.00    +0.054 C 
ATOM      2  C   UNL     1      -5.169   1.234  25.185  0.00  0.00    +0.077 A 
ATOM      3  N   UNL     1      -5.151   0.411  25.151  0.00  0.00    -0.170 NA
ATOM      4  N   UNL     1      -4.420   0.184  24.844  0.00  0.00    -0.234 N 
ATOM      5  C   UNL     1      -3.985   0.868  24.688  0.00  0.00    +0.058 A 
ATOM      6  C   UNL     1      -3.222   0.897  24.376  0.00  0.00    +0.052 C 
ATOM      7  C   UNL     1      -4.448   1.518  24.899  0.00  0.00    +0.010 A 
ENDROOT
BRANCH   4  22
ATOM     22  C   UNL     1      -4.167  -0.591  24.715  0.00  0.00    +0.082 A 
ATOM     23  C   UNL     1      -3.744  -0.989  25.300  0.00  0.00    +0.019 A 
ATOM     24  C   UNL     1      -3.491  -1.764  25.171  0.00  0.00    +0.005 A 
ATOM     25  C   UNL     1      -3.661  -2.140  24.458  0.00  0.00    +0.072 A 
ATOM     26  C   UNL     1      -4.084  -1.741  23.871  0.00  0.00    +0.005 A 
ATOM     27  C   UNL     1      -4.337  -0.966  24.001  0.00  0.00    +0.019 A 
BRANCH  25  28
ATOM     28  C   UNL     1      -3.408  -2.915  24.329  0.00  0.00    +0.419 C 
ATOM     29  F   UNL     1      -3.156  -3.689  24.200  0.00  0.00    -0.166 F 
ATOM     30  F   UNL     1      -2.635  -2.645  24.225  0.00  0.00    -0.166 F 
ATOM     31  F   UNL     1      -4.180  -3.184  24.433  0.00  0.00    -0.166 F 
ENDBRANCH  25  28
ENDBRANCH   4  22
BRANCH   7   8
ATOM      8  C   UNL     1      -4.228   2.310  24.835  0.00  0.00    +0.048 C 
ATOM      9  C   UNL     1      -3.806   2.744  25.395  0.00  0.00    +0.033 C 
ATOM     10  C   UNL     1      -3.710   3.509  25.105  0.00  0.00    +0.120 C 
ATOM     20  C   UNL     1      -4.073   3.549  24.365  0.00  0.00    -0.011 C 
ATOM     21  C   UNL     1      -4.393   2.809  24.198  0.00  0.00    -0.025 C 
BRANCH  10  11
ATOM     11  N   UNL     1      -3.319   4.128  25.486  0.00  0.00    -0.074 NA
BRANCH  11  12
ATOM     12  S   UNL     1      -2.514   4.251  25.356  0.00  0.00    +0.083 S 
ATOM     13  O   UNL     1      -2.343   3.896  26.082  0.00  0.00    -0.151 OA
ATOM     14  O   UNL     1      -2.685   4.605  24.631  0.00  0.00    -0.151 OA
BRANCH  12  15
ATOM     15  C   UNL     1      -1.708   4.374  25.226  0.00  0.00    +0.153 A 
ATOM     16  C   UNL     1      -1.110   3.815  25.331  0.00  0.00    +0.027 A 
ATOM     17  C   UNL     1      -0.391   4.173  25.138  0.00  0.00    +0.009 A 
ATOM     18  C   UNL     1      -0.546   4.951  24.913  0.00  0.00    +0.037 A 
ATOM     19  S   UNL     1      -1.360   5.075  24.968  0.00  0.00    -0.067 S 
ENDBRANCH  12  15
ENDBRANCH  11  12
ENDBRANCH  10  11
ENDBRANCH   7   8
TORSDOF 6
ENDMDL
MODEL 2
REMARK VINA RESULT:     -12.3      3.536      5.598
REMARK  Name = 
REMARK  6 active torsions:
REMARK  status: ('A' for Active; 'I' for Inactive)
REMARK    1  A    between atoms: N_4  and  C_22
REMARK    2  A    between atoms: C_7  and  C_8
REMARK    3  A    between atoms: C_10  and  N_11
REMARK    4  A    between atoms: N_11  and  S_12
REMARK    5  A    between atoms: S_12  and  C_15
REMARK    6  A    between atoms: C_25  and  C_28
REMARK                            x       y       z     vdW  Elec       q    Type
REMARK                         _______ _______ _______ _____ _____    ______ ____
ROOT
ATOM      1  C   UNL     1      -5.349   2.170  25.551  0.00  0.00    +0.054 C 
ATOM      2  C   UNL     1      -4.564   2.321  25.342  0.00  0.00    +0.077 A 
ATOM      3  N   UNL     1      -4.175   3.044  25.414  0.00  0.00    -0.170 NA
ATOM      4  N   UNL     1      -3.403   2.946  25.141  0.00  0.00    -0.234 N 
ATOM      5  C   UNL     1      -3.315   2.161  24.901  0.00  0.00    +0.058 A 
ATOM      6  C   UNL     1      -2.629   1.822  24.591  0.00  0.00    +0.052 C 
ATOM      7  C   UNL     1      -4.034   1.775  25.026  0.00  0.00    +0.010 A 
ENDROOT
BRANCH   4  22
ATOM     22  C   UNL     1      -2.819   3.529  25.113  0.00  0.00    +0.082 A 
ATOM     23  C   UNL     1      -2.295   3.618  25.743  0.00  0.00    +0.019 A 
ATOM     24  C   UNL     1      -1.712   4.201  25.714  0.00  0.00    +0.005 A 
ATOM     25  C   UNL     1      -1.654   4.695  25.057  0.00  0.00    +0.072 A 
ATOM     26  C   UNL     1      -2.179   4.606  24.426  0.00  0.00    +0.005 A 
ATOM     27  C   UNL     1      -2.762   4.023  24.454  0.00  0.00    +0.019 A 
BRANCH  25  28
ATOM     28  C   UNL     1      -1.071   5.279  25.029  0.00  0.00    +0.419 C 
ATOM     29  F   UNL     1      -0.488   5.861  25.000  0.00  0.00    -0.166 F 
ATOM     30  F   UNL     1      -1.591   5.816  25.378  0.00  0.00    -0.166 F 
ATOM     31  F   UNL     1      -0.551   4.742  24.680  0.00  0.00    -0.166 F 
ENDBRANCH  25  28
ENDBRANCH   4  22
BRANCH   7   8
ATOM      8  C   UNL     1      -4.192   0.981  24.862  0.00  0.00    +0.048 C 
ATOM      9  C   UNL     1      -3.968   0.336  25.324  0.00  0.00    +0.033 C 
ATOM     10  C   UNL     1      -4.239  -0.348  24.955  0.00  0.00    +0.120 C 
ATOM     20  C   UNL     1      -4.632  -0.127  24.264  0.00  0.00    -0.011 C 
ATOM     21  C   UNL     1      -4.603   0.695  24.207  0.00  0.00    -0.025 C 
BRANCH  10  11
ATOM     11  N   UNL     1      -4.137  -1.121  25.227  0.00  0.00    -0.074 NA
BRANCH  11  12
ATOM     12  S   UNL     1      -3.463  -1.547  25.017  0.00  0.00    +0.083 S 
ATOM     13  O   UNL     1      -3.800  -1.716  24.282  0.00  0.00    -0.151 OA
ATOM     14  O   UNL     1      -3.127  -1.378  25.751  0.00  0.00    -0.151 OA
BRANCH  12  15
ATOM     15  C   UNL     1      -2.789  -1.974  24.806  0.00  0.00    +0.153 A 
ATOM     16  C   UNL     1      -2.010  -1.765  24.979  0.00  0.00    +0.027 A 
ATOM     17  C   UNL     1      -1.515  -2.347  24.666  0.00  0.00    +0.009 A 
ATOM     18  C   UNL     1      -1.988  -2.914  24.300  0.00  0.00    +0.037 A 
ATOM     19  S   UNL     1      -2.776  -2.684  24.387  0.00  0.00    -0.067 S 
ENDBRANCH  12  15
ENDBRANCH  11  12
ENDBRANCH  10  11
ENDBRANCH   7   8
TORSDOF 6
ENDMDL
MODEL 3
REMARK VINA RESULT:     -11.2      3.954      6.240
REMARK  Name = 
REMARK  6 active torsions:
REMARK  status: ('A' for Active; 'I' for Inactive)
REMARK    1  A    between atoms: N_4  and  C_22
REMARK    2  A    between atoms: C_7  and  C_8
REMARK    3  A    between atoms: C_10  and  N_11
REMARK    4  A    between atoms: N_11  and  S_12
REMARK    5  A    between atoms: S_12  and  C_15
REMARK    6  A    between atoms: C_25  and  C_28
REMARK                            x       y       z     vdW  Elec       q    Type
REMARK                         _______ _______ _______ _____ _____    ______ ____
ROOT
ATOM      1  C   UNL     1      -0.366   0.431  23.405  0.00  0.00    +0.054 C 
ATOM      2  C   UNL     1      -0.651   0.977  23.955  0.00  0.00    +0.077 A 
ATOM      3  N   UNL     1      -0.635   1.797  23.876  0.00  0.00    -0.170 NA
ATOM      4  N   UNL     1      -0.975   2.125  24.553  0.00  0.00    -0.234 N 
ATOM      5  C   UNL     1      -1.202   1.507  25.049  0.00  0.00    +0.058 A 
ATOM      6  C   UNL     1      -1.565   1.584  25.787  0.00  0.00    +0.052 C 
ATOM      7  C   UNL     1      -1.001   0.796  24.680  0.00  0.00    +0.010 A 
ENDROOT
BRANCH   4  22
ATOM     22  C   UNL     1      -1.073   2.930  24.706  0.00  0.00    +0.082 A 
ATOM     23  C   UNL     1      -0.437   3.376  24.982  0.00  0.00    +0.019 A 
ATOM     24  C   UNL     1      -0.534   4.182  25.136  0.00  0.00    +0.005 A 
ATOM     25  C   UNL     1      -1.266   4.540  25.012  0.00  0.00    +0.072 A 
ATOM     26  C   UNL     1      -1.903   4.093  24.736  0.00  0.00    +0.005 A 
ATOM     27  C   UNL     1      -1.806   3.288  24.582  0.00  0.00    +0.019 A 
BRANCH  25  28
ATOM     28  C   UNL     1      -1.363   5.345  25.166  0.00  0.00    +0.419 C 
ATOM     29  F   UNL     1      -1.460   6.150  25.318  0.00  0.00    -0.166 F 
ATOM     30  F   UNL     1      -2.038   5.179  25.611  0.00  0.00    -0.166 F 
ATOM     31  F   UNL     1      -0.689   5.510  24.721  0.00  0.00    -0.166 F 
ENDBRANCH  25  28
ENDBRANCH   4  22
BRANCH   7   8
ATOM      8  C   UNL     1      -1.129   0.040  24.983  0.00  0.00    +0.048 C 
ATOM      9  C   UNL     1      -1.861  -0.301  25.147  0.00  0.00    +0.033 C 
ATOM     10  C   UNL     1      -1.731  -1.059  25.440  0.00  0.00    +0.120 C 
ATOM     20  C   UNL     1      -0.916  -1.189  25.459  0.00  0.00    -0.011 C 
ATOM     21  C   UNL     1      -0.544  -0.510  25.176  0.00  0.00    -0.025 C 
BRANCH  10  11
ATOM     11  N   UNL     1      -2.311  -1.596  25.675  0.00  0.00    -0.074 NA
BRANCH  11  12
ATOM     12  S   UNL     1      -2.888  -1.842  25.140  0.00  0.00    +0.083 S 
ATOM     13  O   UNL     1      -3.438  -1.346  25.505  0.00  0.00    -0.151 OA
ATOM     14  O   UNL     1      -2.339  -2.337  24.775  0.00  0.00    -0.151 OA
BRANCH  12  15
ATOM     15  C   UNL     1      -3.466  -2.087  24.604  0.00  0.00    +0.153 A 
ATOM     16  C   UNL     1      -4.016  -1.601  24.228  0.00  0.00    +0.027 A 
ATOM     17  C   UNL     1      -4.485  -2.075  23.741  0.00  0.00    +0.009 A 
ATOM     18  C   UNL     1      -4.224  -2.854  23.816  0.00  0.00    +0.037 A 
ATOM     19  S   UNL     1      -3.594  -2.861  24.350  0.00  0.00    -0.067 S 
ENDBRANCH  12  15
ENDBRANCH  11  12
ENDBRANCH  10  11
ENDBRANCH   7   8
TORSDOF 6
ENDMDL
MODEL 4
REMARK VINA RESULT:     -10.8      1.822      2.863
REMARK  Name = 
REMARK  6 active torsions:
REMARK  status: ('A' for Active; 'I' for Inactive)
REMARK    1  A    between atoms: N_4  and  C_22
REMARK    2  A    between atoms: C_7  and  C_8
REMARK    3  A    between atoms: C_10  and  N_11
REMARK    4  A    between atoms: N_11  and  S_12
REMARK    5  A    between atoms: S_12  and  C_15
REMARK    6  A    between atoms: C_25  and  C_28
REMARK                            x       y       z     vdW  Elec       q    Type
REMARK                         _______ _______ _______ _____ _____    ______ ____
ROOT
ATOM      1  C   UNL     1       0.232   0.597  23.805  0.00  0.00    +0.054 C 
ATOM      2  C   UNL     1      -0.446   0.293  24.166  0.00  0.00    +0.077 A 
ATOM      3  N   UNL     1      -0.783  -0.445  24.019  0.00  0.00    -0.170 NA
ATOM      4  N   UNL     1      -1.450  -0.520  24.498  0.00  0.00    -0.234 N 
ATOM      5  C   UNL     1      -1.525   0.172  24.941  0.00  0.00    +0.058 A 
ATOM      6  C   UNL     1      -2.117   0.333  25.493  0.00  0.00    +0.052 C 
ATOM      7  C   UNL     1      -0.903   0.675  24.736  0.00  0.00    +0.010 A 
ENDROOT
BRANCH   4  22
ATOM     22  C   UNL     1      -1.955  -1.173  24.529  0.00  0.00    +0.082 A 
ATOM     23  C   UNL     1      -1.684  -1.887  24.841  0.00  0.00    +0.019 A 
ATOM     24  C   UNL     1      -2.189  -2.540  24.872  0.00  0.00    +0.005 A 
ATOM     25  C   UNL     1      -2.962  -2.477  24.592  0.00  0.00    +0.072 A 
ATOM     26  C   UNL     1      -3.232  -1.762  24.281  0.00  0.00    +0.005 A 
ATOM     27  C   UNL     1      -2.728  -1.110  24.250  0.00  0.00    +0.019 A 
BRANCH  25  28
ATOM     28  C   UNL     1      -3.466  -3.130  24.623  0.00  0.00    +0.419 C 
ATOM     29  F   UNL     1      -3.970  -3.782  24.655  0.00  0.00    -0.166 F 
ATOM     30  F   UNL     1      -3.337  -3.268  23.820  0.00  0.00    -0.166 F 
ATOM     31  F   UNL     1      -3.594  -2.992  25.426  0.00  0.00    -0.166 F 
ENDBRANCH  25  28
ENDBRANCH   4  22
BRANCH   7   8
ATOM      8  C   UNL     1      -0.766   1.427  25.046  0.00  0.00    +0.048 C 
ATOM      9  C   UNL     1      -1.151   2.121  24.825  0.00  0.00    +0.033 C 
ATOM     10  C   UNL     1      -0.842   2.739  25.275  0.00  0.00    +0.120 C 
ATOM     20  C   UNL     1      -0.265   2.425  25.775  0.00  0.00    -0.011 C 
ATOM     21  C   UNL     1      -0.218   1.615  25.634  0.00  0.00    -0.025 C 
BRANCH  10  11
ATOM     11  N   UNL     1      -1.068   3.531  25.234  0.00  0.00    -0.074 NA
BRANCH  11  12
ATOM     12  S   UNL     1      -1.853   3.744  25.374  0.00  0.00    +0.083 S 
ATOM     13  O   UNL     1      -1.986   3.786  24.560  0.00  0.00    -0.151 OA
ATOM     14  O   UNL     1      -1.719   3.702  26.187  0.00  0.00    -0.151 OA
BRANCH  12  15
ATOM     15  C   UNL     1      -2.637   3.958  25.514  0.00  0.00    +0.153 A 
ATOM     16  C   UNL     1      -2.948   4.218  26.232  0.00  0.00    +0.027 A 
ATOM     17  C   UNL     1      -3.752   4.370  26.122  0.00  0.00    +0.009 A 
ATOM     18  C   UNL     1      -3.937   4.203  25.336  0.00  0.00    +0.037 A 
ATOM     19  S   UNL     1      -3.248   3.948  24.960  0.00  0.00    -0.067 S 
ENDBRANCH  12  15
ENDBRANCH  11  12
ENDBRANCH  10  11
ENDBRANCH   7   8
TORSDOF 6
ENDMDL
MODEL 5
REMARK VINA RESULT:     -10.2      3.585      5.563
REMARK  Name = 
REMARK  6 active torsions:
REMARK  status: ('A' for Active; 'I' for Inactive)
REMARK    1  A    between atoms: N_4  and  C_22
REMARK    2  A    between atoms: C_7  and  C_8
REMARK    3  A    between atoms: C_10  and  N_11
REMARK    4  A    between atoms: N_11  and  S_12
REMARK    5  A    between atoms: S_12  and  C_15
REMARK    6  A    between atoms: C_25  and  C_28
REMARK                            x       y       z     vdW  Elec       q    Type
REMARK                         _______ _______ _______ _____ _____    ______ ____
ROOT
ATOM      1  C   UNL     1      -0.492   2.909  25.618  0.00  0.00    +0.054 C 
ATOM      2  C   UNL     1      -1.284   2.775  25.428  0.00  0.00    +0.077 A 
ATOM      3  N   UNL     1      -1.911   3.289  25.579  0.00  0.00    -0.170 NA
ATOM      4  N   UNL     1      -2.603   2.936  25.297  0.00  0.00    -0.234 N 
ATOM      5  C   UNL     1      -2.402   2.205  24.973  0.00  0.00    +0.058 A 
ATOM      6  C   UNL     1      -2.924   1.667  24.628  0.00  0.00    +0.052 C 
ATOM      7  C   UNL     1      -1.586   2.105  25.053  0.00  0.00    +0.010 A 
ENDROOT
BRANCH   4  22
ATOM     22  C   UNL     1      -3.362   3.258  25.334  0.00  0.00    +0.082 A 
ATOM     23  C   UNL     1      -3.690   3.614  24.667  0.00  0.00    +0.019 A 
ATOM     24  C   UNL     1      -4.449   3.936  24.704  0.00  0.00    +0.005 A 
ATOM     25  C   UNL     1      -4.878   3.902  25.406  0.00  0.00    +0.072 A 
ATOM     26  C   UNL     1      -4.549   3.546  26.074  0.00  0.00    +0.005 A 
ATOM     27  C   UNL     1      -3.790   3.223  26.038  0.00  0.00    +0.019 A 
BRANCH  25  28
ATOM     28  C   UNL     1      -5.638   4.224  25.443  0.00  0.00    +0.419 C 
ATOM     29  F   UNL     1      -6.396   4.547  25.480  0.00  0.00    -0.166 F 
ATOM     30  F   UNL     1      -5.960   3.464  25.441  0.00  0.00    -0.166 F 
ATOM     31  F   UNL     1      -5.315   4.983  25.446  0.00  0.00    -0.166 F 
ENDBRANCH  25  28
ENDBRANCH   4  22
BRANCH   7   8
ATOM      8  C   UNL     1      -1.151   1.450  24.803  0.00  0.00    +0.048 C 
ATOM      9  C   UNL     1      -1.104   0.723  25.188  0.00  0.00    +0.033 C 
ATOM     10  C   UNL     1      -0.611   0.232  24.746  0.00  0.00    +0.120 C 
ATOM     20  C   UNL     1      -0.353   0.656  24.087  0.00  0.00    -0.011 C 
ATOM     21  C   UNL     1      -0.687   1.409  24.122  0.00  0.00    -0.025 C 
BRANCH  10  11
ATOM     11  N   UNL     1      -0.409  -0.547  24.930  0.00  0.00    -0.074 NA
BRANCH  11  12
ATOM     12  S   UNL     1      -0.966  -1.149  24.841  0.00  0.00    +0.083 S 
ATOM     13  O   UNL     1      -1.144  -1.102  25.646  0.00  0.00    -0.151 OA
ATOM     14  O   UNL     1      -0.787  -1.196  24.037  0.00  0.00    -0.151 OA
BRANCH  12  15
ATOM     15  C   UNL     1      -1.522  -1.752  24.752  0.00  0.00    +0.153 A 
ATOM     16  C   UNL     1      -2.250  -1.799  25.137  0.00  0.00    +0.027 A 
ATOM     17  C   UNL     1      -2.627  -2.490  24.886  0.00  0.00    +0.009 A 
ATOM     18  C   UNL     1      -2.131  -2.868  24.346  0.00  0.00    +0.037 A 
ATOM     19  S   UNL     1      -1.448  -2.412  24.264  0.00  0.00    -0.067 S 
ENDBRANCH  12  15
ENDBRANCH  11  12
ENDBRANCH  10  11
ENDBRANCH   7   8
TORSDOF 6
ENDMDL
MODEL 6
REMARK VINA RESULT:      -9.8      2.087      3.327
REMARK  Name = 
REMARK  6 active torsions:
REMARK  status: ('A' for Active; 'I' for Inactive)
REMARK    1  A    between atoms: N_4  and  C_22
REMARK    2  A    between atoms: C_7  and  C_8
REMARK    3  A    between atoms: C_10  and  N_11
REMARK    4  A    between atoms: N_11  and  S_12
REMARK    5  A    between atoms: S_12  and  C_15
REMARK    6  A    between atoms: C_25  and  C_28
REMARK                            x       y       z     vdW  Elec       q    Type
REMARK                         _______ _______ _______ _____ _____    ______ ____
ROOT
ATOM      1  C   UNL     1      -0.059   2.647  26.255  0.00  0.00    +0.054 C 
ATOM      2  C   UNL     1      -0.480   2.055  25.862  0.00  0.00    +0.077 A 
ATOM      3  N   UNL     1      -0.302   1.250  25.867  0.00  0.00    -0.170 NA
ATOM      4  N   UNL     1      -0.864   0.862  25.405  0.00  0.00    -0.234 N 
ATOM      5  C   UNL     1      -1.390   1.427  25.114  0.00  0.00    +0.058 A 
ATOM      6  C   UNL     1      -2.039   1.281  24.626  0.00  0.00    +0.052 C 
ATOM      7  C   UNL     1      -1.152   2.165  25.397  0.00  0.00    +0.010 A 
ENDROOT
BRANCH   4  22
ATOM     22  C   UNL     1      -0.896   0.050  25.258  0.00  0.00    +0.082 A 
ATOM     23  C   UNL     1      -1.339  -0.440  25.752  0.00  0.00    +0.019 A 
ATOM     24  C   UNL     1      -1.370  -1.252  25.606  0.00  0.00    +0.005 A 
ATOM     25  C   UNL     1      -0.960  -1.572  24.967  0.00  0.00    +0.072 A 
ATOM     26  C   UNL     1      -0.517  -1.081  24.472  0.00  0.00    +0.005 A 
ATOM     27  C   UNL     1      -0.485  -0.270  24.619  0.00  0.00    +0.019 A 
BRANCH  25  28
ATOM     28  C   UNL     1      -0.991  -2.384  24.820  0.00  0.00    +0.419 C 
ATOM     29  F   UNL     1      -1.023  -3.195  24.674  0.00  0.00    -0.166 F 
ATOM     30  F   UNL     1      -0.431  -2.513  25.412  0.00  0.00    -0.166 F 
ATOM     31  F   UNL     1      -1.551  -2.255  24.229  0.00  0.00    -0.166 F 
ENDBRANCH  25  28
ENDBRANCH   4  22
BRANCH   7   8
ATOM      8  C   UNL     1      -1.523   2.886  25.242  0.00  0.00    +0.048 C 
ATOM      9  C   UNL     1      -2.269   3.115  25.505  0.00  0.00    +0.033 C 
ATOM     10  C   UNL     1      -2.419   3.874  25.221  0.00  0.00    +0.120 C 
ATOM     20  C   UNL     1      -1.763   4.115  24.781  0.00  0.00    -0.011 C 
ATOM     21  C   UNL     1      -1.210   3.505  24.794  0.00  0.00    -0.025 C 
BRANCH  10  11
ATOM     11  N   UNL     1      -3.102   4.316  25.353  0.00  0.00    -0.074 NA
BRANCH  11  12
ATOM     12  S   UNL     1      -3.840   3.948  25.348  0.00  0.00    +0.083 S 
ATOM     13  O   UNL     1      -3.869   4.017  24.525  0.00  0.00    -0.151 OA
ATOM     14  O   UNL     1      -3.812   3.879  26.169  0.00  0.00    -0.151 OA
BRANCH  12  15
ATOM     15  C   UNL     1      -4.578   3.579  25.343  0.00  0.00    +0.153 A 
ATOM     16  C   UNL     1      -4.892   3.130  24.725  0.00  0.00    +0.027 A 
ATOM     17  C   UNL     1      -5.640   2.868  24.955  0.00  0.00    +0.009 A 
ATOM     18  C   UNL     1      -5.789   3.156  25.714  0.00  0.00    +0.037 A 
ATOM     19  S   UNL     1      -5.132   3.595  25.953  0.00  0.00    -0.067 S 
ENDBRANCH  12  15
ENDBRANCH  11  12
ENDBRANCH  10  11
ENDBRANCH   7   8
TORSDOF 6
ENDMDL
