MODEL 1
REMARK VINA RESULT:     -13.2      0.000      0.000
REMARK  Name = 
REMARK  3 active torsions:
REMARK  status: ('A' for Active; 'I' for Inactive)
REMARK    1  A    between atoms: C_5  and  C_6
REMARK    2  A    between atoms: C_6  and  N_7
REMARK    3  A    between atoms: C_17  and  C_19
REMARK                            x       y       z     vdW  Elec       q    Type
REMARK                         _______ _______ _______ _____ _____    ______ ____
ROOT
ATOM      7  N   UNL     1      -0.953   1.836  25.206  0.00  0.00    -0.258 N 
ATOM      8  C   UNL     1      -1.746   1.770  25.423  0.00  0.00    +0.117 C 
ATOM      9  C   UNL     1      -2.013   1.026  25.189  0.00  0.00    +0.116 C 
ATOM     10  C   UNL     1      -2.747   0.655  25.258  0.00  0.00    +0.115 C 
ATOM     11  N   UNL     1      -2.853  -0.108  24.966  0.00  0.00    -0.273 N 
ATOM     12  C   UNL     1      -2.225  -0.502  24.604  0.00  0.00    +0.115 C 
ATOM     13  C   UNL     1      -1.491  -0.133  24.535  0.00  0.00    +0.116 C 
ATOM     14  N   UNL     1      -1.385   0.632  24.827  0.00  0.00    -0.261 N 
ATOM     15  C   UNL     1      -0.730   1.132  24.838  0.00  0.00    +0.308 C 
ATOM     16  O   UNL     1       0.018   0.960  24.534  0.00  0.00    -0.252 OA
ATOM     17  C   UNL     1      -3.587  -0.479  25.035  0.00  0.00    +0.249 C 
ATOM     18  O   UNL     1      -4.215  -0.085  25.396  0.00  0.00    -0.270 OA
ENDROOT
BRANCH  17  19
ATOM     19  C   UNL     1      -3.693  -1.243  24.743  0.00  0.00    +0.054 A 
ATOM     20  C   UNL     1      -4.052  -1.358  24.008  0.00  0.00    +0.005 A 
ATOM     21  C   UNL     1      -4.158  -2.122  23.716  0.00  0.00    +0.000 A 
ATOM     22  C   UNL     1      -3.905  -2.771  24.158  0.00  0.00    +0.000 A 
ATOM     23  C   UNL     1      -3.547  -2.657  24.892  0.00  0.00    +0.000 A 
ATOM     24  C   UNL     1      -3.441  -1.892  25.185  0.00  0.00    +0.005 A 
ENDBRANCH  17  19
BRANCH   7   6
ATOM      6  C   UNL     1      -0.468   2.491  25.335  0.00  0.00    +0.122 C 
BRANCH   6   5
ATOM      1  F   UNL     1      -1.676   5.540  24.970  0.00  0.00    -0.204 F 
ATOM      2  C   UNL     1      -1.374   4.777  25.062  0.00  0.00    +0.140 A 
ATOM      3  C   UNL     1      -1.586   4.326  25.718  0.00  0.00    +0.029 A 
ATOM      4  C   UNL     1      -1.284   3.563  25.810  0.00  0.00    -0.000 A 
ATOM      5  C   UNL     1      -0.770   3.253  25.244  0.00  0.00    -0.002 A 
ATOM     25  C   UNL     1      -0.558   3.705  24.587  0.00  0.00    -0.000 A 
ATOM     26  C   UNL     1      -0.860   4.467  24.496  0.00  0.00    +0.029 A 
ENDBRANCH   6   5
ENDBRANCH   7   6
TORSDOF 3
ENDMDL
MODEL 2
REMARK VINA RESULT:     -12.9      1.547      2.257
REMARK  Name = 
REMARK  3 active torsions:
REMARK  status: ('A' for Active; 'I' for Inactive)
REMARK    1  A    between atoms: C_5  and  C_6
REMARK    2  A    between atoms: C_6  and  N_7
REMARK    3  A    between atoms: C_17  and  C_19
REMARK                            x       y       z     vdW  Elec       q    Type
REMARK                         _______ _______ _______ _____ _____    ______ ____
ROOT
ATOM      7  N   UNL     1      -3.935   2.557  25.037  0.00  0.00    -0.258 N 
ATOM      8  C   UNL     1      -3.259   2.143  24.805  0.00  0.00    +0.117 C 
ATOM      9  C   UNL     1      -3.449   1.341  24.780  0.00  0.00    +0.116 C 
ATOM     10  C   UNL     1      -3.002   0.673  24.589  0.00  0.00    +0.115 C 
ATOM     11  N   UNL     1      -3.347  -0.075  24.613  0.00  0.00    -0.273 N 
ATOM     12  C   UNL     1      -4.140  -0.157  24.828  0.00  0.00    +0.115 C 
ATOM     13  C   UNL     1      -4.587   0.509  25.019  0.00  0.00    +0.116 C 
ATOM     14  N   UNL     1      -4.241   1.259  24.995  0.00  0.00    -0.261 N 
ATOM     15  C   UNL     1      -4.541   2.010  25.154  0.00  0.00    +0.308 C 
ATOM     16  O   UNL     1      -5.313   2.184  25.389  0.00  0.00    -0.252 OA
ATOM     17  C   UNL     1      -2.901  -0.742  24.421  0.00  0.00    +0.249 C 
ATOM     18  O   UNL     1      -2.109  -0.660  24.206  0.00  0.00    -0.270 OA
ENDROOT
BRANCH  17  19
ATOM     19  C   UNL     1      -3.246  -1.490  24.445  0.00  0.00    +0.054 A 
ATOM     20  C   UNL     1      -3.732  -1.741  23.827  0.00  0.00    +0.005 A 
ATOM     21  C   UNL     1      -4.077  -2.490  23.851  0.00  0.00    +0.000 A 
ATOM     22  C   UNL     1      -3.937  -2.988  24.493  0.00  0.00    +0.000 A 
ATOM     23  C   UNL     1      -3.451  -2.738  25.111  0.00  0.00    +0.000 A 
ATOM     24  C   UNL     1      -3.106  -1.989  25.087  0.00  0.00    +0.005 A 
ENDBRANCH  17  19
BRANCH   7   6
ATOM      6  C   UNL     1      -3.994   3.374  25.133  0.00  0.00    +0.122 C 
BRANCH   6   5
ATOM      1  F   UNL     1      -1.266   5.192  25.513  0.00  0.00    -0.204 F 
ATOM      2  C   UNL     1      -1.948   4.737  25.418  0.00  0.00    +0.140 A 
ATOM      3  C   UNL     1      -2.254   4.606  24.664  0.00  0.00    +0.029 A 
ATOM      4  C   UNL     1      -2.936   4.151  24.568  0.00  0.00    -0.000 A 
ATOM      5  C   UNL     1      -3.312   3.828  25.228  0.00  0.00    -0.002 A 
ATOM     25  C   UNL     1      -3.005   3.960  25.983  0.00  0.00    -0.000 A 
ATOM     26  C   UNL     1      -2.324   4.415  26.077  0.00  0.00    +0.029 A 
ENDBRANCH   6   5
ENDBRANCH   7   6
TORSDOF 3
ENDMDL
MODEL 3
REMARK VINA RESULT:     -12.9      2.020      5.455
REMARK  Name = 
REMARK  3 active torsions:
REMARK  status: ('A' for Active; 'I' for Inactive)
REMARK    1  A    between atoms: C_5  and  C_6
REMARK    2  A    between atoms: C_6  and  N_7
REMARK    3  A    between atoms: C_17  and  C_19
REMARK                            x       y       z     vdW  Elec       q    Type
REMARK                         _______ _______ _______ _____ _____    ______ ____
ROOT
ATOM      7  N   UNL     1      -3.941   0.416  24.935  0.00  0.00    -0.258 N 
ATOM      8  C   UNL     1      -3.162   0.448  25.207  0.00  0.00    +0.117 C 
ATOM      9  C   UNL     1      -2.889   1.219  25.104  0.00  0.00    +0.116 C 
ATOM     10  C   UNL     1      -2.164   1.575  25.273  0.00  0.00    +0.115 C 
ATOM     11  N   UNL     1      -2.047   2.374  25.106  0.00  0.00    -0.273 N 
ATOM     12  C   UNL     1      -2.656   2.818  24.771  0.00  0.00    +0.115 C 
ATOM     13  C   UNL     1      -3.382   2.464  24.602  0.00  0.00    +0.116 C 
ATOM     14  N   UNL     1      -3.498   1.663  24.769  0.00  0.00    -0.261 N 
ATOM     15  C   UNL     1      -4.148   1.167  24.664  0.00  0.00    +0.308 C 
ATOM     16  O   UNL     1      -4.877   1.383  24.345  0.00  0.00    -0.252 OA
ATOM     17  C   UNL     1      -1.322   2.730  25.275  0.00  0.00    +0.249 C 
ATOM     18  O   UNL     1      -0.713   2.286  25.610  0.00  0.00    -0.270 OA
ENDROOT
BRANCH  17  19
ATOM     19  C   UNL     1      -1.206   3.529  25.108  0.00  0.00    +0.054 A 
ATOM     20  C   UNL     1      -0.731   3.754  24.472  0.00  0.00    +0.005 A 
ATOM     21  C   UNL     1      -0.614   4.553  24.305  0.00  0.00    +0.000 A 
ATOM     22  C   UNL     1      -0.973   5.128  24.774  0.00  0.00    +0.000 A 
ATOM     23  C   UNL     1      -1.449   4.905  25.410  0.00  0.00    +0.000 A 
ATOM     24  C   UNL     1      -1.565   4.105  25.577  0.00  0.00    +0.005 A 
ENDBRANCH  17  19
BRANCH   7   6
ATOM      6  C   UNL     1      -4.427  -0.251  24.934  0.00  0.00    +0.122 C 
BRANCH   6   5
ATOM      1  F   UNL     1      -3.169  -3.211  24.193  0.00  0.00    -0.204 F 
ATOM      2  C   UNL     1      -3.483  -2.471  24.379  0.00  0.00    +0.140 A 
ATOM      3  C   UNL     1      -3.418  -2.175  25.146  0.00  0.00    +0.029 A 
ATOM      4  C   UNL     1      -3.732  -1.435  25.332  0.00  0.00    -0.000 A 
ATOM      5  C   UNL     1      -4.112  -0.991  24.750  0.00  0.00    -0.002 A 
ATOM     25  C   UNL     1      -4.178  -1.287  23.982  0.00  0.00    -0.000 A 
ATOM     26  C   UNL     1      -3.864  -2.027  23.797  0.00  0.00    +0.029 A 
ENDBRANCH   6   5
ENDBRANCH   7   6
TORSDOF 3
ENDMDL
MODEL 4
REMARK VINA RESULT:     -12.1      2.131      5.228
REMARK  Name = 
REMARK  3 active torsions:
REMARK  status: ('A' for Active; 'I' for Inactive)
REMARK    1  A    between atoms: C_5  and  C_6
REMARK    2  A    between atoms: C_6  and  N_7
REMARK    3  A    between atoms: C_17  and  C_19
REMARK                            x       y       z     vdW  Elec       q    Type
REMARK                         _______ _______ _______ _____ _____    ______ ____
ROOT
ATOM      7  N   UNL     1      -1.565  -0.640  25.128  0.00  0.00    -0.258 N 
ATOM      8  C   UNL     1      -1.899  -0.171  24.537  0.00  0.00    +0.117 C 
ATOM      9  C   UNL     1      -1.742   0.618  24.719  0.00  0.00    +0.116 C 
ATOM     10  C   UNL     1      -1.935   1.322  24.335  0.00  0.00    +0.115 C 
ATOM     11  N   UNL     1      -1.698   2.045  24.654  0.00  0.00    -0.273 N 
ATOM     12  C   UNL     1      -1.268   2.063  25.358  0.00  0.00    +0.115 C 
ATOM     13  C   UNL     1      -1.075   1.360  25.743  0.00  0.00    +0.116 C 
ATOM     14  N   UNL     1      -1.312   0.636  25.423  0.00  0.00    -0.261 N 
ATOM     15  C   UNL     1      -1.203  -0.141  25.676  0.00  0.00    +0.308 C 
ATOM     16  O   UNL     1      -0.802  -0.378  26.357  0.00  0.00    -0.252 OA
ATOM     17  C   UNL     1      -1.891   2.749  24.271  0.00  0.00    +0.249 C 
ATOM     18  O   UNL     1      -2.321   2.731  23.567  0.00  0.00    -0.270 OA
ENDROOT
BRANCH  17  19
ATOM     19  C   UNL     1      -1.655   3.472  24.590  0.00  0.00    +0.054 A 
ATOM     20  C   UNL     1      -0.898   3.763  24.438  0.00  0.00    +0.005 A 
ATOM     21  C   UNL     1      -0.661   4.485  24.757  0.00  0.00    +0.000 A 
ATOM     22  C   UNL     1      -1.182   4.917  25.230  0.00  0.00    +0.000 A 
ATOM     23  C   UNL     1      -1.939   4.627  25.383  0.00  0.00    +0.000 A 
ATOM     24  C   UNL     1      -2.175   3.904  25.063  0.00  0.00    +0.005 A 
ENDBRANCH  17  19
BRANCH   7   6
ATOM      6  C   UNL     1      -1.591  -1.464  25.166  0.00  0.00    +0.122 C 
BRANCH   6   5
ATOM      1  F   UNL     1      -4.310  -3.079  24.223  0.00  0.00    -0.204 F 
ATOM      2  C   UNL     1      -3.630  -2.675  24.459  0.00  0.00    +0.140 A 
ATOM      3  C   UNL     1      -3.631  -2.240  25.159  0.00  0.00    +0.029 A 
ATOM      4  C   UNL     1      -2.951  -1.836  25.396  0.00  0.00    -0.000 A 
ATOM      5  C   UNL     1      -2.271  -1.867  24.931  0.00  0.00    -0.002 A 
ATOM     25  C   UNL     1      -2.270  -2.303  24.229  0.00  0.00    -0.000 A 
ATOM     26  C   UNL     1      -2.950  -2.706  23.994  0.00  0.00    +0.029 A 
ENDBRANCH   6   5
ENDBRANCH   7   6
TORSDOF 3
ENDMDL
