MODEL 1
REMARK VINA RESULT:     -12.9      0.000      0.000
REMARK  Name = 
REMARK  4 active torsions:
REMARK  status: ('A' for Active; 'I' for Inactive)
REMARK    1  A    between atoms: C_3  and  C_11
REMARK    2  A    between atoms: N_14  and  S_16
REMARK    3  A    between atoms: S_16  and  C_19
REMARK    4  A    between atoms: C_19  and  C_20
REMARK                            x       y       z     vdW  Elec       q    Type
REMARK                         _______ _______ _______ _____ _____    ______ ____
ROOT
ATOM     11  C   UNL     1      -2.885   2.015  24.391  0.00  0.00    +0.076 C 
ATOM     12  C   UNL     1      -3.185   1.796  23.654  0.00  0.00    +0.028 C 
ATOM     13  C   UNL     1      -3.569   1.071  23.740  0.00  0.00    +0.096 C 
ATOM     14  N   UNL     1      -3.506   0.841  24.530  0.00  0.00    -0.159 NA
ATOM     15  C   UNL     1      -3.083   1.424  24.933  0.00  0.00    +0.103 C 
ENDROOT
BRANCH  11   3
ATOM      1  C   UNL     1      -3.581   3.577  24.937  0.00  0.00    +0.132 C 
ATOM      2  N   UNL     1      -2.781   3.421  24.809  0.00  0.00    -0.313 N 
ATOM      3  C   UNL     1      -2.461   2.703  24.558  0.00  0.00    +0.121 A 
ATOM      4  N   UNL     1      -1.643   2.794  24.503  0.00  0.00    -0.231 NA
ATOM      5  C   UNL     1      -1.458   3.567  24.720  0.00  0.00    +0.098 A 
ATOM      6  C   UNL     1      -2.161   3.955  24.909  0.00  0.00    +0.079 A 
ATOM      7  C   UNL     1      -2.145   4.744  25.147  0.00  0.00    +0.019 A 
ATOM      8  C   UNL     1      -1.427   5.146  25.197  0.00  0.00    +0.002 A 
ATOM      9  C   UNL     1      -0.723   4.759  25.008  0.00  0.00    +0.002 A 
ATOM     10  C   UNL     1      -0.738   3.969  24.769  0.00  0.00    +0.021 A 
ENDBRANCH  11   3
BRANCH  14  16
ATOM     16  S   UNL     1      -3.812   0.149  24.859  0.00  0.00    +0.048 S 
ATOM     17  O   UNL     1      -3.103   0.029  25.264  0.00  0.00    -0.157 OA
ATOM     18  O   UNL     1      -4.521   0.270  24.454  0.00  0.00    -0.157 OA
BRANCH  16  19
ATOM     19  C   UNL     1      -4.119  -0.542  25.188  0.00  0.00    +0.195 C 
BRANCH  19  20
ATOM     20  C   UNL     1      -3.923  -1.275  24.864  0.00  0.00    +0.003 A 
ATOM     21  C   UNL     1      -4.298  -1.536  24.177  0.00  0.00    -0.003 A 
ATOM     22  C   UNL     1      -4.103  -2.268  23.852  0.00  0.00    -0.000 A 
ATOM     23  C   UNL     1      -3.532  -2.741  24.215  0.00  0.00    -0.000 A 
ATOM     24  C   UNL     1      -3.157  -2.481  24.902  0.00  0.00    -0.000 A 
ATOM     25  C   UNL     1      -3.353  -1.748  25.227  0.00  0.00    -0.003 A 
ENDBRANCH  19  20
ENDBRANCH  16  19
ENDBRANCH  14  16
TORSDOF 4
ENDMDL
MODEL 2
REMARK VINA RESULT:     -12.7      1.336      5.144
REMARK  Name = 
REMARK  4 active torsions:
REMARK  status: ('A' for Active; 'I' for Inactive)
REMARK    1  A    between atoms: C_3  and  C_11
REMARK    2  A    between atoms: N_14  and  S_16
REMARK    3  A    between atoms: S_16  and  C_19
REMARK    4  A    between atoms: C_19  and  C_20
REMARK                            x       y       z     vdW  Elec       q    Type
REMARK                         _______ _______ _______ _____ _____    ______ ____
ROOT
ATOM     11  C   UNL     1      -4.339   0.532  24.771  0.00  0.00    +0.076 C 
ATOM     12  C   UNL     1      -5.014   0.850  25.124  0.00  0.00    +0.028 C 
ATOM     13  C   UNL     1      -4.950   1.672  25.102  0.00  0.00    +0.096 C 
ATOM     14  N   UNL     1      -4.236   1.863  24.736  0.00  0.00    -0.159 NA
ATOM     15  C   UNL     1      -3.858   1.159  24.531  0.00  0.00    +0.103 C 
ENDROOT
BRANCH  11   3
ATOM      1  C   UNL     1      -3.386  -0.491  25.897  0.00  0.00    +0.132 C 
ATOM      2  N   UNL     1      -3.736  -0.741  25.193  0.00  0.00    -0.313 N 
ATOM      3  C   UNL     1      -4.174  -0.270  24.675  0.00  0.00    +0.121 A 
ATOM      4  N   UNL     1      -4.417  -0.743  24.045  0.00  0.00    -0.231 NA
ATOM      5  C   UNL     1      -4.130  -1.505  24.173  0.00  0.00    +0.098 A 
ATOM      6  C   UNL     1      -3.709  -1.504  24.882  0.00  0.00    +0.079 A 
ATOM      7  C   UNL     1      -3.355  -2.198  25.153  0.00  0.00    +0.019 A 
ATOM      8  C   UNL     1      -3.422  -2.894  24.715  0.00  0.00    +0.002 A 
ATOM      9  C   UNL     1      -3.844  -2.896  24.006  0.00  0.00    +0.002 A 
ATOM     10  C   UNL     1      -4.198  -2.202  23.734  0.00  0.00    +0.021 A 
ENDBRANCH  11   3
BRANCH  14  16
ATOM     16  S   UNL     1      -3.950   2.624  24.598  0.00  0.00    +0.048 S 
ATOM     17  O   UNL     1      -3.568   2.358  23.918  0.00  0.00    -0.157 OA
ATOM     18  O   UNL     1      -4.333   2.891  25.280  0.00  0.00    -0.157 OA
BRANCH  16  19
ATOM     19  C   UNL     1      -3.665   3.386  24.462  0.00  0.00    +0.195 C 
BRANCH  19  20
ATOM     20  C   UNL     1      -2.977   3.643  24.841  0.00  0.00    +0.003 A 
ATOM     21  C   UNL     1      -3.025   4.016  25.575  0.00  0.00    -0.003 A 
ATOM     22  C   UNL     1      -2.339   4.272  25.953  0.00  0.00    -0.000 A 
ATOM     23  C   UNL     1      -1.603   4.155  25.597  0.00  0.00    -0.000 A 
ATOM     24  C   UNL     1      -1.555   3.782  24.863  0.00  0.00    -0.000 A 
ATOM     25  C   UNL     1      -2.243   3.525  24.485  0.00  0.00    -0.003 A 
ENDBRANCH  19  20
ENDBRANCH  16  19
ENDBRANCH  14  16
TORSDOF 4
ENDMDL
MODEL 3
REMARK VINA RESULT:     -12.2      1.758      5.386
REMARK  Name = 
REMARK  4 active torsions:
REMARK  status: ('A' for Active; 'I' for Inactive)
REMARK    1  A    between atoms: C_3  and  C_11
REMARK    2  A    between atoms: N_14  and  S_16
REMARK    3  A    between atoms: S_16  and  C_19
REMARK    4  A    between atoms: C_19  and  C_20
REMARK                            x       y       z     vdW  Elec       q    Type
REMARK                         _______ _______ _______ _____ _____    ______ ____
ROOT
ATOM     11  C   UNL     1      -1.615   0.292  24.595  0.00  0.00    +0.076 C 
ATOM     12  C   UNL     1      -0.966   0.438  24.107  0.00  0.00    +0.028 C 
ATOM     13  C   UNL     1      -0.609   1.138  24.360  0.00  0.00    +0.096 C 
ATOM     14  N   UNL     1      -1.037   1.425  25.004  0.00  0.00    -0.159 NA
ATOM     15  C   UNL     1      -1.659   0.902  25.150  0.00  0.00    +0.103 C 
ENDROOT
BRANCH  11   3
ATOM      1  C   UNL     1      -1.260  -1.392  25.104  0.00  0.00    +0.132 C 
ATOM      2  N   UNL     1      -1.966  -1.125  24.772  0.00  0.00    -0.313 N 
ATOM      3  C   UNL     1      -2.129  -0.350  24.538  0.00  0.00    +0.121 A 
ATOM      4  N   UNL     1      -2.897  -0.331  24.238  0.00  0.00    -0.231 NA
ATOM      5  C   UNL     1      -3.208  -1.093  24.287  0.00  0.00    +0.098 A 
ATOM      6  C   UNL     1      -2.633  -1.583  24.617  0.00  0.00    +0.079 A 
ATOM      7  C   UNL     1      -2.791  -2.385  24.733  0.00  0.00    +0.019 A 
ATOM      8  C   UNL     1      -3.524  -2.696  24.519  0.00  0.00    +0.002 A 
ATOM      9  C   UNL     1      -4.100  -2.206  24.189  0.00  0.00    +0.002 A 
ATOM     10  C   UNL     1      -3.943  -1.405  24.073  0.00  0.00    +0.021 A 
ENDBRANCH  11   3
BRANCH  14  16
ATOM     16  S   UNL     1      -0.873   2.112  25.428  0.00  0.00    +0.048 S 
ATOM     17  O   UNL     1      -1.590   2.037  25.828  0.00  0.00    -0.157 OA
ATOM     18  O   UNL     1      -0.154   2.187  25.028  0.00  0.00    -0.157 OA
BRANCH  16  19
ATOM     19  C   UNL     1      -0.707   2.801  25.852  0.00  0.00    +0.195 C 
BRANCH  19  20
ATOM     20  C   UNL     1      -1.020   3.523  25.604  0.00  0.00    +0.003 A 
ATOM     21  C   UNL     1      -1.780   3.745  25.835  0.00  0.00    -0.003 A 
ATOM     22  C   UNL     1      -2.093   4.466  25.587  0.00  0.00    -0.000 A 
ATOM     23  C   UNL     1      -1.645   4.967  25.107  0.00  0.00    -0.000 A 
ATOM     24  C   UNL     1      -0.885   4.745  24.876  0.00  0.00    -0.000 A 
ATOM     25  C   UNL     1      -0.572   4.023  25.124  0.00  0.00    -0.003 A 
ENDBRANCH  19  20
ENDBRANCH  16  19
ENDBRANCH  14  16
TORSDOF 4
ENDMDL
