REMARK  Name = 
REMARK  5 active torsions:
REMARK  status: ('A' for Active; 'I' for Inactive)
REMARK    1  A    between atoms: N_3  and  C_4
REMARK    2  A    between atoms: C_4  and  C_5
REMARK    3  A    between atoms: C_12  and  C_13
REMARK    4  A    between atoms: C_13  and  N_14
REMARK    5  A    between atoms: N_28  and  C_29
REMARK                            x       y       z     vdW  Elec       q    Type
REMARK                         _______ _______ _______ _____ _____    ______ ____
ROOT
ATOM      5  C   UNL     1       0.465  -5.199   0.000  0.00  0.00    +0.079 C 
ATOM      6  C   UNL     1       1.025  -4.658   0.000  0.00  0.00    +0.018 C 
ATOM      7  C   UNL     1       0.906  -3.857   0.000  0.00  0.00    +0.005 C 
ATOM      8  C   UNL     1       1.681  -3.405   0.000  0.00  0.00    +0.017 C 
ATOM      9  C   UNL     1       1.302  -3.938   0.000  0.00  0.00    +0.072 C 
ATOM     10  N   UNL     1       0.353  -4.381   0.000  0.00  0.00    -0.272 NA
ATOM     11  C   UNL     1      -0.402  -3.868   0.000  0.00  0.00    +0.073 C 
ATOM     12  C   UNL     1       0.176  -3.370   0.000  0.00  0.00    +0.032 C 
ENDROOT
BRANCH   5   4
ATOM      4  C   UNL     1       0.195  -5.978   0.000  0.00  0.00    +0.133 C 
BRANCH   4   3
ATOM      1  O   UNL     1      -0.346  -7.537   0.000  0.00  0.00    -0.249 OA
ATOM      2  C   UNL     1       0.464  -7.381   0.000  0.00  0.00    +0.344 C 
ATOM      3  N   UNL     1       0.735  -6.602   0.000  0.00  0.00    -0.185 NA
ATOM     28  N   UNL     1       1.004  -8.005   0.000  0.00  0.00    -0.161 NA
BRANCH  28  29
ATOM     29  C   UNL     1       0.734  -8.785   0.000  0.00  0.00    +0.075 A 
ATOM     30  C   UNL     1       1.274  -9.408   0.000  0.00  0.00    +0.017 A 
ATOM     31  C   UNL     1       1.004 -10.188   0.000  0.00  0.00    +0.001 A 
ATOM     32  C   UNL     1       0.194 -10.344   0.000  0.00  0.00    +0.000 A 
ATOM     33  C   UNL     1      -0.346  -9.720   0.000  0.00  0.00    +0.001 A 
ATOM     34  C   UNL     1      -0.076  -8.940   0.000  0.00  0.00    +0.017 A 
ENDBRANCH  28  29
ENDBRANCH   4   3
ENDBRANCH   5   4
BRANCH  12  13
ATOM     13  C   UNL     1       0.125  -2.547   0.000  0.00  0.00    +0.073 C 
BRANCH  13  14
ATOM     14  N   UNL     1       0.813  -2.091   0.000  0.00  0.00    -0.272 NA
ATOM     15  C   UNL     1       1.629  -1.912   0.000  0.00  0.00    +0.074 C 
ATOM     16  C   UNL     1       1.582  -0.925   0.000  0.00  0.00    +0.039 C 
ATOM     17  C   UNL     1       1.713  -0.121   0.000  0.00  0.00    +0.011 C 
ATOM     18  C   UNL     1       1.163  -0.557   0.000  0.00  0.00    +0.054 C 
ATOM     19  C   UNL     1       1.225  -1.510   0.000  0.00  0.00    +0.078 C 
ATOM     20  C   UNL     1       0.244  -0.558   0.000  0.00  0.00    +0.041 A 
ATOM     21  C   UNL     1      -0.397  -0.039   0.000  0.00  0.00    +0.013 A 
ATOM     22  C   UNL     1      -1.167  -0.335   0.000  0.00  0.00    +0.006 A 
ATOM     23  C   UNL     1      -1.296  -1.150   0.000  0.00  0.00    +0.061 A 
ATOM     24  C   UNL     1      -0.655  -1.669   0.000  0.00  0.00    +0.261 A 
ATOM     25  O   UNL     1      -0.784  -2.484   0.000  0.00  0.00    -0.267 OA
ATOM     26  N   UNL     1       0.115  -1.373   0.000  0.00  0.00    -0.299 N 
ATOM     27  C   UNL     1       0.622  -0.936   0.000  0.00  0.00    +0.110 C 
ENDBRANCH  13  14
ENDBRANCH  12  13
TORSDOF 5
