REMARK  Name = 
REMARK  3 active torsions:
REMARK  status: ('A' for Active; 'I' for Inactive)
REMARK    1  A    between atoms: O_2  and  C_3
REMARK    2  A    between atoms: C_12  and  C_14
REMARK    3  A    between atoms: C_17  and  C_19
REMARK                            x       y       z     vdW  Elec       q    Type
REMARK                         _______ _______ _______ _____ _____    ______ ____
ROOT
ATOM      3  C   UNL     1       2.739  -0.978   0.000  0.00  0.00    +0.229 A 
ATOM      4  N   UNL     1       2.739  -1.803   0.000  0.00  0.00    -0.179 NA
ATOM      5  C   UNL     1       2.024  -2.216   0.000  0.00  0.00    +0.223 A 
ATOM      6  N   UNL     1       1.310  -1.803   0.000  0.00  0.00    -0.212 NA
ATOM      7  C   UNL     1       1.310  -0.978   0.000  0.00  0.00    +0.107 A 
ATOM      8  C   UNL     1       2.024  -0.566   0.000  0.00  0.00    +0.078 A 
ATOM      9  N   UNL     1       2.024  -3.041   0.000  0.00  0.00    -0.278 N 
ATOM     10  C   UNL     1       2.692  -3.525   0.000  0.00  0.00    +0.094 C 
ATOM     11  C   UNL     1       2.437  -4.310   0.000  0.00  0.00    +0.033 C 
ATOM     12  C   UNL     1       1.612  -4.310   0.000  0.00  0.00    +0.100 C 
ATOM     13  C   UNL     1       1.357  -3.525   0.000  0.00  0.00    +0.103 C 
ENDROOT
BRANCH  12  14
ATOM     14  C   UNL     1       1.127  -4.977   0.000  0.00  0.00    +0.228 A 
ATOM     15  N   UNL     1       1.382  -5.762   0.000  0.00  0.00    -0.111 NA
ATOM     16  N   UNL     1       0.715  -6.247   0.000  0.00  0.00    -0.107 NA
ATOM     17  C   UNL     1       0.047  -5.762   0.000  0.00  0.00    +0.250 A 
ATOM     18  O   UNL     1       0.302  -4.977   0.000  0.00  0.00    -0.419 OA
BRANCH  17  19
ATOM     19  C   UNL     1      -0.738  -6.017   0.000  0.00  0.00    +0.055 A 
ATOM     20  C   UNL     1      -0.909  -6.824   0.000  0.00  0.00    +0.004 A 
ATOM     21  C   UNL     1      -1.694  -7.079   0.000  0.00  0.00    -0.004 A 
ATOM     22  C   UNL     1      -2.307  -6.527   0.000  0.00  0.00    -0.022 A 
ATOM     23  C   UNL     1      -3.091  -6.782   0.000  0.00  0.00    +0.031 C 
ATOM     24  C   UNL     1      -2.135  -5.720   0.000  0.00  0.00    -0.004 A 
ATOM     25  C   UNL     1      -1.351  -5.465   0.000  0.00  0.00    +0.004 A 
ENDBRANCH  17  19
ENDBRANCH  12  14
BRANCH   3   2
ATOM      1  C   UNL     1       3.453   0.260   0.000  0.00  0.00    +0.254 C 
ATOM      2  O   UNL     1       3.453  -0.566   0.000  0.00  0.00    -0.456 OA
ENDBRANCH   3   2
TORSDOF 3
