MODEL 1
REMARK VINA RESULT:     -10.6      0.000      0.000
REMARK  Name = 
REMARK  6 active torsions:
REMARK  status: ('A' for Active; 'I' for Inactive)
REMARK    1  A    between atoms: C_4  and  C_7
REMARK    2  A    between atoms: N_9  and  C_10
REMARK    3  A    between atoms: C_13  and  C_16
REMARK    4  A    between atoms: N_21  and  C_22
REMARK    5  A    between atoms: C_22  and  C_23
REMARK    6  A    between atoms: C_29  and  C_30
REMARK                            x       y       z     vdW  Elec       q    Type
REMARK                         _______ _______ _______ _____ _____    ______ ____
ROOT
ATOM     16  C   UNL     1      -1.202  -0.385  24.661  0.00  0.00    +0.159 C 
ATOM     17  O   UNL     1      -0.610  -0.889  24.385  0.00  0.00    -0.341 OA
ATOM     18  C   UNL     1      -0.725  -1.706  24.398  0.00  0.00    +0.227 C 
ATOM     19  C   UNL     1      -1.431  -2.019  24.687  0.00  0.00    +0.256 C 
ATOM     20  O   UNL     1      -1.545  -2.836  24.700  0.00  0.00    -0.272 OA
ATOM     21  N   UNL     1      -2.023  -1.516  24.962  0.00  0.00    -0.270 N 
ATOM     29  C   UNL     1      -1.909  -0.699  24.950  0.00  0.00    +0.140 C 
ENDROOT
BRANCH  16  13
ATOM     10  C   UNL     1      -0.862   2.066  24.622  0.00  0.00    +0.074 A 
ATOM     11  C   UNL     1      -1.260   1.695  24.003  0.00  0.00    +0.016 A 
ATOM     12  C   UNL     1      -1.374   0.878  24.015  0.00  0.00    -0.001 A 
ATOM     13  C   UNL     1      -1.089   0.431  24.648  0.00  0.00    +0.006 A 
ATOM     14  C   UNL     1      -0.691   0.803  25.268  0.00  0.00    -0.001 A 
ATOM     15  C   UNL     1      -0.577   1.620  25.256  0.00  0.00    +0.016 A 
BRANCH  10   9
ATOM      7  C   UNL     1      -1.280   3.380  25.000  0.00  0.00    +0.290 C 
ATOM      8  O   UNL     1      -1.924   3.059  25.403  0.00  0.00    -0.266 OA
ATOM      9  N   UNL     1      -0.749   2.882  24.610  0.00  0.00    -0.174 NA
BRANCH   7   4
ATOM      1  C   UNL     1      -1.776   6.240  25.087  0.00  0.00    +0.075 C 
ATOM      2  C   UNL     1      -1.394   5.511  25.027  0.00  0.00    +0.155 A 
ATOM      3  C   UNL     1      -1.752   4.770  25.076  0.00  0.00    +0.063 A 
ATOM      4  C   UNL     1      -1.165   4.197  24.987  0.00  0.00    +0.178 A 
ATOM      5  N   UNL     1      -0.445   4.584  24.882  0.00  0.00    -0.073 NA
ATOM      6  O   UNL     1      -0.586   5.396  24.907  0.00  0.00    -0.358 OA
ENDBRANCH   7   4
ENDBRANCH  10   9
ENDBRANCH  16  13
BRANCH  29  30
ATOM     30  C   UNL     1      -2.501  -0.196  25.225  0.00  0.00    +0.205 C 
ATOM     31  O   UNL     1      -2.686  -0.177  26.029  0.00  0.00    -0.218 OA
ENDBRANCH  29  30
BRANCH  21  22
ATOM     22  C   UNL     1      -2.730  -1.829  25.251  0.00  0.00    +0.120 C 
BRANCH  22  23
ATOM     23  C   UNL     1      -3.304  -2.104  24.727  0.00  0.00    -0.002 A 
ATOM     24  C   UNL     1      -3.782  -1.568  24.321  0.00  0.00    -0.003 A 
ATOM     25  C   UNL     1      -4.356  -1.843  23.797  0.00  0.00    -0.000 A 
ATOM     26  C   UNL     1      -4.452  -2.653  23.677  0.00  0.00    -0.000 A 
ATOM     27  C   UNL     1      -3.974  -3.189  24.083  0.00  0.00    -0.000 A 
ATOM     28  C   UNL     1      -3.400  -2.914  24.608  0.00  0.00    -0.003 A 
ENDBRANCH  22  23
ENDBRANCH  21  22
TORSDOF 6
ENDMDL
MODEL 2
REMARK VINA RESULT:      -9.9      2.911      4.754
REMARK  Name = 
REMARK  6 active torsions:
REMARK  status: ('A' for Active; 'I' for Inactive)
REMARK    1  A    between atoms: C_4  and  C_7
REMARK    2  A    between atoms: N_9  and  C_10
REMARK    3  A    between atoms: C_13  and  C_16
REMARK    4  A    between atoms: N_21  and  C_22
REMARK    5  A    between atoms: C_22  and  C_23
REMARK    6  A    between atoms: C_29  and  C_30
REMARK                            x       y       z     vdW  Elec       q    Type
REMARK                         _______ _______ _______ _____ _____    ______ ____
ROOT
ATOM     16  C   UNL     1      -1.949   2.975  25.186  0.00  0.00    +0.159 C 
ATOM     17  O   UNL     1      -1.908   3.459  25.852  0.00  0.00    -0.341 OA
ATOM     18  C   UNL     1      -2.585   3.844  26.125  0.00  0.00    +0.227 C 
ATOM     19  C   UNL     1      -3.303   3.744  25.731  0.00  0.00    +0.256 C 
ATOM     20  O   UNL     1      -3.980   4.129  26.004  0.00  0.00    -0.272 OA
ATOM     21  N   UNL     1      -3.344   3.260  25.065  0.00  0.00    -0.270 N 
ATOM     29  C   UNL     1      -2.667   2.875  24.792  0.00  0.00    +0.140 C 
ENDROOT
BRANCH  16  13
ATOM     10  C   UNL     1       0.081   1.820  24.367  0.00  0.00    +0.074 A 
ATOM     11  C   UNL     1      -0.094   2.582  24.105  0.00  0.00    +0.016 A 
ATOM     12  C   UNL     1      -0.771   2.967  24.377  0.00  0.00    -0.001 A 
ATOM     13  C   UNL     1      -1.272   2.590  24.913  0.00  0.00    +0.006 A 
ATOM     14  C   UNL     1      -1.096   1.827  25.176  0.00  0.00    -0.001 A 
ATOM     15  C   UNL     1      -0.420   1.443  24.903  0.00  0.00    +0.016 A 
BRANCH  10   9
ATOM      7  C   UNL     1       0.704   0.895  23.473  0.00  0.00    +0.290 C 
ATOM      8  O   UNL     1      -0.028   0.740  23.124  0.00  0.00    -0.266 OA
ATOM      9  N   UNL     1       0.758   1.436  24.094  0.00  0.00    -0.174 NA
BRANCH   7   4
ATOM      1  C   UNL     1       3.444   0.361  22.672  0.00  0.00    +0.075 C 
ATOM      2  C   UNL     1       2.640   0.265  22.832  0.00  0.00    +0.155 A 
ATOM      3  C   UNL     1       2.131   0.845  23.123  0.00  0.00    +0.063 A 
ATOM      4  C   UNL     1       1.381   0.510  23.200  0.00  0.00    +0.178 A 
ATOM      5  N   UNL     1       1.427  -0.277  22.956  0.00  0.00    -0.073 NA
ATOM      6  O   UNL     1       2.204  -0.428  22.729  0.00  0.00    -0.358 OA
ENDBRANCH   7   4
ENDBRANCH  10   9
ENDBRANCH  16  13
BRANCH  29  30
ATOM     30  C   UNL     1      -2.708   2.391  24.126  0.00  0.00    +0.205 C 
ATOM     31  O   UNL     1      -2.837   2.723  23.382  0.00  0.00    -0.218 OA
ENDBRANCH  29  30
BRANCH  21  22
ATOM     22  C   UNL     1      -4.062   3.160  24.670  0.00  0.00    +0.120 C 
BRANCH  22  23
ATOM     23  C   UNL     1      -4.656   2.697  25.006  0.00  0.00    -0.002 A 
ATOM     24  C   UNL     1      -5.278   3.054  25.413  0.00  0.00    -0.003 A 
ATOM     25  C   UNL     1      -5.872   2.591  25.748  0.00  0.00    -0.000 A 
ATOM     26  C   UNL     1      -5.844   1.770  25.677  0.00  0.00    -0.000 A 
ATOM     27  C   UNL     1      -5.222   1.411  25.270  0.00  0.00    -0.000 A 
ATOM     28  C   UNL     1      -4.628   1.875  24.935  0.00  0.00    -0.003 A 
ENDBRANCH  22  23
ENDBRANCH  21  22
TORSDOF 6
ENDMDL
MODEL 3
REMARK VINA RESULT:      -9.7      2.788      4.312
REMARK  Name = 
REMARK  6 active torsions:
REMARK  status: ('A' for Active; 'I' for Inactive)
REMARK    1  A    between atoms: C_4  and  C_7
REMARK    2  A    between atoms: N_9  and  C_10
REMARK    3  A    between atoms: C_13  and  C_16
REMARK    4  A    between atoms: N_21  and  C_22
REMARK    5  A    between atoms: C_22  and  C_23
REMARK    6  A    between atoms: C_29  and  C_30
REMARK                            x       y       z     vdW  Elec       q    Type
REMARK                         _______ _______ _______ _____ _____    ______ ____
ROOT
ATOM     16  C   UNL     1      -2.560  -0.011  24.834  0.00  0.00    +0.159 C 
ATOM     17  O   UNL     1      -2.833  -0.510  25.431  0.00  0.00    -0.341 OA
ATOM     18  C   UNL     1      -3.620  -0.467  25.677  0.00  0.00    +0.227 C 
ATOM     19  C   UNL     1      -4.132   0.076  25.327  0.00  0.00    +0.256 C 
ATOM     20  O   UNL     1      -4.919   0.119  25.574  0.00  0.00    -0.272 OA
ATOM     21  N   UNL     1      -3.859   0.575  24.730  0.00  0.00    -0.270 N 
ATOM     29  C   UNL     1      -3.074   0.533  24.483  0.00  0.00    +0.140 C 
ENDROOT
BRANCH  16  13
ATOM     10  C   UNL     1      -0.203  -0.140  24.093  0.00  0.00    +0.074 A 
ATOM     11  C   UNL     1      -0.739  -0.723  23.865  0.00  0.00    +0.016 A 
ATOM     12  C   UNL     1      -1.525  -0.680  24.112  0.00  0.00    -0.001 A 
ATOM     13  C   UNL     1      -1.775  -0.053  24.587  0.00  0.00    +0.006 A 
ATOM     14  C   UNL     1      -1.237   0.530  24.815  0.00  0.00    -0.001 A 
ATOM     15  C   UNL     1      -0.452   0.487  24.568  0.00  0.00    +0.016 A 
BRANCH  10   9
ATOM      7  C   UNL     1       0.831   0.238  23.180  0.00  0.00    +0.290 C 
ATOM      8  O   UNL     1       0.291   0.702  22.762  0.00  0.00    -0.266 OA
ATOM      9  N   UNL     1       0.583  -0.183  23.846  0.00  0.00    -0.174 NA
BRANCH   7   4
ATOM      1  C   UNL     1       3.649   0.837  22.820  0.00  0.00    +0.075 C 
ATOM      2  C   UNL     1       2.912   0.470  22.768  0.00  0.00    +0.155 A 
ATOM      3  C   UNL     1       2.218   0.722  23.135  0.00  0.00    +0.063 A 
ATOM      4  C   UNL     1       1.617   0.195  22.933  0.00  0.00    +0.178 A 
ATOM      5  N   UNL     1       1.940  -0.384  22.442  0.00  0.00    -0.073 NA
ATOM      6  O   UNL     1       2.740  -0.213  22.340  0.00  0.00    -0.358 OA
ENDBRANCH   7   4
ENDBRANCH  10   9
ENDBRANCH  16  13
BRANCH  29  30
ATOM     30  C   UNL     1      -2.801   1.032  23.887  0.00  0.00    +0.205 C 
ATOM     31  O   UNL     1      -3.083   0.948  23.116  0.00  0.00    -0.218 OA
ENDBRANCH  29  30
BRANCH  21  22
ATOM     22  C   UNL     1      -4.373   1.119  24.380  0.00  0.00    +0.120 C 
BRANCH  22  23
ATOM     23  C   UNL     1      -4.645   1.766  24.811  0.00  0.00    -0.002 A 
ATOM     24  C   UNL     1      -5.424   1.784  25.081  0.00  0.00    -0.003 A 
ATOM     25  C   UNL     1      -5.697   2.432  25.512  0.00  0.00    -0.000 A 
ATOM     26  C   UNL     1      -5.190   3.063  25.674  0.00  0.00    -0.000 A 
ATOM     27  C   UNL     1      -4.411   3.046  25.404  0.00  0.00    -0.000 A 
ATOM     28  C   UNL     1      -4.138   2.397  24.972  0.00  0.00    -0.003 A 
ENDBRANCH  22  23
ENDBRANCH  21  22
TORSDOF 6
ENDMDL
MODEL 4
REMARK VINA RESULT:      -9.6      1.797      6.262
REMARK  Name = 
REMARK  6 active torsions:
REMARK  status: ('A' for Active; 'I' for Inactive)
REMARK    1  A    between atoms: C_4  and  C_7
REMARK    2  A    between atoms: N_9  and  C_10
REMARK    3  A    between atoms: C_13  and  C_16
REMARK    4  A    between atoms: N_21  and  C_22
REMARK    5  A    between atoms: C_22  and  C_23
REMARK    6  A    between atoms: C_29  and  C_30
REMARK                            x       y       z     vdW  Elec       q    Type
REMARK                         _______ _______ _______ _____ _____    ______ ____
ROOT
ATOM     16  C   UNL     1      -3.734   2.611  24.334  0.00  0.00    +0.159 C 
ATOM     17  O   UNL     1      -4.161   3.065  23.793  0.00  0.00    -0.341 OA
ATOM     18  C   UNL     1      -4.099   3.888  23.806  0.00  0.00    +0.227 C 
ATOM     19  C   UNL     1      -3.611   4.256  24.359  0.00  0.00    +0.256 C 
ATOM     20  O   UNL     1      -3.549   5.079  24.372  0.00  0.00    -0.272 OA
ATOM     21  N   UNL     1      -3.184   3.802  24.900  0.00  0.00    -0.270 N 
ATOM     29  C   UNL     1      -3.246   2.980  24.888  0.00  0.00    +0.140 C 
ENDROOT
BRANCH  16  13
ATOM     10  C   UNL     1      -3.919   0.144  24.297  0.00  0.00    +0.074 A 
ATOM     11  C   UNL     1      -4.427   0.588  24.770  0.00  0.00    +0.016 A 
ATOM     12  C   UNL     1      -4.366   1.411  24.783  0.00  0.00    -0.001 A 
ATOM     13  C   UNL     1      -3.796   1.789  24.321  0.00  0.00    +0.006 A 
ATOM     14  C   UNL     1      -3.287   1.344  23.847  0.00  0.00    -0.001 A 
ATOM     15  C   UNL     1      -3.349   0.521  23.835  0.00  0.00    +0.016 A 
BRANCH  10   9
ATOM      7  C   UNL     1      -3.479  -1.138  24.754  0.00  0.00    +0.290 C 
ATOM      8  O   UNL     1      -2.917  -0.773  25.235  0.00  0.00    -0.266 OA
ATOM      9  N   UNL     1      -3.980  -0.679  24.285  0.00  0.00    -0.174 NA
BRANCH   7   4
ATOM      1  C   UNL     1      -3.861  -3.865  23.832  0.00  0.00    +0.075 C 
ATOM      2  C   UNL     1      -3.717  -3.214  24.317  0.00  0.00    +0.155 A 
ATOM      3  C   UNL     1      -3.707  -2.424  24.079  0.00  0.00    +0.063 A 
ATOM      4  C   UNL     1      -3.541  -1.961  24.741  0.00  0.00    +0.178 A 
ATOM      5  N   UNL     1      -3.448  -2.464  25.388  0.00  0.00    -0.073 NA
ATOM      6  O   UNL     1      -3.556  -3.238  25.126  0.00  0.00    -0.358 OA
ENDBRANCH   7   4
ENDBRANCH  10   9
ENDBRANCH  16  13
BRANCH  29  30
ATOM     30  C   UNL     1      -2.819   2.526  25.428  0.00  0.00    +0.205 C 
ATOM     31  O   UNL     1      -3.004   2.559  26.231  0.00  0.00    -0.218 OA
ENDBRANCH  29  30
BRANCH  21  22
ATOM     22  C   UNL     1      -2.696   4.171  25.454  0.00  0.00    +0.120 C 
BRANCH  22  23
ATOM     23  C   UNL     1      -1.967   4.479  25.220  0.00  0.00    -0.002 A 
ATOM     24  C   UNL     1      -1.859   5.296  25.178  0.00  0.00    -0.003 A 
ATOM     25  C   UNL     1      -1.131   5.605  24.945  0.00  0.00    -0.000 A 
ATOM     26  C   UNL     1      -0.510   5.097  24.754  0.00  0.00    -0.000 A 
ATOM     27  C   UNL     1      -0.617   4.280  24.795  0.00  0.00    -0.000 A 
ATOM     28  C   UNL     1      -1.346   3.971  25.029  0.00  0.00    -0.003 A 
ENDBRANCH  22  23
ENDBRANCH  21  22
TORSDOF 6
ENDMDL
MODEL 5
REMARK VINA RESULT:      -9.4      2.551      3.800
REMARK  Name = 
REMARK  6 active torsions:
REMARK  status: ('A' for Active; 'I' for Inactive)
REMARK    1  A    between atoms: C_4  and  C_7
REMARK    2  A    between atoms: N_9  and  C_10
REMARK    3  A    between atoms: C_13  and  C_16
REMARK    4  A    between atoms: N_21  and  C_22
REMARK    5  A    between atoms: C_22  and  C_23
REMARK    6  A    between atoms: C_29  and  C_30
REMARK                            x       y       z     vdW  Elec       q    Type
REMARK                         _______ _______ _______ _____ _____    ______ ____
ROOT
ATOM     16  C   UNL     1      -1.742   0.693  24.431  0.00  0.00    +0.159 C 
ATOM     17  O   UNL     1      -2.265   1.327  24.364  0.00  0.00    -0.341 OA
ATOM     18  C   UNL     1      -3.041   1.253  24.635  0.00  0.00    +0.227 C 
ATOM     19  C   UNL     1      -3.293   0.544  24.973  0.00  0.00    +0.256 C 
ATOM     20  O   UNL     1      -4.069   0.470  25.244  0.00  0.00    -0.272 OA
ATOM     21  N   UNL     1      -2.770  -0.090  25.040  0.00  0.00    -0.270 N 
ATOM     29  C   UNL     1      -1.994  -0.016  24.770  0.00  0.00    +0.140 C 
ENDROOT
BRANCH  16  13
ATOM     10  C   UNL     1       0.586   0.916  23.620  0.00  0.00    +0.074 A 
ATOM     11  C   UNL     1       0.380   1.202  24.365  0.00  0.00    +0.016 A 
ATOM     12  C   UNL     1      -0.396   1.128  24.636  0.00  0.00    -0.001 A 
ATOM     13  C   UNL     1      -0.966   0.767  24.161  0.00  0.00    +0.006 A 
ATOM     14  C   UNL     1      -0.760   0.481  23.415  0.00  0.00    -0.001 A 
ATOM     15  C   UNL     1       0.016   0.555  23.144  0.00  0.00    +0.016 A 
BRANCH  10   9
ATOM      7  C   UNL     1       1.770   0.325  23.079  0.00  0.00    +0.290 C 
ATOM      8  O   UNL     1       1.402  -0.413  23.080  0.00  0.00    -0.266 OA
ATOM      9  N   UNL     1       1.361   0.990  23.349  0.00  0.00    -0.174 NA
BRANCH   7   4
ATOM      1  C   UNL     1       4.648   0.709  23.015  0.00  0.00    +0.075 C 
ATOM      2  C   UNL     1       3.868   0.576  22.779  0.00  0.00    +0.155 A 
ATOM      3  C   UNL     1       3.210   0.544  23.275  0.00  0.00    +0.063 A 
ATOM      4  C   UNL     1       2.546   0.400  22.808  0.00  0.00    +0.178 A 
ATOM      5  N   UNL     1       2.793   0.343  22.023  0.00  0.00    -0.073 NA
ATOM      6  O   UNL     1       3.610   0.452  22.006  0.00  0.00    -0.358 OA
ENDBRANCH   7   4
ENDBRANCH  10   9
ENDBRANCH  16  13
BRANCH  29  30
ATOM     30  C   UNL     1      -1.472  -0.650  24.837  0.00  0.00    +0.205 C 
ATOM     31  O   UNL     1      -1.152  -0.845  25.572  0.00  0.00    -0.218 OA
ENDBRANCH  29  30
BRANCH  21  22
ATOM     22  C   UNL     1      -3.023  -0.799  25.379  0.00  0.00    +0.120 C 
BRANCH  22  23
ATOM     23  C   UNL     1      -3.402  -1.365  24.915  0.00  0.00    -0.002 A 
ATOM     24  C   UNL     1      -3.188  -2.160  24.975  0.00  0.00    -0.003 A 
ATOM     25  C   UNL     1      -3.567  -2.726  24.511  0.00  0.00    -0.000 A 
ATOM     26  C   UNL     1      -4.162  -2.499  23.987  0.00  0.00    -0.000 A 
ATOM     27  C   UNL     1      -4.377  -1.704  23.925  0.00  0.00    -0.000 A 
ATOM     28  C   UNL     1      -3.996  -1.138  24.390  0.00  0.00    -0.003 A 
ENDBRANCH  22  23
ENDBRANCH  21  22
TORSDOF 6
ENDMDL
MODEL 6
REMARK VINA RESULT:      -9.1      1.161      5.883
REMARK  Name = 
REMARK  6 active torsions:
REMARK  status: ('A' for Active; 'I' for Inactive)
REMARK    1  A    between atoms: C_4  and  C_7
REMARK    2  A    between atoms: N_9  and  C_10
REMARK    3  A    between atoms: C_13  and  C_16
REMARK    4  A    between atoms: N_21  and  C_22
REMARK    5  A    between atoms: C_22  and  C_23
REMARK    6  A    between atoms: C_29  and  C_30
REMARK                            x       y       z     vdW  Elec       q    Type
REMARK                         _______ _______ _______ _____ _____    ______ ____
ROOT
ATOM     16  C   UNL     1      -0.730   1.473  25.460  0.00  0.00    +0.159 C 
ATOM     17  O   UNL     1      -0.215   1.553  26.099  0.00  0.00    -0.341 OA
ATOM     18  C   UNL     1       0.182   2.266  26.223  0.00  0.00    +0.227 C 
ATOM     19  C   UNL     1       0.064   2.898  25.708  0.00  0.00    +0.256 C 
ATOM     20  O   UNL     1       0.461   3.611  25.832  0.00  0.00    -0.272 OA
ATOM     21  N   UNL     1      -0.451   2.818  25.068  0.00  0.00    -0.270 N 
ATOM     29  C   UNL     1      -0.848   2.106  24.944  0.00  0.00    +0.140 C 
ENDROOT
BRANCH  16  13
ATOM     10  C   UNL     1      -1.922  -0.664  25.087  0.00  0.00    +0.074 A 
ATOM     11  C   UNL     1      -2.265  -0.075  25.552  0.00  0.00    +0.016 A 
ATOM     12  C   UNL     1      -1.868   0.637  25.676  0.00  0.00    -0.001 A 
ATOM     13  C   UNL     1      -1.127   0.761  25.336  0.00  0.00    +0.006 A 
ATOM     14  C   UNL     1      -0.783   0.172  24.871  0.00  0.00    -0.001 A 
ATOM     15  C   UNL     1      -1.180  -0.540  24.747  0.00  0.00    +0.016 A 
BRANCH  10   9
ATOM      7  C   UNL     1      -3.014  -1.389  24.519  0.00  0.00    +0.290 C 
ATOM      8  O   UNL     1      -3.312  -0.689  24.199  0.00  0.00    -0.266 OA
ATOM      9  N   UNL     1      -2.319  -1.376  24.963  0.00  0.00    -0.174 NA
BRANCH   7   4
ATOM      1  C   UNL     1      -4.780  -3.411  23.410  0.00  0.00    +0.075 C 
ATOM      2  C   UNL     1      -4.222  -3.031  23.885  0.00  0.00    +0.155 A 
ATOM      3  C   UNL     1      -3.970  -2.250  23.806  0.00  0.00    +0.063 A 
ATOM      4  C   UNL     1      -3.411  -2.102  24.395  0.00  0.00    +0.178 A 
ATOM      5  N   UNL     1      -3.318  -2.792  24.837  0.00  0.00    -0.073 NA
ATOM      6  O   UNL     1      -3.820  -3.365  24.523  0.00  0.00    -0.358 OA
ENDBRANCH   7   4
ENDBRANCH  10   9
ENDBRANCH  16  13
BRANCH  29  30
ATOM     30  C   UNL     1      -1.362   2.027  24.305  0.00  0.00    +0.205 C 
ATOM     31  O   UNL     1      -1.066   2.020  23.535  0.00  0.00    -0.218 OA
ENDBRANCH  29  30
BRANCH  21  22
ATOM     22  C   UNL     1      -0.569   3.452  24.552  0.00  0.00    +0.120 C 
BRANCH  22  23
ATOM     23  C   UNL     1      -0.996   4.112  24.800  0.00  0.00    -0.002 A 
ATOM     24  C   UNL     1      -0.670   4.867  24.725  0.00  0.00    -0.003 A 
ATOM     25  C   UNL     1      -1.098   5.527  24.973  0.00  0.00    -0.000 A 
ATOM     26  C   UNL     1      -1.850   5.434  25.297  0.00  0.00    -0.000 A 
ATOM     27  C   UNL     1      -2.177   4.679  25.373  0.00  0.00    -0.000 A 
ATOM     28  C   UNL     1      -1.749   4.019  25.124  0.00  0.00    -0.003 A 
ENDBRANCH  22  23
ENDBRANCH  21  22
TORSDOF 6
ENDMDL
MODEL 7
REMARK VINA RESULT:      -8.4      1.467      2.131
REMARK  Name = 
REMARK  6 active torsions:
REMARK  status: ('A' for Active; 'I' for Inactive)
REMARK    1  A    between atoms: C_4  and  C_7
REMARK    2  A    between atoms: N_9  and  C_10
REMARK    3  A    between atoms: C_13  and  C_16
REMARK    4  A    between atoms: N_21  and  C_22
REMARK    5  A    between atoms: C_22  and  C_23
REMARK    6  A    between atoms: C_29  and  C_30
REMARK                            x       y       z     vdW  Elec       q    Type
REMARK                         _______ _______ _______ _____ _____    ______ ____
ROOT
ATOM     16  C   UNL     1      -3.796   0.142  24.327  0.00  0.00    +0.159 C 
ATOM     17  O   UNL     1      -4.430  -0.050  23.835  0.00  0.00    -0.341 OA
ATOM     18  C   UNL     1      -4.682  -0.833  23.775  0.00  0.00    +0.227 C 
ATOM     19  C   UNL     1      -4.301  -1.424  24.205  0.00  0.00    +0.256 C 
ATOM     20  O   UNL     1      -4.553  -2.207  24.145  0.00  0.00    -0.272 OA
ATOM     21  N   UNL     1      -3.667  -1.232  24.697  0.00  0.00    -0.270 N 
ATOM     29  C   UNL     1      -3.414  -0.450  24.758  0.00  0.00    +0.140 C 
ENDROOT
BRANCH  16  13
ATOM     10  C   UNL     1      -3.036   2.490  24.509  0.00  0.00    +0.074 A 
ATOM     11  C   UNL     1      -2.659   1.974  23.989  0.00  0.00    +0.016 A 
ATOM     12  C   UNL     1      -2.912   1.191  23.928  0.00  0.00    -0.001 A 
ATOM     13  C   UNL     1      -3.543   0.924  24.388  0.00  0.00    +0.006 A 
ATOM     14  C   UNL     1      -3.920   1.441  24.909  0.00  0.00    -0.001 A 
ATOM     15  C   UNL     1      -3.668   2.224  24.970  0.00  0.00    +0.016 A 
BRANCH  10   9
ATOM      7  C   UNL     1      -2.164   3.468  25.080  0.00  0.00    +0.290 C 
ATOM      8  O   UNL     1      -1.798   2.880  25.527  0.00  0.00    -0.266 OA
ATOM      9  N   UNL     1      -2.783   3.273  24.570  0.00  0.00    -0.174 NA
BRANCH   7   4
ATOM      1  C   UNL     1      -0.597   5.896  24.786  0.00  0.00    +0.075 C 
ATOM      2  C   UNL     1      -1.191   5.367  25.005  0.00  0.00    +0.155 A 
ATOM      3  C   UNL     1      -1.226   4.567  24.807  0.00  0.00    +0.063 A 
ATOM      4  C   UNL     1      -1.911   4.252  25.140  0.00  0.00    +0.178 A 
ATOM      5  N   UNL     1      -2.299   4.856  25.545  0.00  0.00    -0.073 NA
ATOM      6  O   UNL     1      -1.854   5.545  25.462  0.00  0.00    -0.358 OA
ENDBRANCH   7   4
ENDBRANCH  10   9
ENDBRANCH  16  13
BRANCH  29  30
ATOM     30  C   UNL     1      -2.780  -0.258  25.249  0.00  0.00    +0.205 C 
ATOM     31  O   UNL     1      -2.862  -0.309  26.068  0.00  0.00    -0.218 OA
ENDBRANCH  29  30
BRANCH  21  22
ATOM     22  C   UNL     1      -3.285  -1.824  25.128  0.00  0.00    +0.120 C 
BRANCH  22  23
ATOM     23  C   UNL     1      -2.702  -2.283  24.770  0.00  0.00    -0.002 A 
ATOM     24  C   UNL     1      -1.907  -2.074  24.845  0.00  0.00    -0.003 A 
ATOM     25  C   UNL     1      -1.324  -2.534  24.488  0.00  0.00    -0.000 A 
ATOM     26  C   UNL     1      -1.534  -3.203  24.054  0.00  0.00    -0.000 A 
ATOM     27  C   UNL     1      -2.328  -3.413  23.978  0.00  0.00    -0.000 A 
ATOM     28  C   UNL     1      -2.912  -2.953  24.336  0.00  0.00    -0.003 A 
ENDBRANCH  22  23
ENDBRANCH  21  22
TORSDOF 6
ENDMDL
