REMARK  Name = 
REMARK  5 active torsions:
REMARK  status: ('A' for Active; 'I' for Inactive)
REMARK    1  A    between atoms: O_2  and  C_3
REMARK    2  A    between atoms: C_3  and  C_4
REMARK    3  A    between atoms: C_9  and  C_11
REMARK    4  A    between atoms: C_11  and  C_12
REMARK    5  A    between atoms: C_12  and  C_13
REMARK                            x       y       z     vdW  Elec       q    Type
REMARK                         _______ _______ _______ _____ _____    ______ ____
ROOT
ATOM     13  C   UNL     1       4.157   1.774   0.000  0.00  0.00    +0.080 C 
ATOM     14  C   UNL     1       4.515   1.030   0.000  0.00  0.00    +0.131 C 
ATOM     15  N   UNL     1       4.157   0.287   0.000  0.00  0.00    -0.203 NA
ATOM     16  C   UNL     1       3.353   0.104   0.000  0.00  0.00    +0.257 C 
ATOM     17  O   UNL     1       3.169  -0.701   0.000  0.00  0.00    -0.272 OA
ATOM     18  C   UNL     1       2.708   0.618   0.000  0.00  0.00    +0.151 C 
ATOM     19  C   UNL     1       2.708   1.443   0.000  0.00  0.00    +0.083 C 
ATOM     20  C   UNL     1       1.923   1.698   0.000  0.00  0.00    +0.035 C 
ATOM     21  C   UNL     1       1.438   1.030   0.000  0.00  0.00    +0.074 C 
ATOM     22  N   UNL     1       1.923   0.363   0.000  0.00  0.00    -0.264 NA
ATOM     23  C   UNL     1       1.668  -0.422   0.000  0.00  0.00    +0.090 C 
ATOM     24  N   UNL     1       3.353   1.957   0.000  0.00  0.00    -0.271 NA
ATOM     25  C   UNL     1       3.169   2.762   0.000  0.00  0.00    +0.090 C 
ENDROOT
BRANCH  13  12
ATOM     12  C   UNL     1       4.671   2.419   0.000  0.00  0.00    +0.027 C 
BRANCH  12  11
ATOM     11  C   UNL     1       5.487   2.296   0.000  0.00  0.00    +0.087 C 
BRANCH  11   9
ATOM      4  C   UNL     1       7.396   3.406   0.000  0.00  0.00    +0.105 C 
ATOM      5  C   UNL     1       8.134   3.037   0.000  0.00  0.00    +0.024 C 
ATOM      6  C   UNL     1       8.011   2.221   0.000  0.00  0.00    +0.023 C 
ATOM      7  C   UNL     1       7.197   2.086   0.000  0.00  0.00    +0.093 C 
ATOM      8  N   UNL     1       6.817   2.818   0.000  0.00  0.00    -0.279 N 
ATOM      9  C   UNL     1       6.002   2.941   0.000  0.00  0.00    +0.226 C 
ATOM     10  O   UNL     1       5.700   3.709   0.000  0.00  0.00    -0.275 OA
BRANCH   4   3
ATOM      3  C   UNL     1       7.261   4.220   0.000  0.00  0.00    +0.162 C 
BRANCH   3   2
ATOM      1  C   UNL     1       7.763   5.557   0.000  0.00  0.00    +0.174 C 
ATOM      2  O   UNL     1       7.898   4.743   0.000  0.00  0.00    -0.349 OA
ENDBRANCH   3   2
ENDBRANCH   4   3
ENDBRANCH  11   9
ENDBRANCH  12  11
ENDBRANCH  13  12
TORSDOF 5
