MODEL 1
REMARK VINA RESULT:     -11.5      0.000      0.000
REMARK  Name = 
REMARK  5 active torsions:
REMARK  status: ('A' for Active; 'I' for Inactive)
REMARK    1  A    between atoms: C_2  and  C_5
REMARK    2  A    between atoms: C_7  and  C_8
REMARK    3  A    between atoms: C_8  and  C_9
REMARK    4  A    between atoms: C_11  and  N_12
REMARK    5  A    between atoms: N_12  and  C_13
REMARK                            x       y       z     vdW  Elec       q    Type
REMARK                         _______ _______ _______ _____ _____    ______ ____
ROOT
ATOM      9  C   UNL     1      -3.632   1.483  24.558  0.00  0.00    +0.009 C 
ATOM     10  C   UNL     1      -2.829   1.462  24.749  0.00  0.00    +0.018 C 
ATOM     11  C   UNL     1      -2.773   2.271  24.599  0.00  0.00    +0.073 C 
ATOM     19  C   UNL     1      -3.575   2.293  24.408  0.00  0.00    +0.015 C 
ATOM     20  C   UNL     1      -3.707   3.084  24.218  0.00  0.00    +0.001 C 
ATOM     21  C   UNL     1      -4.342   2.501  24.188  0.00  0.00    +0.001 C 
ENDROOT
BRANCH   9   8
ATOM      8  C   UNL     1      -4.238   0.926  24.530  0.00  0.00    +0.049 C 
BRANCH   8   7
ATOM      5  C   UNL     1      -3.888  -1.170  24.743  0.00  0.00    +0.153 A 
ATOM      6  C   UNL     1      -4.028  -0.507  24.273  0.00  0.00    +0.054 A 
ATOM      7  C   UNL     1      -4.097   0.148  24.769  0.00  0.00    +0.100 A 
ATOM     22  N   UNL     1      -3.999  -0.110  25.546  0.00  0.00    -0.082 NA
ATOM     23  O   UNL     1      -3.870  -0.924  25.531  0.00  0.00    -0.358 OA
BRANCH   5   2
ATOM      1  C   UNL     1      -3.680  -2.716  24.205  0.00  0.00    +0.008 C 
ATOM      2  C   UNL     1      -3.784  -1.943  24.474  0.00  0.00    +0.054 C 
ATOM      3  C   UNL     1      -4.283  -1.788  23.835  0.00  0.00    +0.008 C 
ATOM      4  C   UNL     1      -3.286  -2.098  25.112  0.00  0.00    +0.008 C 
ENDBRANCH   5   2
ENDBRANCH   8   7
ENDBRANCH   9   8
BRANCH  11  12
ATOM     12  N   UNL     1      -2.165   2.829  24.627  0.00  0.00    -0.221 NA
BRANCH  12  13
ATOM     13  C   UNL     1      -1.410   2.604  24.873  0.00  0.00    +0.078 C 
ATOM     14  C   UNL     1      -0.865   2.317  24.324  0.00  0.00    +0.050 C 
ATOM     15  C   UNL     1      -0.111   2.093  24.569  0.00  0.00    +0.144 C 
ATOM     16  O   UNL     1       0.100   2.156  25.365  0.00  0.00    -0.354 OA
ATOM     17  C   UNL     1      -0.444   2.443  25.914  0.00  0.00    +0.144 C 
ATOM     18  C   UNL     1      -1.200   2.667  25.668  0.00  0.00    +0.050 C 
ENDBRANCH  12  13
ENDBRANCH  11  12
TORSDOF 5
ENDMDL
MODEL 2
REMARK VINA RESULT:     -11.2      1.516      4.485
REMARK  Name = 
REMARK  5 active torsions:
REMARK  status: ('A' for Active; 'I' for Inactive)
REMARK    1  A    between atoms: C_2  and  C_5
REMARK    2  A    between atoms: C_7  and  C_8
REMARK    3  A    between atoms: C_8  and  C_9
REMARK    4  A    between atoms: C_11  and  N_12
REMARK    5  A    between atoms: N_12  and  C_13
REMARK                            x       y       z     vdW  Elec       q    Type
REMARK                         _______ _______ _______ _____ _____    ______ ____
ROOT
ATOM      9  C   UNL     1      -4.331   2.628  25.092  0.00  0.00    +0.009 C 
ATOM     10  C   UNL     1      -3.910   1.931  24.959  0.00  0.00    +0.018 C 
ATOM     11  C   UNL     1      -4.616   1.505  24.951  0.00  0.00    +0.073 C 
ATOM     19  C   UNL     1      -5.038   2.202  25.083  0.00  0.00    +0.015 C 
ATOM     20  C   UNL     1      -5.823   1.950  25.106  0.00  0.00    +0.001 C 
ATOM     21  C   UNL     1      -5.613   2.779  25.210  0.00  0.00    +0.001 C 
ENDROOT
BRANCH   9   8
ATOM      8  C   UNL     1      -4.130   3.421  25.191  0.00  0.00    +0.049 C 
BRANCH   8   7
ATOM      5  C   UNL     1      -2.118   4.104  25.398  0.00  0.00    +0.153 A 
ATOM      6  C   UNL     1      -2.803   4.006  24.949  0.00  0.00    +0.054 A 
ATOM      7  C   UNL     1      -3.364   3.628  25.420  0.00  0.00    +0.100 A 
ATOM     22  N   UNL     1      -3.026   3.492  26.160  0.00  0.00    -0.082 NA
ATOM     23  O   UNL     1      -2.256   3.786  26.147  0.00  0.00    -0.358 OA
BRANCH   5   2
ATOM      1  C   UNL     1      -0.717   4.811  24.889  0.00  0.00    +0.008 C 
ATOM      2  C   UNL     1      -1.417   4.458  25.143  0.00  0.00    +0.054 C 
ATOM      3  C   UNL     1      -1.772   5.200  25.199  0.00  0.00    +0.008 C 
ATOM      4  C   UNL     1      -1.063   3.715  25.088  0.00  0.00    +0.008 C 
ENDBRANCH   5   2
ENDBRANCH   8   7
ENDBRANCH   9   8
BRANCH  11  12
ATOM     12  N   UNL     1      -4.817   0.712  24.852  0.00  0.00    -0.221 NA
BRANCH  12  13
ATOM     13  C   UNL     1      -4.225   0.138  24.806  0.00  0.00    +0.078 C 
ATOM     14  C   UNL     1      -3.982  -0.260  25.487  0.00  0.00    +0.050 C 
ATOM     15  C   UNL     1      -3.391  -0.833  25.441  0.00  0.00    +0.144 C 
ATOM     16  O   UNL     1      -3.041  -1.008  24.714  0.00  0.00    -0.354 OA
ATOM     17  C   UNL     1      -3.283  -0.610  24.033  0.00  0.00    +0.144 C 
ATOM     18  C   UNL     1      -3.875  -0.036  24.079  0.00  0.00    +0.050 C 
ENDBRANCH  12  13
ENDBRANCH  11  12
TORSDOF 5
ENDMDL
MODEL 3
REMARK VINA RESULT:     -10.7      1.814      2.614
REMARK  Name = 
REMARK  5 active torsions:
REMARK  status: ('A' for Active; 'I' for Inactive)
REMARK    1  A    between atoms: C_2  and  C_5
REMARK    2  A    between atoms: C_7  and  C_8
REMARK    3  A    between atoms: C_8  and  C_9
REMARK    4  A    between atoms: C_11  and  N_12
REMARK    5  A    between atoms: N_12  and  C_13
REMARK                            x       y       z     vdW  Elec       q    Type
REMARK                         _______ _______ _______ _____ _____    ______ ____
ROOT
ATOM      9  C   UNL     1      -3.093   1.103  24.107  0.00  0.00    +0.009 C 
ATOM     10  C   UNL     1      -3.705   1.385  24.583  0.00  0.00    +0.018 C 
ATOM     11  C   UNL     1      -3.759   2.062  24.115  0.00  0.00    +0.073 C 
ATOM     19  C   UNL     1      -3.147   1.781  23.638  0.00  0.00    +0.015 C 
ATOM     20  C   UNL     1      -3.056   2.373  23.071  0.00  0.00    +0.001 C 
ATOM     21  C   UNL     1      -2.565   1.665  23.065  0.00  0.00    +0.001 C 
ENDROOT
BRANCH   9   8
ATOM      8  C   UNL     1      -2.623   0.426  24.101  0.00  0.00    +0.049 C 
BRANCH   8   7
ATOM      5  C   UNL     1      -3.362  -1.510  24.615  0.00  0.00    +0.153 A 
ATOM      6  C   UNL     1      -3.128  -0.954  24.052  0.00  0.00    +0.054 A 
ATOM      7  C   UNL     1      -2.898  -0.270  24.451  0.00  0.00    +0.100 A 
ATOM     22  N   UNL     1      -2.989  -0.403  25.260  0.00  0.00    -0.082 NA
ATOM     23  O   UNL     1      -3.276  -1.169  25.362  0.00  0.00    -0.358 OA
BRANCH   5   2
ATOM      1  C   UNL     1      -3.907  -3.036  24.304  0.00  0.00    +0.008 C 
ATOM      2  C   UNL     1      -3.635  -2.274  24.459  0.00  0.00    +0.054 C 
ATOM      3  C   UNL     1      -4.193  -1.967  23.936  0.00  0.00    +0.008 C 
ATOM      4  C   UNL     1      -3.076  -2.579  24.984  0.00  0.00    +0.008 C 
ENDBRANCH   5   2
ENDBRANCH   8   7
ENDBRANCH   9   8
BRANCH  11  12
ATOM     12  N   UNL     1      -4.229   2.739  24.120  0.00  0.00    -0.221 NA
BRANCH  12  13
ATOM     13  C   UNL     1      -4.687   2.919  24.784  0.00  0.00    +0.078 C 
ATOM     14  C   UNL     1      -5.401   2.526  24.911  0.00  0.00    +0.050 C 
ATOM     15  C   UNL     1      -5.857   2.706  25.574  0.00  0.00    +0.144 C 
ATOM     16  O   UNL     1      -5.601   3.278  26.110  0.00  0.00    -0.354 OA
ATOM     17  C   UNL     1      -4.886   3.671  25.983  0.00  0.00    +0.144 C 
ATOM     18  C   UNL     1      -4.429   3.491  25.319  0.00  0.00    +0.050 C 
ENDBRANCH  12  13
ENDBRANCH  11  12
TORSDOF 5
ENDMDL
