MODEL 1
REMARK VINA RESULT:      -9.9      0.000      0.000
REMARK  Name = 
REMARK  9 active torsions:
REMARK  status: ('A' for Active; 'I' for Inactive)
REMARK    1  A    between atoms: O_2  and  C_3
REMARK    2  A    between atoms: C_3  and  C_4
REMARK    3  A    between atoms: C_12  and  C_13
REMARK    4  A    between atoms: C_16  and  C_18
REMARK    5  A    between atoms: N_22  and  C_23
REMARK    6  A    between atoms: C_23  and  C_24
REMARK    7  A    between atoms: C_26  and  O_27
REMARK    8  A    between atoms: C_29  and  O_30
REMARK    9  A    between atoms: C_32  and  O_33
REMARK                            x       y       z     vdW  Elec       q    Type
REMARK                         _______ _______ _______ _____ _____    ______ ____
ROOT
ATOM     18  C   UNL     1      -4.423   1.749  24.876  0.00  0.00    +0.138 C 
ATOM     19  C   UNL     1      -5.084   1.892  25.349  0.00  0.00    +0.027 C 
ATOM     20  C   UNL     1      -5.456   1.170  25.493  0.00  0.00    +0.019 C 
ATOM     21  C   UNL     1      -5.025   0.580  25.109  0.00  0.00    +0.073 C 
ATOM     22  N   UNL     1      -4.386   0.939  24.727  0.00  0.00    -0.263 NA
ENDROOT
BRANCH  18  16
ATOM     13  C   UNL     1      -2.896   3.204  24.547  0.00  0.00    +0.208 A 
ATOM     14  N   UNL     1      -3.256   3.180  23.805  0.00  0.00    -0.056 NA
ATOM     15  O   UNL     1      -3.872   2.633  23.838  0.00  0.00    -0.336 OA
ATOM     16  C   UNL     1      -3.893   2.317  24.600  0.00  0.00    +0.251 A 
ATOM     17  N   UNL     1      -3.289   2.670  25.038  0.00  0.00    -0.189 NA
BRANCH  13  12
ATOM      4  C   UNL     1      -0.586   2.430  24.106  0.00  0.00    +0.277 C 
ATOM      5  O   UNL     1       0.055   2.903  24.319  0.00  0.00    -0.270 OA
ATOM      6  N   UNL     1      -1.356   2.688  24.253  0.00  0.00    -0.158 NA
ATOM      7  C   UNL     1      -1.485   3.419  24.613  0.00  0.00    +0.161 A 
ATOM      8  N   UNL     1      -0.843   3.892  24.826  0.00  0.00    -0.207 NA
ATOM      9  C   UNL     1      -0.972   4.624  25.186  0.00  0.00    +0.200 A 
ATOM     10  N   UNL     1      -1.742   4.881  25.333  0.00  0.00    -0.222 NA
ATOM     11  C   UNL     1      -2.383   4.408  25.120  0.00  0.00    +0.107 A 
ATOM     12  C   UNL     1      -2.254   3.677  24.760  0.00  0.00    +0.092 A 
BRANCH   4   3
ATOM      3  C   UNL     1      -0.457   1.700  23.746  0.00  0.00    +0.229 C 
BRANCH   3   2
ATOM      1  C   UNL     1       0.328   0.515  23.595  0.00  0.00    +0.175 C 
ATOM      2  O   UNL     1       0.195   1.242  23.961  0.00  0.00    -0.342 OA
ENDBRANCH   3   2
ENDBRANCH   4   3
ENDBRANCH  13  12
ENDBRANCH  18  16
BRANCH  22  23
ATOM     23  C   UNL     1      -3.813   0.553  24.277  0.00  0.00    +0.100 C 
BRANCH  23  24
ATOM     24  C   UNL     1      -3.581  -0.213  24.472  0.00  0.00    +0.000 A 
ATOM     25  C   UNL     1      -3.012  -0.337  25.056  0.00  0.00    +0.037 A 
ATOM     26  C   UNL     1      -2.780  -1.105  25.251  0.00  0.00    +0.175 A 
ATOM     29  C   UNL     1      -3.119  -1.749  24.862  0.00  0.00    +0.206 A 
ATOM     32  C   UNL     1      -3.688  -1.625  24.278  0.00  0.00    +0.175 A 
ATOM     35  C   UNL     1      -3.919  -0.858  24.083  0.00  0.00    +0.037 A 
BRANCH  26  27
ATOM     27  O   UNL     1      -2.211  -1.228  25.836  0.00  0.00    -0.468 OA
ATOM     28  C   UNL     1      -1.808  -0.585  26.159  0.00  0.00    +0.253 C 
ENDBRANCH  26  27
BRANCH  29  30
ATOM     30  O   UNL     1      -2.887  -2.517  25.057  0.00  0.00    -0.465 OA
ATOM     31  C   UNL     1      -2.274  -2.880  24.641  0.00  0.00    +0.253 C 
ENDBRANCH  29  30
BRANCH  32  33
ATOM     33  O   UNL     1      -4.025  -2.270  23.888  0.00  0.00    -0.468 OA
ATOM     34  C   UNL     1      -4.747  -2.184  23.499  0.00  0.00    +0.253 C 
ENDBRANCH  32  33
ENDBRANCH  23  24
ENDBRANCH  22  23
TORSDOF 9
ENDMDL
MODEL 2
REMARK VINA RESULT:      -9.4      1.411      3.660
REMARK  Name = 
REMARK  9 active torsions:
REMARK  status: ('A' for Active; 'I' for Inactive)
REMARK    1  A    between atoms: O_2  and  C_3
REMARK    2  A    between atoms: C_3  and  C_4
REMARK    3  A    between atoms: C_12  and  C_13
REMARK    4  A    between atoms: C_16  and  C_18
REMARK    5  A    between atoms: N_22  and  C_23
REMARK    6  A    between atoms: C_23  and  C_24
REMARK    7  A    between atoms: C_26  and  O_27
REMARK    8  A    between atoms: C_29  and  O_30
REMARK    9  A    between atoms: C_32  and  O_33
REMARK                            x       y       z     vdW  Elec       q    Type
REMARK                         _______ _______ _______ _____ _____    ______ ____
ROOT
ATOM     18  C   UNL     1      -1.341   2.813  25.165  0.00  0.00    +0.138 C 
ATOM     19  C   UNL     1      -0.874   3.260  25.678  0.00  0.00    +0.027 C 
ATOM     20  C   UNL     1      -0.139   2.891  25.740  0.00  0.00    +0.019 C 
ATOM     21  C   UNL     1      -0.152   2.216  25.266  0.00  0.00    +0.073 C 
ATOM     22  N   UNL     1      -0.895   2.168  24.910  0.00  0.00    -0.263 NA
ENDROOT
BRANCH  18  16
ATOM     13  C   UNL     1      -3.446   3.114  24.978  0.00  0.00    +0.208 A 
ATOM     14  N   UNL     1      -3.182   3.371  24.239  0.00  0.00    -0.056 NA
ATOM     15  O   UNL     1      -2.361   3.289  24.219  0.00  0.00    -0.336 OA
ATOM     16  C   UNL     1      -2.118   2.983  24.945  0.00  0.00    +0.251 A 
ATOM     17  N   UNL     1      -2.789   2.875  25.414  0.00  0.00    -0.189 NA
BRANCH  13  12
ATOM      4  C   UNL     1      -4.820   1.081  24.650  0.00  0.00    +0.277 C 
ATOM      5  O   UNL     1      -5.604   1.068  24.907  0.00  0.00    -0.270 OA
ATOM      6  N   UNL     1      -4.362   1.759  24.760  0.00  0.00    -0.158 NA
ATOM      7  C   UNL     1      -4.688   2.423  25.125  0.00  0.00    +0.161 A 
ATOM      8  N   UNL     1      -5.472   2.409  25.382  0.00  0.00    -0.207 NA
ATOM      9  C   UNL     1      -5.798   3.073  25.748  0.00  0.00    +0.200 A 
ATOM     10  N   UNL     1      -5.340   3.750  25.857  0.00  0.00    -0.222 NA
ATOM     11  C   UNL     1      -4.556   3.764  25.600  0.00  0.00    +0.107 A 
ATOM     12  C   UNL     1      -4.230   3.101  25.235  0.00  0.00    +0.092 A 
BRANCH   4   3
ATOM      3  C   UNL     1      -4.494   0.418  24.285  0.00  0.00    +0.229 C 
BRANCH   3   2
ATOM      1  C   UNL     1      -4.360  -1.002  24.198  0.00  0.00    +0.175 C 
ATOM      2  O   UNL     1      -4.621  -0.333  24.603  0.00  0.00    -0.342 OA
ENDBRANCH   3   2
ENDBRANCH   4   3
ENDBRANCH  13  12
ENDBRANCH  18  16
BRANCH  22  23
ATOM     23  C   UNL     1      -1.147   1.579  24.391  0.00  0.00    +0.100 C 
BRANCH  23  24
ATOM     24  C   UNL     1      -0.865   0.808  24.474  0.00  0.00    +0.000 A 
ATOM     25  C   UNL     1      -1.123   0.340  25.102  0.00  0.00    +0.037 A 
ATOM     26  C   UNL     1      -0.841  -0.432  25.185  0.00  0.00    +0.175 A 
ATOM     29  C   UNL     1      -0.301  -0.734  24.639  0.00  0.00    +0.206 A 
ATOM     32  C   UNL     1      -0.043  -0.265  24.012  0.00  0.00    +0.175 A 
ATOM     35  C   UNL     1      -0.324   0.505  23.929  0.00  0.00    +0.037 A 
BRANCH  26  27
ATOM     27  O   UNL     1      -1.100  -0.900  25.813  0.00  0.00    -0.468 OA
ATOM     28  C   UNL     1      -1.625  -0.591  26.368  0.00  0.00    +0.253 C 
ENDBRANCH  26  27
BRANCH  29  30
ATOM     30  O   UNL     1      -0.019  -1.505  24.722  0.00  0.00    -0.465 OA
ATOM     31  C   UNL     1      -0.501  -2.144  24.520  0.00  0.00    +0.253 C 
ENDBRANCH  29  30
BRANCH  32  33
ATOM     33  O   UNL     1       0.498  -0.568  23.466  0.00  0.00    -0.468 OA
ATOM     34  C   UNL     1       0.899  -0.058  22.957  0.00  0.00    +0.253 C 
ENDBRANCH  32  33
ENDBRANCH  23  24
ENDBRANCH  22  23
TORSDOF 9
ENDMDL
MODEL 3
REMARK VINA RESULT:      -9.4      1.370      3.165
REMARK  Name = 
REMARK  9 active torsions:
REMARK  status: ('A' for Active; 'I' for Inactive)
REMARK    1  A    between atoms: O_2  and  C_3
REMARK    2  A    between atoms: C_3  and  C_4
REMARK    3  A    between atoms: C_12  and  C_13
REMARK    4  A    between atoms: C_16  and  C_18
REMARK    5  A    between atoms: N_22  and  C_23
REMARK    6  A    between atoms: C_23  and  C_24
REMARK    7  A    between atoms: C_26  and  O_27
REMARK    8  A    between atoms: C_29  and  O_30
REMARK    9  A    between atoms: C_32  and  O_33
REMARK                            x       y       z     vdW  Elec       q    Type
REMARK                         _______ _______ _______ _____ _____    ______ ____
ROOT
ATOM     18  C   UNL     1      -0.581   0.894  24.814  0.00  0.00    +0.138 C 
ATOM     19  C   UNL     1       0.039   0.684  24.311  0.00  0.00    +0.027 C 
ATOM     20  C   UNL     1      -0.086  -0.093  24.063  0.00  0.00    +0.019 C 
ATOM     21  C   UNL     1      -0.783  -0.364  24.413  0.00  0.00    +0.073 C 
ATOM     22  N   UNL     1      -1.088   0.247  24.877  0.00  0.00    -0.263 NA
ENDROOT
BRANCH  18  16
ATOM     13  C   UNL     1      -0.897   2.923  25.397  0.00  0.00    +0.208 A 
ATOM     14  N   UNL     1      -0.745   2.569  26.127  0.00  0.00    -0.056 NA
ATOM     15  O   UNL     1      -0.608   1.766  25.997  0.00  0.00    -0.336 OA
ATOM     16  C   UNL     1      -0.675   1.623  25.187  0.00  0.00    +0.251 A 
ATOM     17  N   UNL     1      -0.854   2.338  24.816  0.00  0.00    -0.189 NA
BRANCH  13  12
ATOM      4  C   UNL     1      -3.204   3.769  25.695  0.00  0.00    +0.277 C 
ATOM      5  O   UNL     1      -3.370   4.567  25.568  0.00  0.00    -0.270 OA
ATOM      6  N   UNL     1      -2.435   3.487  25.595  0.00  0.00    -0.158 NA
ATOM      7  C   UNL     1      -1.833   4.003  25.369  0.00  0.00    +0.161 A 
ATOM      8  N   UNL     1      -1.999   4.801  25.243  0.00  0.00    -0.207 NA
ATOM      9  C   UNL     1      -1.396   5.317  25.016  0.00  0.00    +0.200 A 
ATOM     10  N   UNL     1      -0.627   5.034  24.917  0.00  0.00    -0.222 NA
ATOM     11  C   UNL     1      -0.461   4.236  25.044  0.00  0.00    +0.107 A 
ATOM     12  C   UNL     1      -1.063   3.721  25.270  0.00  0.00    +0.092 A 
BRANCH   4   3
ATOM      3  C   UNL     1      -3.807   3.253  25.921  0.00  0.00    +0.229 C 
BRANCH   3   2
ATOM      1  C   UNL     1      -5.184   2.873  25.893  0.00  0.00    +0.175 C 
ATOM      2  O   UNL     1      -4.588   3.410  25.705  0.00  0.00    -0.342 OA
ENDBRANCH   3   2
ENDBRANCH   4   3
ENDBRANCH  13  12
ENDBRANCH  18  16
BRANCH  22  23
ATOM     23  C   UNL     1      -1.780   0.215  25.325  0.00  0.00    +0.100 C 
BRANCH  23  24
ATOM     24  C   UNL     1      -2.426  -0.222  25.057  0.00  0.00    +0.000 A 
ATOM     25  C   UNL     1      -2.919   0.087  24.473  0.00  0.00    +0.037 A 
ATOM     26  C   UNL     1      -3.566  -0.351  24.205  0.00  0.00    +0.175 A 
ATOM     29  C   UNL     1      -3.718  -1.098  24.521  0.00  0.00    +0.206 A 
ATOM     32  C   UNL     1      -3.224  -1.406  25.106  0.00  0.00    +0.175 A 
ATOM     35  C   UNL     1      -2.578  -0.969  25.374  0.00  0.00    +0.037 A 
BRANCH  26  27
ATOM     27  O   UNL     1      -4.059  -0.041  23.620  0.00  0.00    -0.468 OA
ATOM     28  C   UNL     1      -3.978   0.745  23.387  0.00  0.00    +0.253 C 
ENDBRANCH  26  27
BRANCH  29  30
ATOM     30  O   UNL     1      -4.364  -1.535  24.253  0.00  0.00    -0.465 OA
ATOM     31  C   UNL     1      -4.256  -2.124  23.685  0.00  0.00    +0.253 C 
ENDBRANCH  29  30
BRANCH  32  33
ATOM     33  O   UNL     1      -3.377  -2.153  25.422  0.00  0.00    -0.468 OA
ATOM     34  C   UNL     1      -3.150  -2.327  26.195  0.00  0.00    +0.253 C 
ENDBRANCH  32  33
ENDBRANCH  23  24
ENDBRANCH  22  23
TORSDOF 9
ENDMDL
MODEL 4
REMARK VINA RESULT:      -9.3      1.636      4.905
REMARK  Name = 
REMARK  9 active torsions:
REMARK  status: ('A' for Active; 'I' for Inactive)
REMARK    1  A    between atoms: O_2  and  C_3
REMARK    2  A    between atoms: C_3  and  C_4
REMARK    3  A    between atoms: C_12  and  C_13
REMARK    4  A    between atoms: C_16  and  C_18
REMARK    5  A    between atoms: N_22  and  C_23
REMARK    6  A    between atoms: C_23  and  C_24
REMARK    7  A    between atoms: C_26  and  O_27
REMARK    8  A    between atoms: C_29  and  O_30
REMARK    9  A    between atoms: C_32  and  O_33
REMARK                            x       y       z     vdW  Elec       q    Type
REMARK                         _______ _______ _______ _____ _____    ______ ____
ROOT
ATOM     18  C   UNL     1      -4.163   1.461  24.403  0.00  0.00    +0.138 C 
ATOM     19  C   UNL     1      -4.808   1.773  23.993  0.00  0.00    +0.027 C 
ATOM     20  C   UNL     1      -4.650   2.566  23.833  0.00  0.00    +0.019 C 
ATOM     21  C   UNL     1      -3.906   2.746  24.144  0.00  0.00    +0.073 C 
ATOM     22  N   UNL     1      -3.606   2.063  24.496  0.00  0.00    -0.263 NA
ENDROOT
BRANCH  18  16
ATOM     13  C   UNL     1      -3.924  -0.640  24.697  0.00  0.00    +0.208 A 
ATOM     14  N   UNL     1      -4.023  -0.380  25.474  0.00  0.00    -0.056 NA
ATOM     15  O   UNL     1      -4.125   0.439  25.458  0.00  0.00    -0.336 OA
ATOM     16  C   UNL     1      -4.088   0.685  24.672  0.00  0.00    +0.251 A 
ATOM     17  N   UNL     1      -3.964   0.019  24.201  0.00  0.00    -0.189 NA
BRANCH  13  12
ATOM      4  C   UNL     1      -1.643  -1.600  24.694  0.00  0.00    +0.277 C 
ATOM      5  O   UNL     1      -1.524  -2.380  24.454  0.00  0.00    -0.270 OA
ATOM      6  N   UNL     1      -2.404  -1.280  24.694  0.00  0.00    -0.158 NA
ATOM      7  C   UNL     1      -3.045  -1.740  24.457  0.00  0.00    +0.161 A 
ATOM      8  N   UNL     1      -2.927  -2.521  24.218  0.00  0.00    -0.207 NA
ATOM      9  C   UNL     1      -3.569  -2.982  23.979  0.00  0.00    +0.200 A 
ATOM     10  N   UNL     1      -4.329  -2.661  23.981  0.00  0.00    -0.222 NA
ATOM     11  C   UNL     1      -4.447  -1.880  24.220  0.00  0.00    +0.107 A 
ATOM     12  C   UNL     1      -3.806  -1.420  24.457  0.00  0.00    +0.092 A 
BRANCH   4   3
ATOM      3  C   UNL     1      -1.001  -1.140  24.931  0.00  0.00    +0.229 C 
BRANCH   3   2
ATOM      1  C   UNL     1       0.128  -0.450  24.391  0.00  0.00    +0.175 C 
ATOM      2  O   UNL     1      -0.303  -1.146  24.492  0.00  0.00    -0.342 OA
ENDBRANCH   3   2
ENDBRANCH   4   3
ENDBRANCH  13  12
ENDBRANCH  18  16
BRANCH  22  23
ATOM     23  C   UNL     1      -2.876   1.994  24.875  0.00  0.00    +0.100 C 
BRANCH  23  24
ATOM     24  C   UNL     1      -2.405   2.661  24.988  0.00  0.00    +0.000 A 
ATOM     25  C   UNL     1      -2.629   3.235  25.536  0.00  0.00    +0.037 A 
ATOM     26  C   UNL     1      -2.158   3.903  25.650  0.00  0.00    +0.175 A 
ATOM     29  C   UNL     1      -1.463   3.996  25.215  0.00  0.00    +0.206 A 
ATOM     32  C   UNL     1      -1.239   3.421  24.668  0.00  0.00    +0.175 A 
ATOM     35  C   UNL     1      -1.710   2.754  24.554  0.00  0.00    +0.037 A 
BRANCH  26  27
ATOM     27  O   UNL     1      -2.382   4.478  26.198  0.00  0.00    -0.468 OA
ATOM     28  C   UNL     1      -2.989   4.321  26.734  0.00  0.00    +0.253 C 
ENDBRANCH  26  27
BRANCH  29  30
ATOM     30  O   UNL     1      -0.991   4.664  25.329  0.00  0.00    -0.465 OA
ATOM     31  C   UNL     1      -1.146   5.354  24.904  0.00  0.00    +0.253 C 
ENDBRANCH  29  30
BRANCH  32  33
ATOM     33  O   UNL     1      -0.543   3.515  24.233  0.00  0.00    -0.468 OA
ATOM     34  C   UNL     1      -0.133   2.851  23.966  0.00  0.00    +0.253 C 
ENDBRANCH  32  33
ENDBRANCH  23  24
ENDBRANCH  22  23
TORSDOF 9
ENDMDL
MODEL 5
REMARK VINA RESULT:      -9.3      1.612      3.968
REMARK  Name = 
REMARK  9 active torsions:
REMARK  status: ('A' for Active; 'I' for Inactive)
REMARK    1  A    between atoms: O_2  and  C_3
REMARK    2  A    between atoms: C_3  and  C_4
REMARK    3  A    between atoms: C_12  and  C_13
REMARK    4  A    between atoms: C_16  and  C_18
REMARK    5  A    between atoms: N_22  and  C_23
REMARK    6  A    between atoms: C_23  and  C_24
REMARK    7  A    between atoms: C_26  and  O_27
REMARK    8  A    between atoms: C_29  and  O_30
REMARK    9  A    between atoms: C_32  and  O_33
REMARK                            x       y       z     vdW  Elec       q    Type
REMARK                         _______ _______ _______ _____ _____    ______ ____
ROOT
ATOM     18  C   UNL     1      -3.125  -0.600  24.492  0.00  0.00    +0.138 C 
ATOM     19  C   UNL     1      -3.507  -1.212  24.091  0.00  0.00    +0.027 C 
ATOM     20  C   UNL     1      -4.317  -1.060  24.105  0.00  0.00    +0.019 C 
ATOM     21  C   UNL     1      -4.437  -0.353  24.516  0.00  0.00    +0.073 C 
ATOM     22  N   UNL     1      -3.700  -0.069  24.755  0.00  0.00    -0.263 NA
ENDROOT
BRANCH  18  16
ATOM     13  C   UNL     1      -1.015  -0.289  24.403  0.00  0.00    +0.208 A 
ATOM     14  N   UNL     1      -1.103  -0.561  25.178  0.00  0.00    -0.056 NA
ATOM     15  O   UNL     1      -1.905  -0.710  25.305  0.00  0.00    -0.336 OA
ATOM     16  C   UNL     1      -2.311  -0.531  24.610  0.00  0.00    +0.251 A 
ATOM     17  N   UNL     1      -1.761  -0.271  24.053  0.00  0.00    -0.189 NA
BRANCH  13  12
ATOM      4  C   UNL     1      -0.053   1.955  24.809  0.00  0.00    +0.277 C 
ATOM      5  O   UNL     1       0.658   2.171  24.449  0.00  0.00    -0.270 OA
ATOM      6  N   UNL     1      -0.373   1.207  24.674  0.00  0.00    -0.158 NA
ATOM      7  C   UNL     1       0.016   0.675  24.179  0.00  0.00    +0.161 A 
ATOM      8  N   UNL     1       0.727   0.890  23.819  0.00  0.00    -0.207 NA
ATOM      9  C   UNL     1       1.117   0.357  23.324  0.00  0.00    +0.200 A 
ATOM     10  N   UNL     1       0.795  -0.391  23.189  0.00  0.00    -0.222 NA
ATOM     11  C   UNL     1       0.085  -0.606  23.549  0.00  0.00    +0.107 A 
ATOM     12  C   UNL     1      -0.304  -0.074  24.044  0.00  0.00    +0.092 A 
BRANCH   4   3
ATOM      3  C   UNL     1      -0.442   2.488  25.304  0.00  0.00    +0.229 C 
BRANCH   3   2
ATOM      1  C   UNL     1      -1.001   3.783  25.530  0.00  0.00    +0.175 C 
ATOM      2  O   UNL     1      -0.571   3.264  25.055  0.00  0.00    -0.342 OA
ENDBRANCH   3   2
ENDBRANCH   4   3
ENDBRANCH  13  12
ENDBRANCH  18  16
BRANCH  22  23
ATOM     23  C   UNL     1      -3.562   0.623  25.181  0.00  0.00    +0.100 C 
BRANCH  23  24
ATOM     24  C   UNL     1      -4.067   1.269  25.092  0.00  0.00    +0.000 A 
ATOM     25  C   UNL     1      -4.721   1.353  25.587  0.00  0.00    +0.037 A 
ATOM     26  C   UNL     1      -5.226   1.999  25.499  0.00  0.00    +0.175 A 
ATOM     29  C   UNL     1      -5.076   2.563  24.915  0.00  0.00    +0.206 A 
ATOM     32  C   UNL     1      -4.422   2.479  24.420  0.00  0.00    +0.175 A 
ATOM     35  C   UNL     1      -3.917   1.833  24.508  0.00  0.00    +0.037 A 
BRANCH  26  27
ATOM     27  O   UNL     1      -5.881   2.082  25.995  0.00  0.00    -0.468 OA
ATOM     28  C   UNL     1      -6.257   1.413  26.296  0.00  0.00    +0.253 C 
ENDBRANCH  26  27
BRANCH  29  30
ATOM     30  O   UNL     1      -5.581   3.209  24.827  0.00  0.00    -0.465 OA
ATOM     31  C   UNL     1      -5.499   3.866  25.319  0.00  0.00    +0.253 C 
ENDBRANCH  29  30
BRANCH  32  33
ATOM     33  O   UNL     1      -4.272   3.043  23.836  0.00  0.00    -0.468 OA
ATOM     34  C   UNL     1      -3.659   2.925  23.297  0.00  0.00    +0.253 C 
ENDBRANCH  32  33
ENDBRANCH  23  24
ENDBRANCH  22  23
TORSDOF 9
ENDMDL
MODEL 6
REMARK VINA RESULT:      -8.7      1.557      4.260
REMARK  Name = 
REMARK  9 active torsions:
REMARK  status: ('A' for Active; 'I' for Inactive)
REMARK    1  A    between atoms: O_2  and  C_3
REMARK    2  A    between atoms: C_3  and  C_4
REMARK    3  A    between atoms: C_12  and  C_13
REMARK    4  A    between atoms: C_16  and  C_18
REMARK    5  A    between atoms: N_22  and  C_23
REMARK    6  A    between atoms: C_23  and  C_24
REMARK    7  A    between atoms: C_26  and  O_27
REMARK    8  A    between atoms: C_29  and  O_30
REMARK    9  A    between atoms: C_32  and  O_33
REMARK                            x       y       z     vdW  Elec       q    Type
REMARK                         _______ _______ _______ _____ _____    ______ ____
ROOT
ATOM     18  C   UNL     1      -1.136   3.649  25.174  0.00  0.00    +0.138 C 
ATOM     19  C   UNL     1      -0.910   4.412  24.953  0.00  0.00    +0.027 C 
ATOM     20  C   UNL     1      -1.563   4.908  25.042  0.00  0.00    +0.019 C 
ATOM     21  C   UNL     1      -2.193   4.452  25.319  0.00  0.00    +0.073 C 
ATOM     22  N   UNL     1      -1.929   3.674  25.400  0.00  0.00    -0.263 NA
ENDROOT
BRANCH  18  16
ATOM     13  C   UNL     1       0.002   1.891  24.761  0.00  0.00    +0.208 A 
ATOM     14  N   UNL     1       0.174   2.008  25.560  0.00  0.00    -0.056 NA
ATOM     15  O   UNL     1      -0.232   2.682  25.812  0.00  0.00    -0.336 OA
ATOM     16  C   UNL     1      -0.654   2.980  25.169  0.00  0.00    +0.251 A 
ATOM     17  N   UNL     1      -0.509   2.492  24.520  0.00  0.00    -0.189 NA
BRANCH  13  12
ATOM      4  C   UNL     1      -0.975  -0.376  24.932  0.00  0.00    +0.277 C 
ATOM      5  O   UNL     1      -0.686  -0.987  24.459  0.00  0.00    -0.270 OA
ATOM      6  N   UNL     1      -0.649   0.379  24.875  0.00  0.00    -0.158 NA
ATOM      7  C   UNL     1      -0.034   0.525  24.345  0.00  0.00    +0.161 A 
ATOM      8  N   UNL     1       0.255  -0.086  23.872  0.00  0.00    -0.207 NA
ATOM      9  C   UNL     1       0.870   0.060  23.341  0.00  0.00    +0.200 A 
ATOM     10  N   UNL     1       1.196   0.816  23.285  0.00  0.00    -0.222 NA
ATOM     11  C   UNL     1       0.906   1.426  23.758  0.00  0.00    +0.107 A 
ATOM     12  C   UNL     1       0.292   1.281  24.288  0.00  0.00    +0.092 A 
BRANCH   4   3
ATOM      3  C   UNL     1      -1.590  -0.522  25.462  0.00  0.00    +0.229 C 
BRANCH   3   2
ATOM      1  C   UNL     1      -2.908  -1.008  25.722  0.00  0.00    +0.175 C 
ATOM      2  O   UNL     1      -2.269  -0.916  25.209  0.00  0.00    -0.342 OA
ENDBRANCH   3   2
ENDBRANCH   4   3
ENDBRANCH  13  12
ENDBRANCH  18  16
BRANCH  22  23
ATOM     23  C   UNL     1      -2.379   3.035  25.662  0.00  0.00    +0.100 C 
BRANCH  23  24
ATOM     24  C   UNL     1      -3.146   2.926  25.379  0.00  0.00    +0.000 A 
ATOM     25  C   UNL     1      -3.784   3.272  25.771  0.00  0.00    +0.037 A 
ATOM     26  C   UNL     1      -4.551   3.164  25.488  0.00  0.00    +0.175 A 
ATOM     29  C   UNL     1      -4.680   2.709  24.811  0.00  0.00    +0.206 A 
ATOM     32  C   UNL     1      -4.042   2.363  24.419  0.00  0.00    +0.175 A 
ATOM     35  C   UNL     1      -3.276   2.472  24.702  0.00  0.00    +0.037 A 
BRANCH  26  27
ATOM     27  O   UNL     1      -5.189   3.510  25.881  0.00  0.00    -0.468 OA
ATOM     28  C   UNL     1      -5.308   4.325  25.834  0.00  0.00    +0.253 C 
ENDBRANCH  26  27
BRANCH  29  30
ATOM     30  O   UNL     1      -5.448   2.600  24.528  0.00  0.00    -0.465 OA
ATOM     31  C   UNL     1      -5.901   1.966  24.798  0.00  0.00    +0.253 C 
ENDBRANCH  29  30
BRANCH  32  33
ATOM     33  O   UNL     1      -4.172   1.908  23.743  0.00  0.00    -0.468 OA
ATOM     34  C   UNL     1      -3.549   1.752  23.226  0.00  0.00    +0.253 C 
ENDBRANCH  32  33
ENDBRANCH  23  24
ENDBRANCH  22  23
TORSDOF 9
ENDMDL
MODEL 7
REMARK VINA RESULT:      -8.6      1.824      4.563
REMARK  Name = 
REMARK  9 active torsions:
REMARK  status: ('A' for Active; 'I' for Inactive)
REMARK    1  A    between atoms: O_2  and  C_3
REMARK    2  A    between atoms: C_3  and  C_4
REMARK    3  A    between atoms: C_12  and  C_13
REMARK    4  A    between atoms: C_16  and  C_18
REMARK    5  A    between atoms: N_22  and  C_23
REMARK    6  A    between atoms: C_23  and  C_24
REMARK    7  A    between atoms: C_26  and  O_27
REMARK    8  A    between atoms: C_29  and  O_30
REMARK    9  A    between atoms: C_32  and  O_33
REMARK                            x       y       z     vdW  Elec       q    Type
REMARK                         _______ _______ _______ _____ _____    ______ ____
ROOT
ATOM     18  C   UNL     1      -2.410   2.140  23.158  0.00  0.00    +0.138 C 
ATOM     19  C   UNL     1      -2.480   2.438  22.391  0.00  0.00    +0.027 C 
ATOM     20  C   UNL     1      -3.253   2.707  22.292  0.00  0.00    +0.019 C 
ATOM     21  C   UNL     1      -3.662   2.575  22.997  0.00  0.00    +0.073 C 
ATOM     22  N   UNL     1      -3.141   2.225  23.532  0.00  0.00    -0.263 NA
ENDROOT
BRANCH  18  16
ATOM     13  C   UNL     1      -0.740   0.968  23.784  0.00  0.00    +0.208 A 
ATOM     14  N   UNL     1      -0.623   1.658  24.222  0.00  0.00    -0.056 NA
ATOM     15  O   UNL     1      -1.235   2.181  24.040  0.00  0.00    -0.336 OA
ATOM     16  C   UNL     1      -1.730   1.815  23.491  0.00  0.00    +0.251 A 
ATOM     17  N   UNL     1      -1.423   1.065  23.333  0.00  0.00    -0.189 NA
BRANCH  13  12
ATOM      4  C   UNL     1      -1.310  -0.941  25.253  0.00  0.00    +0.277 C 
ATOM      5  O   UNL     1      -0.828  -1.610  25.266  0.00  0.00    -0.270 OA
ATOM      6  N   UNL     1      -1.120  -0.305  24.763  0.00  0.00    -0.158 NA
ATOM      7  C   UNL     1      -0.448  -0.337  24.287  0.00  0.00    +0.161 A 
ATOM      8  N   UNL     1       0.035  -1.007  24.299  0.00  0.00    -0.207 NA
ATOM      9  C   UNL     1       0.707  -1.039  23.822  0.00  0.00    +0.200 A 
ATOM     10  N   UNL     1       0.897  -0.403  23.333  0.00  0.00    -0.222 NA
ATOM     11  C   UNL     1       0.414   0.266  23.320  0.00  0.00    +0.107 A 
ATOM     12  C   UNL     1      -0.257   0.299  23.797  0.00  0.00    +0.092 A 
BRANCH   4   3
ATOM      3  C   UNL     1      -1.982  -0.909  25.730  0.00  0.00    +0.229 C 
BRANCH   3   2
ATOM      1  C   UNL     1      -3.365  -1.212  25.922  0.00  0.00    +0.175 C 
ATOM      2  O   UNL     1      -2.653  -1.345  25.529  0.00  0.00    -0.342 OA
ENDBRANCH   3   2
ENDBRANCH   4   3
ENDBRANCH  13  12
ENDBRANCH  18  16
BRANCH  22  23
ATOM     23  C   UNL     1      -3.319   1.999  24.305  0.00  0.00    +0.100 C 
BRANCH  23  24
ATOM     24  C   UNL     1      -3.893   2.408  24.732  0.00  0.00    +0.000 A 
ATOM     25  C   UNL     1      -4.676   2.148  24.725  0.00  0.00    +0.037 A 
ATOM     26  C   UNL     1      -5.251   2.558  25.153  0.00  0.00    +0.175 A 
ATOM     29  C   UNL     1      -5.042   3.226  25.588  0.00  0.00    +0.206 A 
ATOM     32  C   UNL     1      -4.259   3.486  25.596  0.00  0.00    +0.175 A 
ATOM     35  C   UNL     1      -3.685   3.077  25.168  0.00  0.00    +0.037 A 
BRANCH  26  27
ATOM     27  O   UNL     1      -6.034   2.297  25.145  0.00  0.00    -0.468 OA
ATOM     28  C   UNL     1      -6.200   1.494  25.064  0.00  0.00    +0.253 C 
ENDBRANCH  26  27
BRANCH  29  30
ATOM     30  O   UNL     1      -5.617   3.636  26.016  0.00  0.00    -0.465 OA
ATOM     31  C   UNL     1      -6.021   4.264  25.666  0.00  0.00    +0.253 C 
ENDBRANCH  29  30
BRANCH  32  33
ATOM     33  O   UNL     1      -4.051   4.155  26.031  0.00  0.00    -0.468 OA
ATOM     34  C   UNL     1      -3.269   4.263  26.272  0.00  0.00    +0.253 C 
ENDBRANCH  32  33
ENDBRANCH  23  24
ENDBRANCH  22  23
TORSDOF 9
ENDMDL
MODEL 8
REMARK VINA RESULT:      -8.3      1.488      3.267
REMARK  Name = 
REMARK  9 active torsions:
REMARK  status: ('A' for Active; 'I' for Inactive)
REMARK    1  A    between atoms: O_2  and  C_3
REMARK    2  A    between atoms: C_3  and  C_4
REMARK    3  A    between atoms: C_12  and  C_13
REMARK    4  A    between atoms: C_16  and  C_18
REMARK    5  A    between atoms: N_22  and  C_23
REMARK    6  A    between atoms: C_23  and  C_24
REMARK    7  A    between atoms: C_26  and  O_27
REMARK    8  A    between atoms: C_29  and  O_30
REMARK    9  A    between atoms: C_32  and  O_33
REMARK                            x       y       z     vdW  Elec       q    Type
REMARK                         _______ _______ _______ _____ _____    ______ ____
ROOT
ATOM     18  C   UNL     1      -3.821  -0.032  24.317  0.00  0.00    +0.138 C 
ATOM     19  C   UNL     1      -4.280  -0.659  24.037  0.00  0.00    +0.027 C 
ATOM     20  C   UNL     1      -3.851  -1.355  24.141  0.00  0.00    +0.019 C 
ATOM     21  C   UNL     1      -3.127  -1.160  24.486  0.00  0.00    +0.073 C 
ATOM     22  N   UNL     1      -3.109  -0.342  24.594  0.00  0.00    -0.263 NA
ENDROOT
BRANCH  18  16
ATOM     13  C   UNL     1      -4.515   1.948  24.708  0.00  0.00    +0.208 A 
ATOM     14  N   UNL     1      -4.227   2.029  23.938  0.00  0.00    -0.056 NA
ATOM     15  O   UNL     1      -3.932   1.297  23.698  0.00  0.00    -0.336 OA
ATOM     16  C   UNL     1      -4.038   0.764  24.319  0.00  0.00    +0.251 A 
ATOM     17  N   UNL     1      -4.398   1.167  24.943  0.00  0.00    -0.189 NA
BRANCH  13  12
ATOM      4  C   UNL     1      -3.116   3.781  25.608  0.00  0.00    +0.277 C 
ATOM      5  O   UNL     1      -3.460   4.378  26.062  0.00  0.00    -0.270 OA
ATOM      6  N   UNL     1      -3.583   3.170  25.308  0.00  0.00    -0.158 NA
ATOM      7  C   UNL     1      -4.392   3.156  25.462  0.00  0.00    +0.161 A 
ATOM      8  N   UNL     1      -4.737   3.753  25.915  0.00  0.00    -0.207 NA
ATOM      9  C   UNL     1      -5.548   3.738  26.069  0.00  0.00    +0.200 A 
ATOM     10  N   UNL     1      -6.013   3.127  25.769  0.00  0.00    -0.222 NA
ATOM     11  C   UNL     1      -5.669   2.531  25.315  0.00  0.00    +0.107 A 
ATOM     12  C   UNL     1      -4.859   2.545  25.162  0.00  0.00    +0.092 A 
BRANCH   4   3
ATOM      3  C   UNL     1      -2.306   3.795  25.455  0.00  0.00    +0.229 C 
BRANCH   3   2
ATOM      1  C   UNL     1      -1.124   4.543  25.161  0.00  0.00    +0.175 C 
ATOM      2  O   UNL     1      -1.902   4.515  25.432  0.00  0.00    -0.342 OA
ENDBRANCH   3   2
ENDBRANCH   4   3
ENDBRANCH  13  12
ENDBRANCH  18  16
BRANCH  22  23
ATOM     23  C   UNL     1      -2.487   0.089  24.922  0.00  0.00    +0.100 C 
BRANCH  23  24
ATOM     24  C   UNL     1      -1.712  -0.054  24.680  0.00  0.00    +0.000 A 
ATOM     25  C   UNL     1      -1.324  -0.740  24.922  0.00  0.00    +0.037 A 
ATOM     26  C   UNL     1      -0.548  -0.884  24.680  0.00  0.00    +0.175 A 
ATOM     29  C   UNL     1      -0.161  -0.340  24.195  0.00  0.00    +0.206 A 
ATOM     32  C   UNL     1      -0.549   0.347  23.953  0.00  0.00    +0.175 A 
ATOM     35  C   UNL     1      -1.324   0.490  24.195  0.00  0.00    +0.037 A 
BRANCH  26  27
ATOM     27  O   UNL     1      -0.161  -1.571  24.922  0.00  0.00    -0.468 OA
ATOM     28  C   UNL     1      -0.331  -1.902  25.658  0.00  0.00    +0.253 C 
ENDBRANCH  26  27
BRANCH  29  30
ATOM     30  O   UNL     1       0.615  -0.483  23.953  0.00  0.00    -0.465 OA
ATOM     31  C   UNL     1       0.777  -0.630  23.157  0.00  0.00    +0.253 C 
ENDBRANCH  29  30
BRANCH  32  33
ATOM     33  O   UNL     1      -0.161   0.891  23.469  0.00  0.00    -0.468 OA
ATOM     34  C   UNL     1      -0.433   1.667  23.420  0.00  0.00    +0.253 C 
ENDBRANCH  32  33
ENDBRANCH  23  24
ENDBRANCH  22  23
TORSDOF 9
ENDMDL
