REMARK  Name = 
REMARK  2 active torsions:
REMARK  status: ('A' for Active; 'I' for Inactive)
REMARK    1  A    between atoms: N_6  and  C_7
REMARK    2  A    between atoms: C_7  and  C_8
REMARK                            x       y       z     vdW  Elec       q    Type
REMARK                         _______ _______ _______ _____ _____    ______ ____
ROOT
ATOM      1  C   UNL     1      -5.270  -2.003   0.000  0.00  0.00    +0.117 C 
ATOM      2  N   UNL     1      -4.445  -2.003   0.000  0.00  0.00    -0.261 N 
ATOM      3  C   UNL     1      -3.961  -1.335   0.000  0.00  0.00    +0.116 C 
ATOM      4  C   UNL     1      -3.176  -1.590   0.000  0.00  0.00    +0.113 C 
ATOM      5  C   UNL     1      -2.461  -1.178   0.000  0.00  0.00    +0.094 C 
ATOM      6  N   UNL     1      -1.747  -1.590   0.000  0.00  0.00    -0.266 NA
ATOM     18  C   UNL     1      -1.747  -2.415   0.000  0.00  0.00    +0.094 C 
ATOM     19  C   UNL     1      -2.461  -2.828   0.000  0.00  0.00    +0.112 C 
ATOM     20  N   UNL     1      -3.176  -2.415   0.000  0.00  0.00    -0.261 N 
ATOM     21  C   UNL     1      -3.961  -2.670   0.000  0.00  0.00    +0.307 C 
ATOM     22  O   UNL     1      -4.215  -3.455   0.000  0.00  0.00    -0.252 OA
ENDROOT
BRANCH   6   7
ATOM      7  C   UNL     1      -1.032  -1.178   0.000  0.00  0.00    +0.101 C 
BRANCH   7   8
ATOM      8  C   UNL     1      -0.318  -1.590   0.000  0.00  0.00    +0.012 A 
ATOM      9  C   UNL     1      -0.232  -2.411   0.000  0.00  0.00    +0.073 A 
ATOM     10  N   UNL     1       0.575  -2.582   0.000  0.00  0.00    -0.324 N 
ATOM     11  C   UNL     1       0.911  -3.336   0.000  0.00  0.00    +0.130 C 
ATOM     12  C   UNL     1       0.988  -1.868   0.000  0.00  0.00    +0.060 A 
ATOM     13  C   UNL     1       0.436  -1.255   0.000  0.00  0.00    +0.015 A 
ATOM     14  C   UNL     1       0.691  -0.470   0.000  0.00  0.00    +0.001 A 
ATOM     15  C   UNL     1       1.498  -0.299   0.000  0.00  0.00    +0.000 A 
ATOM     16  C   UNL     1       2.050  -0.912   0.000  0.00  0.00    +0.001 A 
ATOM     17  C   UNL     1       1.795  -1.696   0.000  0.00  0.00    +0.017 A 
ENDBRANCH   7   8
ENDBRANCH   6   7
TORSDOF 2
