MODEL 1
REMARK VINA RESULT:     -12.9      0.000      0.000
REMARK  Name = 
REMARK  7 active torsions:
REMARK  status: ('A' for Active; 'I' for Inactive)
REMARK    1  A    between atoms: C_2  and  C_3
REMARK    2  A    between atoms: C_2  and  C_25
REMARK    3  A    between atoms: C_10  and  N_11
REMARK    4  A    between atoms: C_12  and  C_14
REMARK    5  A    between atoms: N_27  and  C_28
REMARK    6  A    between atoms: C_28  and  C_29
REMARK    7  A    between atoms: C_29  and  N_30
REMARK                            x       y       z     vdW  Elec       q    Type
REMARK                         _______ _______ _______ _____ _____    ______ ____
ROOT
ATOM      3  C   UNL     1      -4.043   3.299  24.774  0.00  0.00    +0.039 C 
ATOM      4  C   UNL     1      -4.686   3.399  25.282  0.00  0.00    +0.003 C 
ATOM      5  C   UNL     1      -5.141   2.749  25.505  0.00  0.00    +0.000 C 
ATOM      6  C   UNL     1      -4.953   1.998  25.221  0.00  0.00    +0.002 C 
ATOM      7  C   UNL     1      -5.595   2.098  25.728  0.00  0.00    +0.000 C 
ATOM      8  C   UNL     1      -5.408   1.346  25.444  0.00  0.00    +0.002 C 
ATOM      9  C   UNL     1      -5.221   0.594  25.160  0.00  0.00    +0.022 C 
ATOM     10  C   UNL     1      -4.577   0.494  24.652  0.00  0.00    +0.096 C 
ATOM     20  C   UNL     1      -4.123   1.145  24.429  0.00  0.00    +0.022 C 
ATOM     21  C   UNL     1      -3.480   1.045  23.922  0.00  0.00    +0.002 C 
ATOM     22  C   UNL     1      -4.310   1.897  24.713  0.00  0.00    +0.032 C 
ATOM     23  C   UNL     1      -3.855   2.548  24.490  0.00  0.00    +0.152 C 
ATOM     24  O   UNL     1      -3.213   2.448  23.983  0.00  0.00    -0.223 OA
ENDROOT
BRANCH  10  11
ATOM     11  N   UNL     1      -4.390  -0.257  24.368  0.00  0.00    -0.202 NA
ATOM     12  C   UNL     1      -4.176  -0.855  24.893  0.00  0.00    +0.282 C 
ATOM     13  O   UNL     1      -4.150  -0.702  25.705  0.00  0.00    -0.267 OA
BRANCH  12  14
ATOM     14  C   UNL     1      -3.988  -1.607  24.610  0.00  0.00    +0.136 A 
ATOM     15  N   UNL     1      -4.363  -1.900  23.936  0.00  0.00    -0.239 NA
ATOM     16  C   UNL     1      -4.175  -2.652  23.652  0.00  0.00    +0.099 A 
ATOM     17  C   UNL     1      -3.612  -3.110  24.043  0.00  0.00    +0.021 A 
ATOM     18  C   UNL     1      -3.236  -2.818  24.718  0.00  0.00    +0.003 A 
ATOM     19  C   UNL     1      -3.425  -2.066  25.000  0.00  0.00    +0.024 A 
ENDBRANCH  12  14
ENDBRANCH  10  11
BRANCH   3   2
ATOM      1  C   UNL     1      -3.773   4.365  23.863  0.00  0.00    +0.010 C 
ATOM      2  C   UNL     1      -3.588   3.950  24.552  0.00  0.00    +0.081 C 
BRANCH   2  25
ATOM     25  C   UNL     1      -2.950   4.187  25.017  0.00  0.00    +0.241 C 
ATOM     26  O   UNL     1      -3.082   4.599  25.720  0.00  0.00    -0.273 OA
ATOM     27  N   UNL     1      -2.179   4.013  24.779  0.00  0.00    -0.204 NA
BRANCH  27  28
ATOM     28  C   UNL     1      -1.541   4.250  25.244  0.00  0.00    +0.132 C 
BRANCH  28  29
ATOM     29  C   UNL     1      -0.769   4.139  24.974  0.00  0.00    +0.096 C 
BRANCH  29  30
ATOM     30  N   UNL     1      -0.362   3.446  25.159  0.00  0.00    -0.267 NA
ATOM     31  C   UNL     1      -0.251   3.230  25.947  0.00  0.00    +0.105 C 
ATOM     32  C   UNL     1       0.156   2.537  26.131  0.00  0.00    +0.159 C 
ATOM     33  O   UNL     1       0.453   2.059  25.527  0.00  0.00    -0.351 OA
ATOM     34  C   UNL     1       0.342   2.275  24.739  0.00  0.00    +0.159 C 
ATOM     35  C   UNL     1      -0.065   2.969  24.554  0.00  0.00    +0.105 C 
ENDBRANCH  29  30
ENDBRANCH  28  29
ENDBRANCH  27  28
ENDBRANCH   2  25
ENDBRANCH   3   2
TORSDOF 7
ENDMDL
MODEL 2
REMARK VINA RESULT:     -12.2      2.522      4.714
REMARK  Name = 
REMARK  7 active torsions:
REMARK  status: ('A' for Active; 'I' for Inactive)
REMARK    1  A    between atoms: C_2  and  C_3
REMARK    2  A    between atoms: C_2  and  C_25
REMARK    3  A    between atoms: C_10  and  N_11
REMARK    4  A    between atoms: C_12  and  C_14
REMARK    5  A    between atoms: N_27  and  C_28
REMARK    6  A    between atoms: C_28  and  C_29
REMARK    7  A    between atoms: C_29  and  N_30
REMARK                            x       y       z     vdW  Elec       q    Type
REMARK                         _______ _______ _______ _____ _____    ______ ____
ROOT
ATOM      3  C   UNL     1      -1.785  -1.199  24.755  0.00  0.00    +0.039 C 
ATOM      4  C   UNL     1      -2.277  -1.764  24.406  0.00  0.00    +0.003 C 
ATOM      5  C   UNL     1      -3.082  -1.610  24.317  0.00  0.00    +0.000 C 
ATOM      6  C   UNL     1      -3.397  -0.893  24.577  0.00  0.00    +0.002 C 
ATOM      7  C   UNL     1      -3.887  -1.456  24.229  0.00  0.00    +0.000 C 
ATOM      8  C   UNL     1      -4.202  -0.739  24.488  0.00  0.00    +0.002 C 
ATOM      9  C   UNL     1      -4.517  -0.022  24.748  0.00  0.00    +0.022 C 
ATOM     10  C   UNL     1      -4.025   0.542  25.097  0.00  0.00    +0.096 C 
ATOM     20  C   UNL     1      -3.220   0.388  25.185  0.00  0.00    +0.022 C 
ATOM     21  C   UNL     1      -2.728   0.952  25.534  0.00  0.00    +0.002 C 
ATOM     22  C   UNL     1      -2.905  -0.329  24.926  0.00  0.00    +0.032 C 
ATOM     23  C   UNL     1      -2.100  -0.483  25.014  0.00  0.00    +0.152 C 
ATOM     24  O   UNL     1      -1.608   0.081  25.363  0.00  0.00    -0.223 OA
ENDROOT
BRANCH  10  11
ATOM     11  N   UNL     1      -4.340   1.259  25.356  0.00  0.00    -0.202 NA
ATOM     12  C   UNL     1      -4.741   1.748  24.828  0.00  0.00    +0.282 C 
ATOM     13  O   UNL     1      -4.829   1.521  24.039  0.00  0.00    -0.267 OA
BRANCH  12  14
ATOM     14  C   UNL     1      -5.056   2.466  25.087  0.00  0.00    +0.136 A 
ATOM     15  N   UNL     1      -4.638   3.166  24.971  0.00  0.00    -0.239 NA
ATOM     16  C   UNL     1      -4.952   3.884  25.230  0.00  0.00    +0.099 A 
ATOM     17  C   UNL     1      -5.687   3.900  25.606  0.00  0.00    +0.021 A 
ATOM     18  C   UNL     1      -6.106   3.198  25.723  0.00  0.00    +0.003 A 
ATOM     19  C   UNL     1      -5.790   2.482  25.463  0.00  0.00    +0.024 A 
ENDBRANCH  12  14
ENDBRANCH  10  11
BRANCH   3   2
ATOM      1  C   UNL     1      -0.677  -1.548  25.586  0.00  0.00    +0.010 C 
ATOM      2  C   UNL     1      -0.979  -1.354  24.843  0.00  0.00    +0.081 C 
BRANCH   2  25
ATOM     25  C   UNL     1      -0.477  -1.313  24.191  0.00  0.00    +0.241 C 
ATOM     26  O   UNL     1      -0.479  -1.919  23.630  0.00  0.00    -0.273 OA
ATOM     27  N   UNL     1       0.028  -0.667  24.098  0.00  0.00    -0.204 NA
BRANCH  27  28
ATOM     28  C   UNL     1       0.530  -0.626  23.445  0.00  0.00    +0.132 C 
BRANCH  28  29
ATOM     29  C   UNL     1       0.843   0.100  23.209  0.00  0.00    +0.096 C 
BRANCH  29  30
ATOM     30  N   UNL     1       1.569   0.130  22.821  0.00  0.00    -0.267 NA
ATOM     31  C   UNL     1       1.655  -0.216  22.077  0.00  0.00    +0.105 C 
ATOM     32  C   UNL     1       2.382  -0.186  21.688  0.00  0.00    +0.159 C 
ATOM     33  O   UNL     1       3.025   0.191  22.045  0.00  0.00    -0.351 OA
ATOM     34  C   UNL     1       2.940   0.537  22.788  0.00  0.00    +0.159 C 
ATOM     35  C   UNL     1       2.212   0.507  23.177  0.00  0.00    +0.105 C 
ENDBRANCH  29  30
ENDBRANCH  28  29
ENDBRANCH  27  28
ENDBRANCH   2  25
ENDBRANCH   3   2
TORSDOF 7
ENDMDL
MODEL 3
REMARK VINA RESULT:     -11.8      3.248      4.989
REMARK  Name = 
REMARK  7 active torsions:
REMARK  status: ('A' for Active; 'I' for Inactive)
REMARK    1  A    between atoms: C_2  and  C_3
REMARK    2  A    between atoms: C_2  and  C_25
REMARK    3  A    between atoms: C_10  and  N_11
REMARK    4  A    between atoms: C_12  and  C_14
REMARK    5  A    between atoms: N_27  and  C_28
REMARK    6  A    between atoms: C_28  and  C_29
REMARK    7  A    between atoms: C_29  and  N_30
REMARK                            x       y       z     vdW  Elec       q    Type
REMARK                         _______ _______ _______ _____ _____    ______ ____
ROOT
ATOM      3  C   UNL     1       0.057  -0.047  23.583  0.00  0.00    +0.039 C 
ATOM      4  C   UNL     1       0.131  -0.656  24.136  0.00  0.00    +0.003 C 
ATOM      5  C   UNL     1      -0.435  -0.744  24.729  0.00  0.00    +0.000 C 
ATOM      6  C   UNL     1      -1.074  -0.225  24.770  0.00  0.00    +0.002 C 
ATOM      7  C   UNL     1      -1.001  -0.833  25.322  0.00  0.00    +0.000 C 
ATOM      8  C   UNL     1      -1.640  -0.314  25.364  0.00  0.00    +0.002 C 
ATOM      9  C   UNL     1      -2.280   0.206  25.405  0.00  0.00    +0.022 C 
ATOM     10  C   UNL     1      -2.354   0.815  24.853  0.00  0.00    +0.096 C 
ATOM     20  C   UNL     1      -1.787   0.903  24.259  0.00  0.00    +0.022 C 
ATOM     21  C   UNL     1      -1.861   1.512  23.707  0.00  0.00    +0.002 C 
ATOM     22  C   UNL     1      -1.148   0.384  24.217  0.00  0.00    +0.032 C 
ATOM     23  C   UNL     1      -0.582   0.472  23.624  0.00  0.00    +0.152 C 
ATOM     24  O   UNL     1      -0.655   1.081  23.072  0.00  0.00    -0.223 OA
ENDROOT
BRANCH  10  11
ATOM     11  N   UNL     1      -2.993   1.334  24.894  0.00  0.00    -0.202 NA
ATOM     12  C   UNL     1      -3.747   1.047  25.064  0.00  0.00    +0.282 C 
ATOM     13  O   UNL     1      -3.862   0.240  25.193  0.00  0.00    -0.267 OA
BRANCH  12  14
ATOM     14  C   UNL     1      -4.387   1.567  25.106  0.00  0.00    +0.136 A 
ATOM     15  N   UNL     1      -4.283   2.326  25.409  0.00  0.00    -0.239 NA
ATOM     16  C   UNL     1      -4.923   2.845  25.450  0.00  0.00    +0.099 A 
ATOM     17  C   UNL     1      -5.667   2.604  25.188  0.00  0.00    +0.021 A 
ATOM     18  C   UNL     1      -5.771   1.843  24.885  0.00  0.00    +0.003 A 
ATOM     19  C   UNL     1      -5.131   1.325  24.844  0.00  0.00    +0.024 A 
ENDBRANCH  12  14
ENDBRANCH  10  11
BRANCH   3   2
ATOM      1  C   UNL     1       0.442  -0.168  22.212  0.00  0.00    +0.010 C 
ATOM      2  C   UNL     1       0.624   0.042  22.989  0.00  0.00    +0.081 C 
BRANCH   2  25
ATOM     25  C   UNL     1       1.370   0.339  23.172  0.00  0.00    +0.241 C 
ATOM     26  O   UNL     1       1.441   1.025  23.626  0.00  0.00    -0.273 OA
ATOM     27  N   UNL     1       2.047  -0.048  22.902  0.00  0.00    -0.204 NA
BRANCH  27  28
ATOM     28  C   UNL     1       2.794   0.249  23.085  0.00  0.00    +0.132 C 
BRANCH  28  29
ATOM     29  C   UNL     1       3.466  -0.074  22.731  0.00  0.00    +0.096 C 
BRANCH  29  30
ATOM     30  N   UNL     1       4.181  -0.088  23.139  0.00  0.00    -0.267 NA
ATOM     31  C   UNL     1       4.394  -0.753  23.579  0.00  0.00    +0.105 C 
ATOM     32  C   UNL     1       5.110  -0.767  23.987  0.00  0.00    +0.159 C 
ATOM     33  O   UNL     1       5.615  -0.114  23.956  0.00  0.00    -0.351 OA
ATOM     34  C   UNL     1       5.404   0.551  23.517  0.00  0.00    +0.159 C 
ATOM     35  C   UNL     1       4.687   0.565  23.108  0.00  0.00    +0.105 C 
ENDBRANCH  29  30
ENDBRANCH  28  29
ENDBRANCH  27  28
ENDBRANCH   2  25
ENDBRANCH   3   2
TORSDOF 7
ENDMDL
MODEL 4
REMARK VINA RESULT:     -11.2      1.520      4.935
REMARK  Name = 
REMARK  7 active torsions:
REMARK  status: ('A' for Active; 'I' for Inactive)
REMARK    1  A    between atoms: C_2  and  C_3
REMARK    2  A    between atoms: C_2  and  C_25
REMARK    3  A    between atoms: C_10  and  N_11
REMARK    4  A    between atoms: C_12  and  C_14
REMARK    5  A    between atoms: N_27  and  C_28
REMARK    6  A    between atoms: C_28  and  C_29
REMARK    7  A    between atoms: C_29  and  N_30
REMARK                            x       y       z     vdW  Elec       q    Type
REMARK                         _______ _______ _______ _____ _____    ______ ____
ROOT
ATOM      3  C   UNL     1      -4.427   0.292  24.635  0.00  0.00    +0.039 C 
ATOM      4  C   UNL     1      -5.100   0.496  25.068  0.00  0.00    +0.003 C 
ATOM      5  C   UNL     1      -5.197   1.269  25.338  0.00  0.00    +0.000 C 
ATOM      6  C   UNL     1      -4.623   1.838  25.176  0.00  0.00    +0.002 C 
ATOM      7  C   UNL     1      -5.294   2.042  25.608  0.00  0.00    +0.000 C 
ATOM      8  C   UNL     1      -4.719   2.612  25.446  0.00  0.00    +0.002 C 
ATOM      9  C   UNL     1      -4.145   3.181  25.285  0.00  0.00    +0.022 C 
ATOM     10  C   UNL     1      -3.472   2.977  24.852  0.00  0.00    +0.096 C 
ATOM     20  C   UNL     1      -3.375   2.203  24.581  0.00  0.00    +0.022 C 
ATOM     21  C   UNL     1      -2.703   1.999  24.149  0.00  0.00    +0.002 C 
ATOM     22  C   UNL     1      -3.950   1.634  24.743  0.00  0.00    +0.032 C 
ATOM     23  C   UNL     1      -3.852   0.861  24.473  0.00  0.00    +0.152 C 
ATOM     24  O   UNL     1      -3.180   0.657  24.040  0.00  0.00    -0.223 OA
ENDROOT
BRANCH  10  11
ATOM     11  N   UNL     1      -2.898   3.546  24.690  0.00  0.00    -0.202 NA
ATOM     12  C   UNL     1      -2.506   3.924  25.309  0.00  0.00    +0.282 C 
ATOM     13  O   UNL     1      -2.689   3.733  26.091  0.00  0.00    -0.267 OA
BRANCH  12  14
ATOM     14  C   UNL     1      -1.931   4.494  25.147  0.00  0.00    +0.136 A 
ATOM     15  N   UNL     1      -1.154   4.265  24.993  0.00  0.00    -0.239 NA
ATOM     16  C   UNL     1      -0.580   4.834  24.831  0.00  0.00    +0.099 A 
ATOM     17  C   UNL     1      -0.783   5.634  24.824  0.00  0.00    +0.021 A 
ATOM     18  C   UNL     1      -1.560   5.864  24.979  0.00  0.00    +0.003 A 
ATOM     19  C   UNL     1      -2.134   5.294  25.140  0.00  0.00    +0.024 A 
ENDBRANCH  12  14
ENDBRANCH  10  11
BRANCH   3   2
ATOM      1  C   UNL     1      -4.697  -0.723  23.667  0.00  0.00    +0.010 C 
ATOM      2  C   UNL     1      -4.330  -0.482  24.365  0.00  0.00    +0.081 C 
BRANCH   2  25
ATOM     25  C   UNL     1      -3.866  -1.013  24.791  0.00  0.00    +0.241 C 
ATOM     26  O   UNL     1      -4.025  -1.150  25.590  0.00  0.00    -0.273 OA
ATOM     27  N   UNL     1      -3.243  -1.408  24.421  0.00  0.00    -0.204 NA
BRANCH  27  28
ATOM     28  C   UNL     1      -2.780  -1.940  24.848  0.00  0.00    +0.132 C 
BRANCH  28  29
ATOM     29  C   UNL     1      -2.127  -2.298  24.492  0.00  0.00    +0.096 C 
BRANCH  29  30
ATOM     30  N   UNL     1      -1.366  -2.031  24.663  0.00  0.00    -0.267 NA
ATOM     31  C   UNL     1      -0.954  -1.574  24.112  0.00  0.00    +0.105 C 
ATOM     32  C   UNL     1      -0.193  -1.308  24.283  0.00  0.00    +0.159 C 
ATOM     33  O   UNL     1       0.158  -1.498  25.006  0.00  0.00    -0.351 OA
ATOM     34  C   UNL     1      -0.253  -1.954  25.556  0.00  0.00    +0.159 C 
ATOM     35  C   UNL     1      -1.014  -2.221  25.386  0.00  0.00    +0.105 C 
ENDBRANCH  29  30
ENDBRANCH  28  29
ENDBRANCH  27  28
ENDBRANCH   2  25
ENDBRANCH   3   2
TORSDOF 7
ENDMDL
MODEL 5
REMARK VINA RESULT:     -10.7      2.377      4.757
REMARK  Name = 
REMARK  7 active torsions:
REMARK  status: ('A' for Active; 'I' for Inactive)
REMARK    1  A    between atoms: C_2  and  C_3
REMARK    2  A    between atoms: C_2  and  C_25
REMARK    3  A    between atoms: C_10  and  N_11
REMARK    4  A    between atoms: C_12  and  C_14
REMARK    5  A    between atoms: N_27  and  C_28
REMARK    6  A    between atoms: C_28  and  C_29
REMARK    7  A    between atoms: C_29  and  N_30
REMARK                            x       y       z     vdW  Elec       q    Type
REMARK                         _______ _______ _______ _____ _____    ______ ____
ROOT
ATOM      3  C   UNL     1      -1.550   3.740  25.531  0.00  0.00    +0.039 C 
ATOM      4  C   UNL     1      -1.354   3.503  26.298  0.00  0.00    +0.003 C 
ATOM      5  C   UNL     1      -0.788   2.914  26.414  0.00  0.00    +0.000 C 
ATOM      6  C   UNL     1      -0.419   2.562  25.766  0.00  0.00    +0.002 C 
ATOM      7  C   UNL     1      -0.223   2.325  26.531  0.00  0.00    +0.000 C 
ATOM      8  C   UNL     1       0.146   1.973  25.883  0.00  0.00    +0.002 C 
ATOM      9  C   UNL     1       0.516   1.620  25.234  0.00  0.00    +0.022 C 
ATOM     10  C   UNL     1       0.319   1.858  24.468  0.00  0.00    +0.096 C 
ATOM     20  C   UNL     1      -0.247   2.447  24.352  0.00  0.00    +0.022 C 
ATOM     21  C   UNL     1      -0.443   2.684  23.587  0.00  0.00    +0.002 C 
ATOM     22  C   UNL     1      -0.616   2.799  25.000  0.00  0.00    +0.032 C 
ATOM     23  C   UNL     1      -1.182   3.388  24.883  0.00  0.00    +0.152 C 
ATOM     24  O   UNL     1      -1.378   3.625  24.118  0.00  0.00    -0.223 OA
ENDROOT
BRANCH  10  11
ATOM     11  N   UNL     1       0.688   1.506  23.820  0.00  0.00    -0.202 NA
ATOM     12  C   UNL     1       0.723   0.684  23.762  0.00  0.00    +0.282 C 
ATOM     13  O   UNL     1       0.388   0.213  24.352  0.00  0.00    -0.267 OA
BRANCH  12  14
ATOM     14  C   UNL     1       1.092   0.332  23.113  0.00  0.00    +0.136 A 
ATOM     15  N   UNL     1       1.900   0.439  22.989  0.00  0.00    -0.239 NA
ATOM     16  C   UNL     1       2.269   0.087  22.341  0.00  0.00    +0.099 A 
ATOM     17  C   UNL     1       1.829  -0.374  21.817  0.00  0.00    +0.021 A 
ATOM     18  C   UNL     1       1.020  -0.482  21.941  0.00  0.00    +0.003 A 
ATOM     19  C   UNL     1       0.652  -0.129  22.589  0.00  0.00    +0.024 A 
ENDBRANCH  12  14
ENDBRANCH  10  11
BRANCH   3   2
ATOM      1  C   UNL     1      -1.909   5.029  25.031  0.00  0.00    +0.010 C 
ATOM      2  C   UNL     1      -2.116   4.329  25.415  0.00  0.00    +0.081 C 
BRANCH   2  25
ATOM     25  C   UNL     1      -2.888   4.219  25.682  0.00  0.00    +0.241 C 
ATOM     26  O   UNL     1      -3.096   4.446  26.449  0.00  0.00    -0.273 OA
ATOM     27  N   UNL     1      -3.454   3.882  25.185  0.00  0.00    -0.204 NA
BRANCH  27  28
ATOM     28  C   UNL     1      -4.226   3.771  25.452  0.00  0.00    +0.132 C 
BRANCH  28  29
ATOM     29  C   UNL     1      -4.805   3.489  24.937  0.00  0.00    +0.096 C 
BRANCH  29  30
ATOM     30  N   UNL     1      -5.266   2.840  25.150  0.00  0.00    -0.267 NA
ATOM     31  C   UNL     1      -5.244   2.150  24.698  0.00  0.00    +0.105 C 
ATOM     32  C   UNL     1      -5.705   1.501  24.911  0.00  0.00    +0.159 C 
ATOM     33  O   UNL     1      -6.190   1.541  25.578  0.00  0.00    -0.351 OA
ATOM     34  C   UNL     1      -6.213   2.230  26.031  0.00  0.00    +0.159 C 
ATOM     35  C   UNL     1      -5.752   2.880  25.818  0.00  0.00    +0.105 C 
ENDBRANCH  29  30
ENDBRANCH  28  29
ENDBRANCH  27  28
ENDBRANCH   2  25
ENDBRANCH   3   2
TORSDOF 7
ENDMDL
MODEL 6
REMARK VINA RESULT:     -10.5      1.670      3.707
REMARK  Name = 
REMARK  7 active torsions:
REMARK  status: ('A' for Active; 'I' for Inactive)
REMARK    1  A    between atoms: C_2  and  C_3
REMARK    2  A    between atoms: C_2  and  C_25
REMARK    3  A    between atoms: C_10  and  N_11
REMARK    4  A    between atoms: C_12  and  C_14
REMARK    5  A    between atoms: N_27  and  C_28
REMARK    6  A    between atoms: C_28  and  C_29
REMARK    7  A    between atoms: C_29  and  N_30
REMARK                            x       y       z     vdW  Elec       q    Type
REMARK                         _______ _______ _______ _____ _____    ______ ____
ROOT
ATOM      3  C   UNL     1      -0.204   2.069  25.276  0.00  0.00    +0.039 C 
ATOM      4  C   UNL     1       0.323   2.056  24.640  0.00  0.00    +0.003 C 
ATOM      5  C   UNL     1       0.357   1.396  24.147  0.00  0.00    +0.000 C 
ATOM      6  C   UNL     1      -0.134   0.749  24.289  0.00  0.00    +0.002 C 
ATOM      7  C   UNL     1       0.392   0.736  23.654  0.00  0.00    +0.000 C 
ATOM      8  C   UNL     1      -0.100   0.088  23.796  0.00  0.00    +0.002 C 
ATOM      9  C   UNL     1      -0.591  -0.560  23.938  0.00  0.00    +0.022 C 
ATOM     10  C   UNL     1      -1.117  -0.547  24.574  0.00  0.00    +0.096 C 
ATOM     20  C   UNL     1      -1.151   0.114  25.067  0.00  0.00    +0.022 C 
ATOM     21  C   UNL     1      -1.677   0.127  25.703  0.00  0.00    +0.002 C 
ATOM     22  C   UNL     1      -0.660   0.762  24.925  0.00  0.00    +0.032 C 
ATOM     23  C   UNL     1      -0.694   1.422  25.418  0.00  0.00    +0.152 C 
ATOM     24  O   UNL     1      -1.220   1.435  26.054  0.00  0.00    -0.223 OA
ENDROOT
BRANCH  10  11
ATOM     11  N   UNL     1      -1.608  -1.193  24.716  0.00  0.00    -0.202 NA
ATOM     12  C   UNL     1      -2.207  -1.382  24.181  0.00  0.00    +0.282 C 
ATOM     13  O   UNL     1      -2.314  -0.923  23.503  0.00  0.00    -0.267 OA
BRANCH  12  14
ATOM     14  C   UNL     1      -2.698  -2.030  24.323  0.00  0.00    +0.136 A 
ATOM     15  N   UNL     1      -2.377  -2.743  24.582  0.00  0.00    -0.239 NA
ATOM     16  C   UNL     1      -2.869  -3.391  24.723  0.00  0.00    +0.099 A 
ATOM     17  C   UNL     1      -3.683  -3.324  24.606  0.00  0.00    +0.021 A 
ATOM     18  C   UNL     1      -4.005  -2.609  24.347  0.00  0.00    +0.003 A 
ATOM     19  C   UNL     1      -3.512  -1.962  24.205  0.00  0.00    +0.024 A 
ENDBRANCH  12  14
ENDBRANCH  10  11
BRANCH   3   2
ATOM      1  C   UNL     1       0.159   2.725  26.493  0.00  0.00    +0.010 C 
ATOM      2  C   UNL     1      -0.238   2.730  25.769  0.00  0.00    +0.081 C 
BRANCH   2  25
ATOM     25  C   UNL     1      -0.668   3.394  25.540  0.00  0.00    +0.241 C 
ATOM     26  O   UNL     1      -0.309   3.979  25.079  0.00  0.00    -0.273 OA
ATOM     27  N   UNL     1      -1.456   3.476  25.770  0.00  0.00    -0.204 NA
BRANCH  27  28
ATOM     28  C   UNL     1      -1.886   4.141  25.540  0.00  0.00    +0.132 C 
BRANCH  28  29
ATOM     29  C   UNL     1      -2.619   4.298  25.884  0.00  0.00    +0.096 C 
BRANCH  29  30
ATOM     30  N   UNL     1      -3.312   4.054  25.510  0.00  0.00    -0.267 NA
ATOM     31  C   UNL     1      -3.403   4.162  24.697  0.00  0.00    +0.105 C 
ATOM     32  C   UNL     1      -4.095   3.917  24.323  0.00  0.00    +0.159 C 
ATOM     33  O   UNL     1      -4.699   3.564  24.762  0.00  0.00    -0.351 OA
ATOM     34  C   UNL     1      -4.609   3.457  25.575  0.00  0.00    +0.159 C 
ATOM     35  C   UNL     1      -3.916   3.701  25.950  0.00  0.00    +0.105 C 
ENDBRANCH  29  30
ENDBRANCH  28  29
ENDBRANCH  27  28
ENDBRANCH   2  25
ENDBRANCH   3   2
TORSDOF 7
ENDMDL
MODEL 7
REMARK VINA RESULT:     -10.4      2.381      4.169
REMARK  Name = 
REMARK  7 active torsions:
REMARK  status: ('A' for Active; 'I' for Inactive)
REMARK    1  A    between atoms: C_2  and  C_3
REMARK    2  A    between atoms: C_2  and  C_25
REMARK    3  A    between atoms: C_10  and  N_11
REMARK    4  A    between atoms: C_12  and  C_14
REMARK    5  A    between atoms: N_27  and  C_28
REMARK    6  A    between atoms: C_28  and  C_29
REMARK    7  A    between atoms: C_29  and  N_30
REMARK                            x       y       z     vdW  Elec       q    Type
REMARK                         _______ _______ _______ _____ _____    ______ ____
ROOT
ATOM      3  C   UNL     1      -0.583   2.954  25.248  0.00  0.00    +0.039 C 
ATOM      4  C   UNL     1      -0.573   3.780  25.239  0.00  0.00    +0.003 C 
ATOM      5  C   UNL     1      -1.280   4.201  25.197  0.00  0.00    +0.000 C 
ATOM      6  C   UNL     1      -1.999   3.798  25.165  0.00  0.00    +0.002 C 
ATOM      7  C   UNL     1      -1.988   4.621  25.156  0.00  0.00    +0.000 C 
ATOM      8  C   UNL     1      -2.707   4.218  25.123  0.00  0.00    +0.002 C 
ATOM      9  C   UNL     1      -3.426   3.815  25.090  0.00  0.00    +0.022 C 
ATOM     10  C   UNL     1      -3.437   2.990  25.099  0.00  0.00    +0.096 C 
ATOM     20  C   UNL     1      -2.729   2.569  25.141  0.00  0.00    +0.022 C 
ATOM     21  C   UNL     1      -2.739   1.744  25.150  0.00  0.00    +0.002 C 
ATOM     22  C   UNL     1      -2.009   2.972  25.174  0.00  0.00    +0.032 C 
ATOM     23  C   UNL     1      -1.302   2.551  25.216  0.00  0.00    +0.152 C 
ATOM     24  O   UNL     1      -1.313   1.726  25.225  0.00  0.00    -0.223 OA
ENDROOT
BRANCH  10  11
ATOM     11  N   UNL     1      -4.156   2.587  25.066  0.00  0.00    -0.202 NA
ATOM     12  C   UNL     1      -4.798   2.853  25.508  0.00  0.00    +0.282 C 
ATOM     13  O   UNL     1      -4.723   3.524  25.984  0.00  0.00    -0.267 OA
BRANCH  12  14
ATOM     14  C   UNL     1      -5.518   2.450  25.476  0.00  0.00    +0.136 A 
ATOM     15  N   UNL     1      -5.857   2.268  24.747  0.00  0.00    -0.239 NA
ATOM     16  C   UNL     1      -6.576   1.864  24.714  0.00  0.00    +0.099 A 
ATOM     17  C   UNL     1      -6.956   1.643  25.412  0.00  0.00    +0.021 A 
ATOM     18  C   UNL     1      -6.617   1.826  26.143  0.00  0.00    +0.003 A 
ATOM     19  C   UNL     1      -5.898   2.229  26.174  0.00  0.00    +0.024 A 
ENDBRANCH  12  14
ENDBRANCH  10  11
BRANCH   3   2
ATOM      1  C   UNL     1       0.445   2.336  26.025  0.00  0.00    +0.010 C 
ATOM      2  C   UNL     1       0.125   2.533  25.290  0.00  0.00    +0.081 C 
BRANCH   2  25
ATOM     25  C   UNL     1       0.514   2.309  24.599  0.00  0.00    +0.241 C 
ATOM     26  O   UNL     1       0.676   2.871  24.016  0.00  0.00    -0.273 OA
ATOM     27  N   UNL     1       0.741   1.523  24.488  0.00  0.00    -0.204 NA
BRANCH  27  28
ATOM     28  C   UNL     1       1.130   1.299  23.797  0.00  0.00    +0.132 C 
BRANCH  28  29
ATOM     29  C   UNL     1       1.384   0.520  23.699  0.00  0.00    +0.096 C 
BRANCH  29  30
ATOM     30  N   UNL     1       1.741   0.288  22.993  0.00  0.00    -0.267 NA
ATOM     31  C   UNL     1       2.545   0.429  22.870  0.00  0.00    +0.105 C 
ATOM     32  C   UNL     1       2.902   0.196  22.165  0.00  0.00    +0.159 C 
ATOM     33  O   UNL     1       2.455  -0.178  21.580  0.00  0.00    -0.351 OA
ATOM     34  C   UNL     1       1.652  -0.320  21.702  0.00  0.00    +0.159 C 
ATOM     35  C   UNL     1       1.294  -0.087  22.409  0.00  0.00    +0.105 C 
ENDBRANCH  29  30
ENDBRANCH  28  29
ENDBRANCH  27  28
ENDBRANCH   2  25
ENDBRANCH   3   2
TORSDOF 7
ENDMDL
MODEL 8
REMARK VINA RESULT:     -10.2      2.355      5.086
REMARK  Name = 
REMARK  7 active torsions:
REMARK  status: ('A' for Active; 'I' for Inactive)
REMARK    1  A    between atoms: C_2  and  C_3
REMARK    2  A    between atoms: C_2  and  C_25
REMARK    3  A    between atoms: C_10  and  N_11
REMARK    4  A    between atoms: C_12  and  C_14
REMARK    5  A    between atoms: N_27  and  C_28
REMARK    6  A    between atoms: C_28  and  C_29
REMARK    7  A    between atoms: C_29  and  N_30
REMARK                            x       y       z     vdW  Elec       q    Type
REMARK                         _______ _______ _______ _____ _____    ______ ____
ROOT
ATOM      3  C   UNL     1      -3.205  -0.689  24.694  0.00  0.00    +0.039 C 
ATOM      4  C   UNL     1      -3.043  -1.266  25.263  0.00  0.00    +0.003 C 
ATOM      5  C   UNL     1      -2.262  -1.464  25.438  0.00  0.00    +0.000 C 
ATOM      6  C   UNL     1      -1.643  -1.087  25.046  0.00  0.00    +0.002 C 
ATOM      7  C   UNL     1      -1.481  -1.662  25.613  0.00  0.00    +0.000 C 
ATOM      8  C   UNL     1      -0.861  -1.285  25.221  0.00  0.00    +0.002 C 
ATOM      9  C   UNL     1      -0.241  -0.907  24.828  0.00  0.00    +0.022 C 
ATOM     10  C   UNL     1      -0.403  -0.331  24.259  0.00  0.00    +0.096 C 
ATOM     20  C   UNL     1      -1.185  -0.133  24.085  0.00  0.00    +0.022 C 
ATOM     21  C   UNL     1      -1.347   0.443  23.517  0.00  0.00    +0.002 C 
ATOM     22  C   UNL     1      -1.805  -0.510  24.477  0.00  0.00    +0.032 C 
ATOM     23  C   UNL     1      -2.586  -0.312  24.302  0.00  0.00    +0.152 C 
ATOM     24  O   UNL     1      -2.747   0.264  23.734  0.00  0.00    -0.223 OA
ENDROOT
BRANCH  10  11
ATOM     11  N   UNL     1       0.216   0.047  23.867  0.00  0.00    -0.202 NA
ATOM     12  C   UNL     1       0.855  -0.392  23.587  0.00  0.00    +0.282 C 
ATOM     13  O   UNL     1       0.875  -1.210  23.699  0.00  0.00    -0.267 OA
BRANCH  12  14
ATOM     14  C   UNL     1       1.475  -0.015  23.194  0.00  0.00    +0.136 A 
ATOM     15  N   UNL     1       1.802   0.675  23.505  0.00  0.00    -0.239 NA
ATOM     16  C   UNL     1       2.422   1.052  23.112  0.00  0.00    +0.099 A 
ATOM     17  C   UNL     1       2.715   0.738  22.408  0.00  0.00    +0.021 A 
ATOM     18  C   UNL     1       2.388   0.047  22.096  0.00  0.00    +0.003 A 
ATOM     19  C   UNL     1       1.769  -0.329  22.490  0.00  0.00    +0.024 A 
ENDBRANCH  12  14
ENDBRANCH  10  11
BRANCH   3   2
ATOM      1  C   UNL     1      -4.374  -0.859  23.891  0.00  0.00    +0.010 C 
ATOM      2  C   UNL     1      -3.987  -0.491  24.520  0.00  0.00    +0.081 C 
BRANCH   2  25
ATOM     25  C   UNL     1      -4.381   0.074  24.973  0.00  0.00    +0.241 C 
ATOM     26  O   UNL     1      -4.502  -0.056  25.779  0.00  0.00    -0.273 OA
ATOM     27  N   UNL     1      -4.654   0.768  24.621  0.00  0.00    -0.204 NA
BRANCH  27  28
ATOM     28  C   UNL     1      -5.049   1.333  25.074  0.00  0.00    +0.132 C 
BRANCH  28  29
ATOM     29  C   UNL     1      -5.374   1.999  24.712  0.00  0.00    +0.096 C 
BRANCH  29  30
ATOM     30  N   UNL     1      -5.172   2.753  24.977  0.00  0.00    -0.267 NA
ATOM     31  C   UNL     1      -5.612   3.112  25.576  0.00  0.00    +0.105 C 
ATOM     32  C   UNL     1      -5.410   3.866  25.841  0.00  0.00    +0.159 C 
ATOM     33  O   UNL     1      -4.767   4.263  25.507  0.00  0.00    -0.351 OA
ATOM     34  C   UNL     1      -4.328   3.905  24.909  0.00  0.00    +0.159 C 
ATOM     35  C   UNL     1      -4.529   3.150  24.643  0.00  0.00    +0.105 C 
ENDBRANCH  29  30
ENDBRANCH  28  29
ENDBRANCH  27  28
ENDBRANCH   2  25
ENDBRANCH   3   2
TORSDOF 7
ENDMDL
MODEL 9
REMARK VINA RESULT:     -10.2      1.773      3.731
REMARK  Name = 
REMARK  7 active torsions:
REMARK  status: ('A' for Active; 'I' for Inactive)
REMARK    1  A    between atoms: C_2  and  C_3
REMARK    2  A    between atoms: C_2  and  C_25
REMARK    3  A    between atoms: C_10  and  N_11
REMARK    4  A    between atoms: C_12  and  C_14
REMARK    5  A    between atoms: N_27  and  C_28
REMARK    6  A    between atoms: C_28  and  C_29
REMARK    7  A    between atoms: C_29  and  N_30
REMARK                            x       y       z     vdW  Elec       q    Type
REMARK                         _______ _______ _______ _____ _____    ______ ____
ROOT
ATOM      3  C   UNL     1      -1.927   3.450  25.319  0.00  0.00    +0.039 C 
ATOM      4  C   UNL     1      -1.274   3.589  25.805  0.00  0.00    +0.003 C 
ATOM      5  C   UNL     1      -0.746   2.978  25.971  0.00  0.00    +0.000 C 
ATOM      6  C   UNL     1      -0.870   2.228  25.652  0.00  0.00    +0.002 C 
ATOM      7  C   UNL     1      -0.219   2.367  26.137  0.00  0.00    +0.000 C 
ATOM      8  C   UNL     1      -0.342   1.616  25.818  0.00  0.00    +0.002 C 
ATOM      9  C   UNL     1      -0.465   0.866  25.498  0.00  0.00    +0.022 C 
ATOM     10  C   UNL     1      -1.119   0.726  25.012  0.00  0.00    +0.096 C 
ATOM     20  C   UNL     1      -1.647   1.338  24.847  0.00  0.00    +0.022 C 
ATOM     21  C   UNL     1      -2.299   1.199  24.361  0.00  0.00    +0.002 C 
ATOM     22  C   UNL     1      -1.523   2.089  25.166  0.00  0.00    +0.032 C 
ATOM     23  C   UNL     1      -2.051   2.700  25.000  0.00  0.00    +0.152 C 
ATOM     24  O   UNL     1      -2.704   2.561  24.515  0.00  0.00    -0.223 OA
ENDROOT
BRANCH  10  11
ATOM     11  N   UNL     1      -1.242  -0.024  24.693  0.00  0.00    -0.202 NA
ATOM     12  C   UNL     1      -1.354  -0.671  25.191  0.00  0.00    +0.282 C 
ATOM     13  O   UNL     1      -1.341  -0.568  26.011  0.00  0.00    -0.267 OA
BRANCH  12  14
ATOM     14  C   UNL     1      -1.478  -1.422  24.872  0.00  0.00    +0.136 A 
ATOM     15  N   UNL     1      -0.864  -1.811  24.483  0.00  0.00    -0.239 NA
ATOM     16  C   UNL     1      -0.988  -2.562  24.164  0.00  0.00    +0.099 A 
ATOM     17  C   UNL     1      -1.727  -2.923  24.235  0.00  0.00    +0.021 A 
ATOM     18  C   UNL     1      -2.341  -2.533  24.625  0.00  0.00    +0.003 A 
ATOM     19  C   UNL     1      -2.216  -1.782  24.943  0.00  0.00    +0.024 A 
ENDBRANCH  12  14
ENDBRANCH  10  11
BRANCH   3   2
ATOM      1  C   UNL     1      -2.289   4.598  24.548  0.00  0.00    +0.010 C 
ATOM      2  C   UNL     1      -2.456   4.062  25.154  0.00  0.00    +0.081 C 
BRANCH   2  25
ATOM     25  C   UNL     1      -3.149   4.139  25.592  0.00  0.00    +0.241 C 
ATOM     26  O   UNL     1      -3.128   4.485  26.342  0.00  0.00    -0.273 OA
ATOM     27  N   UNL     1      -3.866   3.870  25.283  0.00  0.00    -0.204 NA
BRANCH  27  28
ATOM     28  C   UNL     1      -4.560   3.947  25.721  0.00  0.00    +0.132 C 
BRANCH  28  29
ATOM     29  C   UNL     1      -5.289   3.780  25.373  0.00  0.00    +0.096 C 
BRANCH  29  30
ATOM     30  N   UNL     1      -5.652   3.052  25.505  0.00  0.00    -0.267 NA
ATOM     31  C   UNL     1      -5.847   2.820  26.272  0.00  0.00    +0.105 C 
ATOM     32  C   UNL     1      -6.210   2.092  26.404  0.00  0.00    +0.159 C 
ATOM     33  O   UNL     1      -6.379   1.593  25.767  0.00  0.00    -0.351 OA
ATOM     34  C   UNL     1      -6.184   1.825  25.000  0.00  0.00    +0.159 C 
ATOM     35  C   UNL     1      -5.821   2.554  24.868  0.00  0.00    +0.105 C 
ENDBRANCH  29  30
ENDBRANCH  28  29
ENDBRANCH  27  28
ENDBRANCH   2  25
ENDBRANCH   3   2
TORSDOF 7
ENDMDL
