MODEL 1
REMARK VINA RESULT:     -12.3      0.000      0.000
REMARK  Name = 
REMARK  7 active torsions:
REMARK  status: ('A' for Active; 'I' for Inactive)
REMARK    1  A    between atoms: O_2  and  C_3
REMARK    2  A    between atoms: C_6  and  N_7
REMARK    3  A    between atoms: N_10  and  C_11
REMARK    4  A    between atoms: C_11  and  C_12
REMARK    5  A    between atoms: C_14  and  C_15
REMARK    6  A    between atoms: C_15  and  C_16
REMARK    7  A    between atoms: C_19  and  C_21
REMARK                            x       y       z     vdW  Elec       q    Type
REMARK                         _______ _______ _______ _____ _____    ______ ____
ROOT
ATOM     12  C   UNL     1      -0.544   2.035  24.930  0.00  0.00    +0.167 C 
ATOM     13  O   UNL     1      -1.174   2.414  25.305  0.00  0.00    -0.354 OA
ATOM     14  C   UNL     1      -1.141   3.226  25.448  0.00  0.00    +0.121 C 
ATOM     28  C   UNL     1      -0.478   3.659  25.217  0.00  0.00    +0.033 C 
ATOM     29  C   UNL     1       0.152   3.280  24.842  0.00  0.00    +0.038 C 
ATOM     30  C   UNL     1       0.119   2.469  24.699  0.00  0.00    +0.181 C 
ATOM     31  O   UNL     1       0.748   2.089  24.325  0.00  0.00    -0.220 OA
ENDROOT
BRANCH  12  11
ATOM     11  C   UNL     1      -0.577   1.224  24.787  0.00  0.00    +0.149 C 
BRANCH  11  10
ATOM      7  N   UNL     1      -1.738  -0.409  25.651  0.00  0.00    -0.161 NA
ATOM      8  C   UNL     1      -1.396   0.094  25.095  0.00  0.00    +0.344 C 
ATOM      9  O   UNL     1      -1.529  -0.028  24.291  0.00  0.00    -0.249 OA
ATOM     10  N   UNL     1      -0.920   0.721  25.343  0.00  0.00    -0.184 NA
BRANCH   7   6
ATOM      3  C   UNL     1      -3.167  -2.289  24.906  0.00  0.00    +0.139 A 
ATOM      4  C   UNL     1      -2.352  -2.313  24.779  0.00  0.00    +0.038 A 
ATOM      5  C   UNL     1      -1.876  -1.687  25.027  0.00  0.00    +0.020 A 
ATOM      6  C   UNL     1      -2.214  -1.035  25.403  0.00  0.00    +0.075 A 
ATOM     32  C   UNL     1      -3.030  -1.010  25.530  0.00  0.00    +0.020 A 
ATOM     33  C   UNL     1      -3.506  -1.636  25.282  0.00  0.00    +0.038 A 
BRANCH   3   2
ATOM      1  C   UNL     1      -4.088  -2.846  23.966  0.00  0.00    +0.252 C 
ATOM      2  O   UNL     1      -3.643  -2.915  24.658  0.00  0.00    -0.471 OA
ENDBRANCH   3   2
ENDBRANCH   7   6
ENDBRANCH  11  10
ENDBRANCH  12  11
BRANCH  14  15
ATOM     15  C   UNL     1      -1.771   3.605  25.823  0.00  0.00    +0.079 C 
BRANCH  15  16
ATOM     16  C   UNL     1      -2.521   3.599  25.476  0.00  0.00    +0.103 A 
ATOM     17  N   UNL     1      -2.762   4.059  24.837  0.00  0.00    -0.081 NA
ATOM     18  O   UNL     1      -3.550   3.877  24.674  0.00  0.00    -0.354 OA
ATOM     19  C   UNL     1      -3.795   3.303  25.213  0.00  0.00    +0.177 A 
ATOM     20  C   UNL     1      -3.159   3.131  25.710  0.00  0.00    +0.058 A 
BRANCH  19  21
ATOM     21  C   UNL     1      -4.546   2.961  25.250  0.00  0.00    +0.040 A 
ATOM     22  C   UNL     1      -4.679   2.222  24.910  0.00  0.00    +0.045 A 
ATOM     23  C   UNL     1      -5.429   1.880  24.947  0.00  0.00    +0.196 A 
ATOM     24  O   UNL     1      -5.563   1.141  24.607  0.00  0.00    -0.287 OA
ATOM     25  C   UNL     1      -6.046   2.279  25.324  0.00  0.00    +0.042 A 
ATOM     26  C   UNL     1      -5.912   3.018  25.664  0.00  0.00    +0.003 A 
ATOM     27  C   UNL     1      -5.162   3.359  25.627  0.00  0.00    +0.003 A 
ENDBRANCH  19  21
ENDBRANCH  15  16
ENDBRANCH  14  15
TORSDOF 7
ENDMDL
MODEL 2
REMARK VINA RESULT:     -12.3      1.214      4.339
REMARK  Name = 
REMARK  7 active torsions:
REMARK  status: ('A' for Active; 'I' for Inactive)
REMARK    1  A    between atoms: O_2  and  C_3
REMARK    2  A    between atoms: C_6  and  N_7
REMARK    3  A    between atoms: N_10  and  C_11
REMARK    4  A    between atoms: C_11  and  C_12
REMARK    5  A    between atoms: C_14  and  C_15
REMARK    6  A    between atoms: C_15  and  C_16
REMARK    7  A    between atoms: C_19  and  C_21
REMARK                            x       y       z     vdW  Elec       q    Type
REMARK                         _______ _______ _______ _____ _____    ______ ____
ROOT
ATOM     12  C   UNL     1      -1.320  -0.797  24.780  0.00  0.00    +0.167 C 
ATOM     13  O   UNL     1      -2.089  -0.727  25.071  0.00  0.00    -0.354 OA
ATOM     14  C   UNL     1      -2.568  -1.396  25.136  0.00  0.00    +0.121 C 
ATOM     28  C   UNL     1      -2.277  -2.135  24.911  0.00  0.00    +0.033 C 
ATOM     29  C   UNL     1      -1.509  -2.205  24.621  0.00  0.00    +0.038 C 
ATOM     30  C   UNL     1      -1.030  -1.536  24.556  0.00  0.00    +0.181 C 
ATOM     31  O   UNL     1      -0.261  -1.606  24.265  0.00  0.00    -0.220 OA
ENDROOT
BRANCH  12  11
ATOM     11  C   UNL     1      -0.841  -0.130  24.715  0.00  0.00    +0.149 C 
BRANCH  11  10
ATOM      7  N   UNL     1      -0.828   1.789  25.755  0.00  0.00    -0.161 NA
ATOM      8  C   UNL     1      -0.845   1.233  25.147  0.00  0.00    +0.344 C 
ATOM      9  O   UNL     1      -0.883   1.482  24.362  0.00  0.00    -0.249 OA
ATOM     10  N   UNL     1      -0.824   0.427  25.323  0.00  0.00    -0.184 NA
BRANCH   7   6
ATOM      3  C   UNL     1      -0.890   4.207  25.224  0.00  0.00    +0.139 A 
ATOM      4  C   UNL     1      -1.536   3.847  25.591  0.00  0.00    +0.038 A 
ATOM      5  C   UNL     1      -1.516   3.042  25.767  0.00  0.00    +0.020 A 
ATOM      6  C   UNL     1      -0.849   2.594  25.578  0.00  0.00    +0.075 A 
ATOM     32  C   UNL     1      -0.202   2.954  25.212  0.00  0.00    +0.020 A 
ATOM     33  C   UNL     1      -0.223   3.759  25.035  0.00  0.00    +0.038 A 
BRANCH   3   2
ATOM      1  C   UNL     1      -1.627   5.422  25.079  0.00  0.00    +0.252 C 
ATOM      2  O   UNL     1      -0.911   5.012  25.048  0.00  0.00    -0.471 OA
ENDBRANCH   3   2
ENDBRANCH   7   6
ENDBRANCH  11  10
ENDBRANCH  12  11
BRANCH  14  15
ATOM     15  C   UNL     1      -3.337  -1.325  25.427  0.00  0.00    +0.079 C 
BRANCH  15  16
ATOM     16  C   UNL     1      -3.856  -0.778  25.090  0.00  0.00    +0.103 A 
ATOM     17  N   UNL     1      -4.306  -0.893  24.409  0.00  0.00    -0.081 NA
ATOM     18  O   UNL     1      -4.744  -0.207  24.274  0.00  0.00    -0.354 OA
ATOM     19  C   UNL     1      -4.565   0.332  24.872  0.00  0.00    +0.177 A 
ATOM     20  C   UNL     1      -4.016  -0.021  25.377  0.00  0.00    +0.058 A 
BRANCH  19  21
ATOM     21  C   UNL     1      -4.879   1.091  24.952  0.00  0.00    +0.040 A 
ATOM     22  C   UNL     1      -4.573   1.713  24.505  0.00  0.00    +0.045 A 
ATOM     23  C   UNL     1      -4.888   2.472  24.584  0.00  0.00    +0.196 A 
ATOM     24  O   UNL     1      -4.582   3.093  24.138  0.00  0.00    -0.287 OA
ATOM     25  C   UNL     1      -5.508   2.607  25.111  0.00  0.00    +0.042 A 
ATOM     26  C   UNL     1      -5.814   1.985  25.558  0.00  0.00    +0.003 A 
ATOM     27  C   UNL     1      -5.499   1.226  25.478  0.00  0.00    +0.003 A 
ENDBRANCH  19  21
ENDBRANCH  15  16
ENDBRANCH  14  15
TORSDOF 7
ENDMDL
MODEL 3
REMARK VINA RESULT:     -12.1      1.407      3.859
REMARK  Name = 
REMARK  7 active torsions:
REMARK  status: ('A' for Active; 'I' for Inactive)
REMARK    1  A    between atoms: O_2  and  C_3
REMARK    2  A    between atoms: C_6  and  N_7
REMARK    3  A    between atoms: N_10  and  C_11
REMARK    4  A    between atoms: C_11  and  C_12
REMARK    5  A    between atoms: C_14  and  C_15
REMARK    6  A    between atoms: C_15  and  C_16
REMARK    7  A    between atoms: C_19  and  C_21
REMARK                            x       y       z     vdW  Elec       q    Type
REMARK                         _______ _______ _______ _____ _____    ______ ____
ROOT
ATOM     12  C   UNL     1      -5.105   2.227  25.343  0.00  0.00    +0.167 C 
ATOM     13  O   UNL     1      -4.476   2.623  24.983  0.00  0.00    -0.354 OA
ATOM     14  C   UNL     1      -4.435   3.447  25.014  0.00  0.00    +0.121 C 
ATOM     28  C   UNL     1      -5.022   3.874  25.406  0.00  0.00    +0.033 C 
ATOM     29  C   UNL     1      -5.650   3.479  25.766  0.00  0.00    +0.038 C 
ATOM     30  C   UNL     1      -5.691   2.656  25.734  0.00  0.00    +0.181 C 
ATOM     31  O   UNL     1      -6.319   2.260  26.094  0.00  0.00    -0.220 OA
ENDROOT
BRANCH  12  11
ATOM     11  C   UNL     1      -5.146   1.405  25.312  0.00  0.00    +0.149 C 
BRANCH  11  10
ATOM      7  N   UNL     1      -4.161  -0.120  24.102  0.00  0.00    -0.161 NA
ATOM      8  C   UNL     1      -4.456   0.283  24.757  0.00  0.00    +0.344 C 
ATOM      9  O   UNL     1      -4.359  -0.031  25.513  0.00  0.00    -0.249 OA
ATOM     10  N   UNL     1      -4.850   1.001  24.657  0.00  0.00    -0.184 NA
BRANCH   7   6
ATOM      3  C   UNL     1      -2.980  -2.275  24.403  0.00  0.00    +0.139 A 
ATOM      4  C   UNL     1      -3.774  -2.267  24.182  0.00  0.00    +0.038 A 
ATOM      5  C   UNL     1      -4.168  -1.549  24.082  0.00  0.00    +0.020 A 
ATOM      6  C   UNL     1      -3.767  -0.838  24.202  0.00  0.00    +0.075 A 
ATOM     32  C   UNL     1      -2.972  -0.846  24.423  0.00  0.00    +0.020 A 
ATOM     33  C   UNL     1      -2.578  -1.564  24.524  0.00  0.00    +0.038 A 
BRANCH   3   2
ATOM      1  C   UNL     1      -1.762  -3.019  24.477  0.00  0.00    +0.252 C 
ATOM      2  O   UNL     1      -2.586  -2.993  24.504  0.00  0.00    -0.471 OA
ENDBRANCH   3   2
ENDBRANCH   7   6
ENDBRANCH  11  10
ENDBRANCH  12  11
BRANCH  14  15
ATOM     15  C   UNL     1      -3.807   3.842  24.653  0.00  0.00    +0.079 C 
BRANCH  15  16
ATOM     16  C   UNL     1      -3.051   3.802  24.984  0.00  0.00    +0.103 A 
ATOM     17  N   UNL     1      -2.758   4.288  25.582  0.00  0.00    -0.081 NA
ATOM     18  O   UNL     1      -1.982   4.056  25.742  0.00  0.00    -0.354 OA
ATOM     19  C   UNL     1      -1.796   3.427  25.242  0.00  0.00    +0.177 A 
ATOM     20  C   UNL     1      -2.457   3.269  24.773  0.00  0.00    +0.058 A 
BRANCH  19  21
ATOM     21  C   UNL     1      -1.076   3.025  25.216  0.00  0.00    +0.040 A 
ATOM     22  C   UNL     1      -0.623   2.945  25.900  0.00  0.00    +0.045 A 
ATOM     23  C   UNL     1       0.097   2.543  25.874  0.00  0.00    +0.196 A 
ATOM     24  O   UNL     1       0.550   2.463  26.558  0.00  0.00    -0.287 OA
ATOM     25  C   UNL     1       0.364   2.221  25.162  0.00  0.00    +0.042 A 
ATOM     26  C   UNL     1      -0.089   2.302  24.478  0.00  0.00    +0.003 A 
ATOM     27  C   UNL     1      -0.810   2.704  24.504  0.00  0.00    +0.003 A 
ENDBRANCH  19  21
ENDBRANCH  15  16
ENDBRANCH  14  15
TORSDOF 7
ENDMDL
MODEL 4
REMARK VINA RESULT:     -12.1      1.309      4.956
REMARK  Name = 
REMARK  7 active torsions:
REMARK  status: ('A' for Active; 'I' for Inactive)
REMARK    1  A    between atoms: O_2  and  C_3
REMARK    2  A    between atoms: C_6  and  N_7
REMARK    3  A    between atoms: N_10  and  C_11
REMARK    4  A    between atoms: C_11  and  C_12
REMARK    5  A    between atoms: C_14  and  C_15
REMARK    6  A    between atoms: C_15  and  C_16
REMARK    7  A    between atoms: C_19  and  C_21
REMARK                            x       y       z     vdW  Elec       q    Type
REMARK                         _______ _______ _______ _____ _____    ______ ____
ROOT
ATOM     12  C   UNL     1      -3.072  -1.563  24.798  0.00  0.00    +0.167 C 
ATOM     13  O   UNL     1      -2.362  -1.232  25.060  0.00  0.00    -0.354 OA
ATOM     14  C   UNL     1      -1.653  -1.640  24.953  0.00  0.00    +0.121 C 
ATOM     28  C   UNL     1      -1.653  -2.378  24.585  0.00  0.00    +0.033 C 
ATOM     29  C   UNL     1      -2.362  -2.709  24.324  0.00  0.00    +0.038 C 
ATOM     30  C   UNL     1      -3.071  -2.301  24.431  0.00  0.00    +0.181 C 
ATOM     31  O   UNL     1      -3.780  -2.631  24.170  0.00  0.00    -0.220 OA
ENDROOT
BRANCH  12  11
ATOM     11  C   UNL     1      -3.780  -1.155  24.905  0.00  0.00    +0.149 C 
BRANCH  11  10
ATOM      7  N   UNL     1      -4.445   0.852  24.368  0.00  0.00    -0.161 NA
ATOM      8  C   UNL     1      -4.286   0.178  24.814  0.00  0.00    +0.344 C 
ATOM      9  O   UNL     1      -4.473   0.162  25.617  0.00  0.00    -0.249 OA
ATOM     10  N   UNL     1      -3.939  -0.480  24.458  0.00  0.00    -0.184 NA
BRANCH   7   6
ATOM      3  C   UNL     1      -5.485   2.829  25.437  0.00  0.00    +0.139 A 
ATOM      4  C   UNL     1      -5.951   2.186  25.214  0.00  0.00    +0.038 A 
ATOM      5  C   UNL     1      -5.605   1.528  24.858  0.00  0.00    +0.020 A 
ATOM      6  C   UNL     1      -4.791   1.511  24.724  0.00  0.00    +0.075 A 
ATOM     32  C   UNL     1      -4.324   2.154  24.946  0.00  0.00    +0.020 A 
ATOM     33  C   UNL     1      -4.670   2.813  25.303  0.00  0.00    +0.038 A 
BRANCH   3   2
ATOM      1  C   UNL     1      -5.533   4.242  25.642  0.00  0.00    +0.252 C 
ATOM      2  O   UNL     1      -5.831   3.487  25.793  0.00  0.00    -0.471 OA
ENDBRANCH   3   2
ENDBRANCH   7   6
ENDBRANCH  11  10
ENDBRANCH  12  11
BRANCH  14  15
ATOM     15  C   UNL     1      -0.944  -1.308  25.215  0.00  0.00    +0.079 C 
BRANCH  15  16
ATOM     16  C   UNL     1      -0.715  -0.560  24.949  0.00  0.00    +0.103 A 
ATOM     17  N   UNL     1      -0.338  -0.394  24.236  0.00  0.00    -0.081 NA
ATOM     18  O   UNL     1      -0.214   0.421  24.196  0.00  0.00    -0.354 OA
ATOM     19  C   UNL     1      -0.515   0.758  24.887  0.00  0.00    +0.177 A 
ATOM     20  C   UNL     1      -0.825   0.151  25.353  0.00  0.00    +0.058 A 
BRANCH  19  21
ATOM     21  C   UNL     1      -0.507   1.561  25.078  0.00  0.00    +0.040 A 
ATOM     22  C   UNL     1      -0.794   2.115  24.539  0.00  0.00    +0.045 A 
ATOM     23  C   UNL     1      -0.786   2.918  24.730  0.00  0.00    +0.196 A 
ATOM     24  O   UNL     1      -1.072   3.473  24.192  0.00  0.00    -0.287 OA
ATOM     25  C   UNL     1      -0.491   3.165  25.460  0.00  0.00    +0.042 A 
ATOM     26  C   UNL     1      -0.205   2.610  25.999  0.00  0.00    +0.003 A 
ATOM     27  C   UNL     1      -0.213   1.807  25.808  0.00  0.00    +0.003 A 
ENDBRANCH  19  21
ENDBRANCH  15  16
ENDBRANCH  14  15
TORSDOF 7
ENDMDL
MODEL 5
REMARK VINA RESULT:     -12.0      1.626      3.895
REMARK  Name = 
REMARK  7 active torsions:
REMARK  status: ('A' for Active; 'I' for Inactive)
REMARK    1  A    between atoms: O_2  and  C_3
REMARK    2  A    between atoms: C_6  and  N_7
REMARK    3  A    between atoms: N_10  and  C_11
REMARK    4  A    between atoms: C_11  and  C_12
REMARK    5  A    between atoms: C_14  and  C_15
REMARK    6  A    between atoms: C_15  and  C_16
REMARK    7  A    between atoms: C_19  and  C_21
REMARK                            x       y       z     vdW  Elec       q    Type
REMARK                         _______ _______ _______ _____ _____    ______ ____
ROOT
ATOM     12  C   UNL     1      -2.665   3.243  24.878  0.00  0.00    +0.167 C 
ATOM     13  O   UNL     1      -3.227   2.715  24.582  0.00  0.00    -0.354 OA
ATOM     14  C   UNL     1      -4.023   2.810  24.776  0.00  0.00    +0.121 C 
ATOM     28  C   UNL     1      -4.257   3.432  25.265  0.00  0.00    +0.033 C 
ATOM     29  C   UNL     1      -3.696   3.959  25.560  0.00  0.00    +0.038 C 
ATOM     30  C   UNL     1      -2.900   3.865  25.366  0.00  0.00    +0.181 C 
ATOM     31  O   UNL     1      -2.338   4.392  25.661  0.00  0.00    -0.220 OA
ENDROOT
BRANCH  12  11
ATOM     11  C   UNL     1      -1.869   3.149  24.684  0.00  0.00    +0.149 C 
BRANCH  11  10
ATOM      7  N   UNL     1      -0.520   1.434  24.735  0.00  0.00    -0.161 NA
ATOM      8  C   UNL     1      -0.937   2.089  24.458  0.00  0.00    +0.344 C 
ATOM      9  O   UNL     1      -0.839   2.342  23.679  0.00  0.00    -0.249 OA
ATOM     10  N   UNL     1      -1.452   2.493  24.960  0.00  0.00    -0.184 NA
BRANCH   7   6
ATOM      3  C   UNL     1       1.025   0.223  23.227  0.00  0.00    +0.139 A 
ATOM      4  C   UNL     1       1.258   0.936  23.571  0.00  0.00    +0.038 A 
ATOM      5  C   UNL     1       0.743   1.339  24.073  0.00  0.00    +0.020 A 
ATOM      6  C   UNL     1      -0.005   1.031  24.232  0.00  0.00    +0.075 A 
ATOM     32  C   UNL     1      -0.238   0.317  23.888  0.00  0.00    +0.020 A 
ATOM     33  C   UNL     1       0.277  -0.087  23.386  0.00  0.00    +0.038 A 
BRANCH   3   2
ATOM      1  C   UNL     1       2.256   0.166  22.503  0.00  0.00    +0.252 C 
ATOM      2  O   UNL     1       1.541  -0.181  22.724  0.00  0.00    -0.471 OA
ENDBRANCH   3   2
ENDBRANCH   7   6
ENDBRANCH  11  10
ENDBRANCH  12  11
BRANCH  14  15
ATOM     15  C   UNL     1      -4.585   2.282  24.481  0.00  0.00    +0.079 C 
BRANCH  15  16
ATOM     16  C   UNL     1      -4.621   1.511  24.775  0.00  0.00    +0.103 A 
ATOM     17  N   UNL     1      -5.094   1.253  25.399  0.00  0.00    -0.081 NA
ATOM     18  O   UNL     1      -4.955   0.446  25.506  0.00  0.00    -0.354 OA
ATOM     19  C   UNL     1      -4.397   0.207  24.948  0.00  0.00    +0.177 A 
ATOM     20  C   UNL     1      -4.190   0.866  24.496  0.00  0.00    +0.058 A 
BRANCH  19  21
ATOM     21  C   UNL     1      -4.098  -0.557  24.858  0.00  0.00    +0.040 A 
ATOM     22  C   UNL     1      -4.378  -1.040  24.251  0.00  0.00    +0.045 A 
ATOM     23  C   UNL     1      -4.079  -1.804  24.161  0.00  0.00    +0.196 A 
ATOM     24  O   UNL     1      -4.358  -2.288  23.554  0.00  0.00    -0.287 OA
ATOM     25  C   UNL     1      -3.500  -2.084  24.679  0.00  0.00    +0.042 A 
ATOM     26  C   UNL     1      -3.221  -1.601  25.285  0.00  0.00    +0.003 A 
ATOM     27  C   UNL     1      -3.520  -0.836  25.375  0.00  0.00    +0.003 A 
ENDBRANCH  19  21
ENDBRANCH  15  16
ENDBRANCH  14  15
TORSDOF 7
ENDMDL
MODEL 6
REMARK VINA RESULT:     -11.5      1.503      4.053
REMARK  Name = 
REMARK  7 active torsions:
REMARK  status: ('A' for Active; 'I' for Inactive)
REMARK    1  A    between atoms: O_2  and  C_3
REMARK    2  A    between atoms: C_6  and  N_7
REMARK    3  A    between atoms: N_10  and  C_11
REMARK    4  A    between atoms: C_11  and  C_12
REMARK    5  A    between atoms: C_14  and  C_15
REMARK    6  A    between atoms: C_15  and  C_16
REMARK    7  A    between atoms: C_19  and  C_21
REMARK                            x       y       z     vdW  Elec       q    Type
REMARK                         _______ _______ _______ _____ _____    ______ ____
ROOT
ATOM     12  C   UNL     1      -1.353  -0.417  24.543  0.00  0.00    +0.167 C 
ATOM     13  O   UNL     1      -1.028   0.312  24.331  0.00  0.00    -0.354 OA
ATOM     14  C   UNL     1      -0.238   0.360  24.097  0.00  0.00    +0.121 C 
ATOM     28  C   UNL     1       0.227  -0.322  24.075  0.00  0.00    +0.033 C 
ATOM     29  C   UNL     1      -0.097  -1.050  24.286  0.00  0.00    +0.038 C 
ATOM     30  C   UNL     1      -0.887  -1.097  24.520  0.00  0.00    +0.181 C 
ATOM     31  O   UNL     1      -1.212  -1.825  24.732  0.00  0.00    -0.220 OA
ENDROOT
BRANCH  12  11
ATOM     11  C   UNL     1      -2.141  -0.464  24.777  0.00  0.00    +0.149 C 
BRANCH  11  10
ATOM      7  N   UNL     1      -3.880   0.697  24.153  0.00  0.00    -0.161 NA
ATOM      8  C   UNL     1      -3.289   0.374  24.629  0.00  0.00    +0.344 C 
ATOM      9  O   UNL     1      -3.253   0.565  25.430  0.00  0.00    -0.249 OA
ATOM     10  N   UNL     1      -2.733  -0.141  24.302  0.00  0.00    -0.184 NA
BRANCH   7   6
ATOM      3  C   UNL     1      -5.549   2.242  25.133  0.00  0.00    +0.139 A 
ATOM      4  C   UNL     1      -5.572   1.438  25.317  0.00  0.00    +0.038 A 
ATOM      5  C   UNL     1      -5.016   0.923  24.991  0.00  0.00    +0.020 A 
ATOM      6  C   UNL     1      -4.437   1.212  24.480  0.00  0.00    +0.075 A 
ATOM     32  C   UNL     1      -4.413   2.016  24.295  0.00  0.00    +0.020 A 
ATOM     33  C   UNL     1      -4.969   2.531  24.621  0.00  0.00    +0.038 A 
BRANCH   3   2
ATOM      1  C   UNL     1      -5.874   3.508  25.708  0.00  0.00    +0.252 C 
ATOM      2  O   UNL     1      -6.106   2.756  25.459  0.00  0.00    -0.471 OA
ENDBRANCH   3   2
ENDBRANCH   7   6
ENDBRANCH  11  10
ENDBRANCH  12  11
BRANCH  14  15
ATOM     15  C   UNL     1       0.086   1.089  23.885  0.00  0.00    +0.079 C 
BRANCH  15  16
ATOM     16  C   UNL     1       0.011   1.736  24.393  0.00  0.00    +0.103 A 
ATOM     17  N   UNL     1       0.435   1.856  25.089  0.00  0.00    -0.081 NA
ATOM     18  O   UNL     1       0.186   2.571  25.419  0.00  0.00    -0.354 OA
ATOM     19  C   UNL     1      -0.393   2.891  24.926  0.00  0.00    +0.177 A 
ATOM     20  C   UNL     1      -0.501   2.375  24.291  0.00  0.00    +0.058 A 
BRANCH  19  21
ATOM     21  C   UNL     1      -0.793   3.603  25.046  0.00  0.00    +0.040 A 
ATOM     22  C   UNL     1      -1.476   3.619  25.507  0.00  0.00    +0.045 A 
ATOM     23  C   UNL     1      -1.876   4.331  25.628  0.00  0.00    +0.196 A 
ATOM     24  O   UNL     1      -2.559   4.347  26.089  0.00  0.00    -0.287 OA
ATOM     25  C   UNL     1      -1.591   5.026  25.286  0.00  0.00    +0.042 A 
ATOM     26  C   UNL     1      -0.908   5.010  24.825  0.00  0.00    +0.003 A 
ATOM     27  C   UNL     1      -0.508   4.298  24.705  0.00  0.00    +0.003 A 
ENDBRANCH  19  21
ENDBRANCH  15  16
ENDBRANCH  14  15
TORSDOF 7
ENDMDL
MODEL 7
REMARK VINA RESULT:     -11.4      1.568      3.940
REMARK  Name = 
REMARK  7 active torsions:
REMARK  status: ('A' for Active; 'I' for Inactive)
REMARK    1  A    between atoms: O_2  and  C_3
REMARK    2  A    between atoms: C_6  and  N_7
REMARK    3  A    between atoms: N_10  and  C_11
REMARK    4  A    between atoms: C_11  and  C_12
REMARK    5  A    between atoms: C_14  and  C_15
REMARK    6  A    between atoms: C_15  and  C_16
REMARK    7  A    between atoms: C_19  and  C_21
REMARK                            x       y       z     vdW  Elec       q    Type
REMARK                         _______ _______ _______ _____ _____    ______ ____
ROOT
ATOM     12  C   UNL     1      -4.547   1.293  24.833  0.00  0.00    +0.167 C 
ATOM     13  O   UNL     1      -4.380   2.102  24.818  0.00  0.00    -0.354 OA
ATOM     14  C   UNL     1      -4.933   2.643  25.102  0.00  0.00    +0.121 C 
ATOM     28  C   UNL     1      -5.654   2.376  25.402  0.00  0.00    +0.033 C 
ATOM     29  C   UNL     1      -5.822   1.569  25.417  0.00  0.00    +0.038 C 
ATOM     30  C   UNL     1      -5.268   1.028  25.133  0.00  0.00    +0.181 C 
ATOM     31  O   UNL     1      -5.435   0.220  25.148  0.00  0.00    -0.220 OA
ENDROOT
BRANCH  12  11
ATOM     11  C   UNL     1      -3.994   0.753  24.549  0.00  0.00    +0.149 C 
BRANCH  11  10
ATOM      7  N   UNL     1      -1.913   0.264  24.990  0.00  0.00    -0.161 NA
ATOM      8  C   UNL     1      -2.608   0.402  24.569  0.00  0.00    +0.344 C 
ATOM      9  O   UNL     1      -2.615   0.328  23.748  0.00  0.00    -0.249 OA
ATOM     10  N   UNL     1      -3.298   0.614  24.970  0.00  0.00    -0.184 NA
BRANCH   7   6
ATOM      3  C   UNL     1       0.156  -0.372  23.788  0.00  0.00    +0.139 A 
ATOM      4  C   UNL     1      -0.287  -0.947  24.181  0.00  0.00    +0.038 A 
ATOM      5  C   UNL     1      -0.976  -0.735  24.582  0.00  0.00    +0.020 A 
ATOM      6  C   UNL     1      -1.224   0.052  24.590  0.00  0.00    +0.075 A 
ATOM     32  C   UNL     1      -0.781   0.628  24.196  0.00  0.00    +0.020 A 
ATOM     33  C   UNL     1      -0.092   0.415  23.796  0.00  0.00    +0.038 A 
BRANCH   3   2
ATOM      1  C   UNL     1       1.105  -0.133  22.748  0.00  0.00    +0.252 C 
ATOM      2  O   UNL     1       0.845  -0.585  23.388  0.00  0.00    -0.471 OA
ENDBRANCH   3   2
ENDBRANCH   7   6
ENDBRANCH  11  10
ENDBRANCH  12  11
BRANCH  14  15
ATOM     15  C   UNL     1      -4.765   3.451  25.087  0.00  0.00    +0.079 C 
BRANCH  15  16
ATOM     16  C   UNL     1      -4.058   3.731  25.409  0.00  0.00    +0.103 A 
ATOM     17  N   UNL     1      -3.918   3.889  26.205  0.00  0.00    -0.081 NA
ATOM     18  O   UNL     1      -3.141   4.158  26.278  0.00  0.00    -0.354 OA
ATOM     19  C   UNL     1      -2.802   4.166  25.526  0.00  0.00    +0.177 A 
ATOM     20  C   UNL     1      -3.370   3.903  24.988  0.00  0.00    +0.058 A 
BRANCH  19  21
ATOM     21  C   UNL     1      -2.031   4.398  25.344  0.00  0.00    +0.040 A 
ATOM     22  C   UNL     1      -1.410   3.862  25.424  0.00  0.00    +0.045 A 
ATOM     23  C   UNL     1      -0.639   4.093  25.242  0.00  0.00    +0.196 A 
ATOM     24  O   UNL     1      -0.018   3.558  25.321  0.00  0.00    -0.287 OA
ATOM     25  C   UNL     1      -0.491   4.862  24.980  0.00  0.00    +0.042 A 
ATOM     26  C   UNL     1      -1.112   5.398  24.901  0.00  0.00    +0.003 A 
ATOM     27  C   UNL     1      -1.883   5.166  25.083  0.00  0.00    +0.003 A 
ENDBRANCH  19  21
ENDBRANCH  15  16
ENDBRANCH  14  15
TORSDOF 7
ENDMDL
MODEL 8
REMARK VINA RESULT:     -11.1      1.098      4.224
REMARK  Name = 
REMARK  7 active torsions:
REMARK  status: ('A' for Active; 'I' for Inactive)
REMARK    1  A    between atoms: O_2  and  C_3
REMARK    2  A    between atoms: C_6  and  N_7
REMARK    3  A    between atoms: N_10  and  C_11
REMARK    4  A    between atoms: C_11  and  C_12
REMARK    5  A    between atoms: C_14  and  C_15
REMARK    6  A    between atoms: C_15  and  C_16
REMARK    7  A    between atoms: C_19  and  C_21
REMARK                            x       y       z     vdW  Elec       q    Type
REMARK                         _______ _______ _______ _____ _____    ______ ____
ROOT
ATOM     12  C   UNL     1      -0.812   2.249  24.460  0.00  0.00    +0.167 C 
ATOM     13  O   UNL     1      -0.888   1.477  24.178  0.00  0.00    -0.354 OA
ATOM     14  C   UNL     1      -0.214   1.037  23.995  0.00  0.00    +0.121 C 
ATOM     28  C   UNL     1       0.535   1.370  24.093  0.00  0.00    +0.033 C 
ATOM     29  C   UNL     1       0.610   2.141  24.375  0.00  0.00    +0.038 C 
ATOM     30  C   UNL     1      -0.063   2.581  24.558  0.00  0.00    +0.181 C 
ATOM     31  O   UNL     1       0.011   3.353  24.839  0.00  0.00    -0.220 OA
ENDROOT
BRANCH  12  11
ATOM     11  C   UNL     1      -1.485   2.689  24.643  0.00  0.00    +0.149 C 
BRANCH  11  10
ATOM      7  N   UNL     1      -3.593   2.411  24.151  0.00  0.00    -0.161 NA
ATOM      8  C   UNL     1      -2.902   2.513  24.590  0.00  0.00    +0.344 C 
ATOM      9  O   UNL     1      -2.937   2.540  25.413  0.00  0.00    -0.249 OA
ATOM     10  N   UNL     1      -2.176   2.587  24.205  0.00  0.00    -0.184 NA
BRANCH   7   6
ATOM      3  C   UNL     1      -5.771   2.188  25.306  0.00  0.00    +0.139 A 
ATOM      4  C   UNL     1      -5.372   1.515  25.044  0.00  0.00    +0.038 A 
ATOM      5  C   UNL     1      -4.646   1.590  24.659  0.00  0.00    +0.020 A 
ATOM      6  C   UNL     1      -4.319   2.337  24.536  0.00  0.00    +0.075 A 
ATOM     32  C   UNL     1      -4.718   3.010  24.799  0.00  0.00    +0.020 A 
ATOM     33  C   UNL     1      -5.444   2.935  25.184  0.00  0.00    +0.038 A 
BRANCH   3   2
ATOM      1  C   UNL     1      -6.522   1.874  26.481  0.00  0.00    +0.252 C 
ATOM      2  O   UNL     1      -6.497   2.113  25.691  0.00  0.00    -0.471 OA
ENDBRANCH   3   2
ENDBRANCH   7   6
ENDBRANCH  11  10
ENDBRANCH  12  11
BRANCH  14  15
ATOM     15  C   UNL     1      -0.290   0.265  23.714  0.00  0.00    +0.079 C 
BRANCH  15  16
ATOM     16  C   UNL     1      -0.632  -0.316  24.191  0.00  0.00    +0.103 A 
ATOM     17  N   UNL     1      -0.239  -0.777  24.749  0.00  0.00    -0.081 NA
ATOM     18  O   UNL     1      -0.791  -1.283  25.096  0.00  0.00    -0.354 OA
ATOM     19  C   UNL     1      -1.526  -1.134  24.751  0.00  0.00    +0.177 A 
ATOM     20  C   UNL     1      -1.428  -0.535  24.191  0.00  0.00    +0.058 A 
BRANCH  19  21
ATOM     21  C   UNL     1      -2.234  -1.516  24.934  0.00  0.00    +0.040 A 
ATOM     22  C   UNL     1      -2.465  -2.182  24.507  0.00  0.00    +0.045 A 
ATOM     23  C   UNL     1      -3.174  -2.564  24.690  0.00  0.00    +0.196 A 
ATOM     24  O   UNL     1      -3.406  -3.230  24.263  0.00  0.00    -0.287 OA
ATOM     25  C   UNL     1      -3.650  -2.279  25.301  0.00  0.00    +0.042 A 
ATOM     26  C   UNL     1      -3.418  -1.613  25.728  0.00  0.00    +0.003 A 
ATOM     27  C   UNL     1      -2.709  -1.231  25.545  0.00  0.00    +0.003 A 
ENDBRANCH  19  21
ENDBRANCH  15  16
ENDBRANCH  14  15
TORSDOF 7
ENDMDL
