REMARK  Name = 
REMARK  7 active torsions:
REMARK  status: ('A' for Active; 'I' for Inactive)
REMARK    1  A    between atoms: C_5  and  N_6
REMARK    2  A    between atoms: C_7  and  C_9
REMARK    3  A    between atoms: C_15  and  C_16
REMARK    4  A    between atoms: C_16  and  C_17
REMARK    5  A    between atoms: C_17  and  C_18
REMARK    6  A    between atoms: N_20  and  C_21
REMARK    7  A    between atoms: C_21  and  C_22
REMARK                            x       y       z     vdW  Elec       q    Type
REMARK                         _______ _______ _______ _____ _____    ______ ____
ROOT
ATOM      1  C   UNL     1      -2.641  -0.547   0.000  0.00  0.00    +0.000 C 
ATOM      2  C   UNL     1      -1.973  -1.032   0.000  0.00  0.00    +0.002 C 
ATOM      3  C   UNL     1      -2.525  -1.645   0.000  0.00  0.00    +0.000 C 
ATOM      4  C   UNL     1      -1.561  -0.318   0.000  0.00  0.00    +0.022 C 
ATOM      5  C   UNL     1      -0.754  -0.489   0.000  0.00  0.00    +0.096 C 
ATOM     15  C   UNL     1      -0.667  -1.310   0.000  0.00  0.00    +0.019 C 
ATOM     27  C   UNL     1       0.000  -1.795   0.000  0.00  0.00    +0.004 C 
ATOM     28  C   UNL     1      -0.086  -2.615   0.000  0.00  0.00    +0.030 C 
ATOM     29  C   UNL     1      -0.840  -2.951   0.000  0.00  0.00    +0.127 C 
ATOM     30  C   UNL     1      -0.379  -3.635   0.000  0.00  0.00    +0.033 C 
ATOM     31  O   UNL     1      -1.433  -3.524   0.000  0.00  0.00    -0.226 OA
ATOM     32  C   UNL     1      -1.507  -2.466   0.000  0.00  0.00    +0.030 C 
ATOM     33  C   UNL     1      -1.421  -1.645   0.000  0.00  0.00    +0.004 C 
ENDROOT
BRANCH   5   6
ATOM      6  N   UNL     1      -0.141   0.063   0.000  0.00  0.00    -0.203 NA
ATOM      7  C   UNL     1      -0.312   0.870   0.000  0.00  0.00    +0.265 C 
ATOM      8  O   UNL     1      -1.097   1.125   0.000  0.00  0.00    -0.268 OA
BRANCH   7   9
ATOM      9  C   UNL     1       0.301   1.422   0.000  0.00  0.00    +0.055 A 
ATOM     10  C   UNL     1       0.130   2.229   0.000  0.00  0.00    +0.005 A 
ATOM     11  C   UNL     1       0.743   2.781   0.000  0.00  0.00    +0.000 A 
ATOM     12  C   UNL     1       1.527   2.526   0.000  0.00  0.00    +0.000 A 
ATOM     13  C   UNL     1       1.699   1.719   0.000  0.00  0.00    +0.000 A 
ATOM     14  C   UNL     1       1.086   1.167   0.000  0.00  0.00    +0.005 A 
ENDBRANCH   7   9
ENDBRANCH   5   6
BRANCH  15  16
ATOM     16  C   UNL     1       0.047  -0.897   0.000  0.00  0.00    +0.011 C 
BRANCH  16  17
ATOM     17  C   UNL     1       0.761  -1.310   0.000  0.00  0.00    +0.087 C 
BRANCH  17  18
ATOM     18  C   UNL     1       1.476  -0.897   0.000  0.00  0.00    +0.242 C 
ATOM     19  O   UNL     1       1.476  -0.072   0.000  0.00  0.00    -0.273 OA
ATOM     20  N   UNL     1       2.190  -1.310   0.000  0.00  0.00    -0.197 NA
BRANCH  20  21
ATOM     21  C   UNL     1       2.905  -0.897   0.000  0.00  0.00    +0.179 C 
BRANCH  21  22
ATOM     22  C   UNL     1       3.619  -1.310   0.000  0.00  0.00    +0.145 A 
ATOM     23  C   UNL     1       4.373  -0.974   0.000  0.00  0.00    +0.038 A 
ATOM     24  C   UNL     1       4.925  -1.587   0.000  0.00  0.00    +0.043 A 
ATOM     25  C   UNL     1       4.513  -2.302   0.000  0.00  0.00    +0.179 A 
ATOM     26  O   UNL     1       3.706  -2.130   0.000  0.00  0.00    -0.453 OA
ENDBRANCH  21  22
ENDBRANCH  20  21
ENDBRANCH  17  18
ENDBRANCH  16  17
ENDBRANCH  15  16
TORSDOF 7
