MODEL 1
REMARK VINA RESULT:     -12.6      0.000      0.000
REMARK  Name = 
REMARK  9 active torsions:
REMARK  status: ('A' for Active; 'I' for Inactive)
REMARK    1  A    between atoms: C_2  and  C_3
REMARK    2  A    between atoms: C_3  and  C_4
REMARK    3  A    between atoms: C_4  and  C_5
REMARK    4  A    between atoms: C_5  and  C_6
REMARK    5  A    between atoms: C_15  and  C_17
REMARK    6  A    between atoms: C_25  and  C_26
REMARK    7  A    between atoms: C_26  and  C_27
REMARK    8  A    between atoms: N_29  and  C_30
REMARK    9  A    between atoms: C_30  and  C_31
REMARK                            x       y       z     vdW  Elec       q    Type
REMARK                         _______ _______ _______ _____ _____    ______ ____
ROOT
ATOM      6  C   UNL     1       1.159   1.021  23.569  0.00  0.00    +0.247 C 
ATOM      7  O   UNL     1       1.368   1.775  23.831  0.00  0.00    -0.273 OA
ATOM      8  N   UNL     1       0.373   0.775  23.604  0.00  0.00    -0.154 NA
ATOM      9  C   UNL     1      -0.205   1.284  23.903  0.00  0.00    +0.185 A 
ATOM     10  N   UNL     1      -1.010   1.115  23.972  0.00  0.00    -0.227 NA
ATOM     11  C   UNL     1      -1.382   1.777  24.296  0.00  0.00    +0.063 A 
ATOM     12  C   UNL     1      -0.807   2.354  24.426  0.00  0.00    +0.023 A 
ATOM     13  C   UNL     1      -1.020   3.082  24.750  0.00  0.00    +0.034 C 
ATOM     14  C   UNL     1      -1.808   3.234  24.942  0.00  0.00    +0.010 C 
ATOM     15  C   UNL     1      -2.020   3.963  25.266  0.00  0.00    +0.059 C 
ATOM     16  C   UNL     1      -1.208   4.078  25.174  0.00  0.00    +0.005 C 
ATOM     19  C   UNL     1      -2.808   4.114  25.459  0.00  0.00    +0.154 C 
ATOM     20  O   UNL     1      -3.021   4.842  25.782  0.00  0.00    -0.223 OA
ATOM     21  C   UNL     1      -3.383   3.537  25.328  0.00  0.00    +0.033 C 
ATOM     22  C   UNL     1      -3.170   2.809  25.005  0.00  0.00    +0.003 C 
ATOM     23  C   UNL     1      -2.382   2.657  24.812  0.00  0.00    +0.006 C 
ATOM     24  C   UNL     1      -2.957   2.079  24.681  0.00  0.00    +0.000 C 
ATOM     25  C   UNL     1      -2.170   1.928  24.488  0.00  0.00    +0.050 C 
ATOM     39  S   UNL     1      -0.080   2.049  24.183  0.00  0.00    -0.054 S 
ENDROOT
BRANCH  15  17
ATOM     17  C   UNL     1      -1.951   4.731  25.557  0.00  0.00    +0.184 C 
ATOM     18  O   UNL     1      -1.342   5.219  25.291  0.00  0.00    -0.220 OA
ENDBRANCH  15  17
BRANCH   6   5
ATOM      5  C   UNL     1       1.737   0.513  23.270  0.00  0.00    +0.087 C 
BRANCH   5   4
ATOM      4  C   UNL     1       2.495   0.798  23.112  0.00  0.00    +0.010 C 
BRANCH   4   3
ATOM      3  C   UNL     1       3.077   0.286  22.829  0.00  0.00    +0.001 C 
BRANCH   3   2
ATOM      1  C   UNL     1       4.489   0.428  22.990  0.00  0.00    +0.000 C 
ATOM      2  C   UNL     1       3.799   0.588  22.567  0.00  0.00    +0.000 C 
ENDBRANCH   3   2
ENDBRANCH   4   3
ENDBRANCH   5   4
ENDBRANCH   6   5
BRANCH  25  26
ATOM     26  C   UNL     1      -2.744   1.351  24.358  0.00  0.00    +0.093 C 
BRANCH  26  27
ATOM     27  C   UNL     1      -2.791   0.696  24.857  0.00  0.00    +0.242 C 
ATOM     28  O   UNL     1      -2.472   0.731  25.616  0.00  0.00    -0.273 OA
ATOM     29  N   UNL     1      -3.158   0.004  24.596  0.00  0.00    -0.201 NA
BRANCH  29  30
ATOM     30  C   UNL     1      -3.205  -0.650  25.094  0.00  0.00    +0.142 C 
BRANCH  30  31
ATOM     31  C   UNL     1      -3.465  -1.376  24.799  0.00  0.00    +0.004 A 
ATOM     32  C   UNL     1      -3.948  -1.401  24.131  0.00  0.00    +0.027 A 
ATOM     33  C   UNL     1      -4.208  -2.126  23.835  0.00  0.00    +0.142 A 
ATOM     34  F   UNL     1      -4.691  -2.150  23.168  0.00  0.00    -0.204 F 
ATOM     35  C   UNL     1      -3.984  -2.827  24.209  0.00  0.00    +0.059 A 
ATOM     36  C   UNL     1      -3.500  -2.803  24.877  0.00  0.00    +0.142 A 
ATOM     37  F   UNL     1      -3.276  -3.503  25.250  0.00  0.00    -0.204 F 
ATOM     38  C   UNL     1      -3.241  -2.077  25.172  0.00  0.00    +0.027 A 
ENDBRANCH  30  31
ENDBRANCH  29  30
ENDBRANCH  26  27
ENDBRANCH  25  26
TORSDOF 9
ENDMDL
MODEL 2
REMARK VINA RESULT:     -12.6      2.859      5.070
REMARK  Name = 
REMARK  9 active torsions:
REMARK  status: ('A' for Active; 'I' for Inactive)
REMARK    1  A    between atoms: C_2  and  C_3
REMARK    2  A    between atoms: C_3  and  C_4
REMARK    3  A    between atoms: C_4  and  C_5
REMARK    4  A    between atoms: C_5  and  C_6
REMARK    5  A    between atoms: C_15  and  C_17
REMARK    6  A    between atoms: C_25  and  C_26
REMARK    7  A    between atoms: C_26  and  C_27
REMARK    8  A    between atoms: N_29  and  C_30
REMARK    9  A    between atoms: C_30  and  C_31
REMARK                            x       y       z     vdW  Elec       q    Type
REMARK                         _______ _______ _______ _____ _____    ______ ____
ROOT
ATOM      6  C   UNL     1      -0.621   1.956  25.269  0.00  0.00    +0.247 C 
ATOM      7  O   UNL     1      -0.132   1.341  25.018  0.00  0.00    -0.273 OA
ATOM      8  N   UNL     1      -1.426   1.822  25.388  0.00  0.00    -0.154 NA
ATOM      9  C   UNL     1      -1.743   1.071  25.256  0.00  0.00    +0.185 A 
ATOM     10  N   UNL     1      -2.533   0.854  25.352  0.00  0.00    -0.227 NA
ATOM     11  C   UNL     1      -2.604   0.055  25.161  0.00  0.00    +0.063 A 
ATOM     12  C   UNL     1      -1.856  -0.223  24.947  0.00  0.00    +0.023 A 
ATOM     13  C   UNL     1      -1.757  -1.011  24.726  0.00  0.00    +0.034 C 
ATOM     14  C   UNL     1      -2.405  -1.522  24.719  0.00  0.00    +0.010 C 
ATOM     15  C   UNL     1      -2.305  -2.311  24.498  0.00  0.00    +0.059 C 
ATOM     16  C   UNL     1      -1.530  -2.041  24.419  0.00  0.00    +0.005 C 
ATOM     19  C   UNL     1      -2.952  -2.822  24.491  0.00  0.00    +0.154 C 
ATOM     20  O   UNL     1      -2.854  -3.611  24.271  0.00  0.00    -0.223 OA
ATOM     21  C   UNL     1      -3.700  -2.545  24.705  0.00  0.00    +0.033 C 
ATOM     22  C   UNL     1      -3.799  -1.756  24.926  0.00  0.00    +0.003 C 
ATOM     23  C   UNL     1      -3.151  -1.245  24.933  0.00  0.00    +0.006 C 
ATOM     24  C   UNL     1      -3.898  -0.967  25.147  0.00  0.00    +0.000 C 
ATOM     25  C   UNL     1      -3.251  -0.456  25.154  0.00  0.00    +0.050 C 
ATOM     39  S   UNL     1      -1.324   0.406  25.006  0.00  0.00    -0.054 S 
ENDROOT
BRANCH  15  17
ATOM     17  C   UNL     1      -1.936  -3.006  24.250  0.00  0.00    +0.184 C 
ATOM     18  O   UNL     1      -1.186  -2.975  23.909  0.00  0.00    -0.220 OA
ENDBRANCH  15  17
BRANCH   6   5
ATOM      5  C   UNL     1      -0.304   2.707  25.400  0.00  0.00    +0.087 C 
BRANCH   5   4
ATOM      4  C   UNL     1      -0.565   3.348  24.951  0.00  0.00    +0.010 C 
BRANCH   4   3
ATOM      3  C   UNL     1      -0.567   4.107  25.278  0.00  0.00    +0.001 C 
BRANCH   3   2
ATOM      1  C   UNL     1      -1.231   5.346  25.031  0.00  0.00    +0.000 C 
ATOM      2  C   UNL     1      -0.698   4.763  24.796  0.00  0.00    +0.000 C 
ENDBRANCH   3   2
ENDBRANCH   4   3
ENDBRANCH   5   4
ENDBRANCH   6   5
BRANCH  25  26
ATOM     26  C   UNL     1      -3.997  -0.179  25.368  0.00  0.00    +0.093 C 
BRANCH  26  27
ATOM     27  C   UNL     1      -4.399   0.346  24.874  0.00  0.00    +0.242 C 
ATOM     28  O   UNL     1      -4.511   0.160  24.078  0.00  0.00    -0.273 OA
ATOM     29  N   UNL     1      -4.690   1.056  25.175  0.00  0.00    -0.201 NA
BRANCH  29  30
ATOM     30  C   UNL     1      -5.092   1.580  24.682  0.00  0.00    +0.142 C 
BRANCH  30  31
ATOM     31  C   UNL     1      -5.090   2.389  24.849  0.00  0.00    +0.004 A 
ATOM     32  C   UNL     1      -4.588   2.895  24.432  0.00  0.00    +0.027 A 
ATOM     33  C   UNL     1      -4.586   3.703  24.599  0.00  0.00    +0.142 A 
ATOM     34  F   UNL     1      -4.085   4.208  24.183  0.00  0.00    -0.204 F 
ATOM     35  C   UNL     1      -5.086   4.005  25.182  0.00  0.00    +0.059 A 
ATOM     36  C   UNL     1      -5.587   3.499  25.599  0.00  0.00    +0.142 A 
ATOM     37  F   UNL     1      -6.086   3.800  26.182  0.00  0.00    -0.204 F 
ATOM     38  C   UNL     1      -5.589   2.690  25.432  0.00  0.00    +0.027 A 
ENDBRANCH  30  31
ENDBRANCH  29  30
ENDBRANCH  26  27
ENDBRANCH  25  26
TORSDOF 9
ENDMDL
MODEL 3
REMARK VINA RESULT:     -12.6      2.370      4.771
REMARK  Name = 
REMARK  9 active torsions:
REMARK  status: ('A' for Active; 'I' for Inactive)
REMARK    1  A    between atoms: C_2  and  C_3
REMARK    2  A    between atoms: C_3  and  C_4
REMARK    3  A    between atoms: C_4  and  C_5
REMARK    4  A    between atoms: C_5  and  C_6
REMARK    5  A    between atoms: C_15  and  C_17
REMARK    6  A    between atoms: C_25  and  C_26
REMARK    7  A    between atoms: C_26  and  C_27
REMARK    8  A    between atoms: N_29  and  C_30
REMARK    9  A    between atoms: C_30  and  C_31
REMARK                            x       y       z     vdW  Elec       q    Type
REMARK                         _______ _______ _______ _____ _____    ______ ____
ROOT
ATOM      6  C   UNL     1       1.328   0.171  23.083  0.00  0.00    +0.247 C 
ATOM      7  O   UNL     1       1.185  -0.623  22.909  0.00  0.00    -0.273 OA
ATOM      8  N   UNL     1       0.802   0.590  23.560  0.00  0.00    -0.154 NA
ATOM      9  C   UNL     1       0.132   0.215  23.864  0.00  0.00    +0.185 A 
ATOM     10  N   UNL     1      -0.440   0.562  24.347  0.00  0.00    -0.227 NA
ATOM     11  C   UNL     1      -1.008  -0.011  24.519  0.00  0.00    +0.063 A 
ATOM     12  C   UNL     1      -0.787  -0.712  24.143  0.00  0.00    +0.023 A 
ATOM     13  C   UNL     1      -1.256  -1.386  24.218  0.00  0.00    +0.034 C 
ATOM     14  C   UNL     1      -1.946  -1.360  24.669  0.00  0.00    +0.010 C 
ATOM     15  C   UNL     1      -2.415  -2.035  24.743  0.00  0.00    +0.059 C 
ATOM     16  C   UNL     1      -1.815  -2.331  24.260  0.00  0.00    +0.005 C 
ATOM     19  C   UNL     1      -3.105  -2.010  25.194  0.00  0.00    +0.154 C 
ATOM     20  O   UNL     1      -3.575  -2.684  25.269  0.00  0.00    -0.223 OA
ATOM     21  C   UNL     1      -3.327  -1.309  25.571  0.00  0.00    +0.033 C 
ATOM     22  C   UNL     1      -2.858  -0.635  25.496  0.00  0.00    +0.003 C 
ATOM     23  C   UNL     1      -2.168  -0.661  25.045  0.00  0.00    +0.006 C 
ATOM     24  C   UNL     1      -2.388   0.040  25.421  0.00  0.00    +0.000 C 
ATOM     25  C   UNL     1      -1.699   0.014  24.970  0.00  0.00    +0.050 C 
ATOM     39  S   UNL     1      -0.082  -0.571  23.738  0.00  0.00    -0.054 S 
ENDROOT
BRANCH  15  17
ATOM     17  C   UNL     1      -2.675  -2.812  24.650  0.00  0.00    +0.184 C 
ATOM     18  O   UNL     1      -2.441  -3.249  23.991  0.00  0.00    -0.220 OA
ENDBRANCH  15  17
BRANCH   6   5
ATOM      5  C   UNL     1       1.998   0.546  22.779  0.00  0.00    +0.087 C 
BRANCH   5   4
ATOM      4  C   UNL     1       2.735   0.178  22.830  0.00  0.00    +0.010 C 
BRANCH   4   3
ATOM      3  C   UNL     1       3.425   0.629  22.776  0.00  0.00    +0.001 C 
BRANCH   3   2
ATOM      1  C   UNL     1       4.796   0.625  23.173  0.00  0.00    +0.000 C 
ATOM      2  C   UNL     1       4.161   0.258  22.797  0.00  0.00    +0.000 C 
ENDBRANCH   3   2
ENDBRANCH   4   3
ENDBRANCH   5   4
ENDBRANCH   6   5
BRANCH  25  26
ATOM     26  C   UNL     1      -1.920   0.714  25.346  0.00  0.00    +0.093 C 
BRANCH  26  27
ATOM     27  C   UNL     1      -2.161   1.364  24.899  0.00  0.00    +0.242 C 
ATOM     28  O   UNL     1      -2.590   1.251  24.204  0.00  0.00    -0.273 OA
ATOM     29  N   UNL     1      -1.973   2.128  25.146  0.00  0.00    -0.201 NA
BRANCH  29  30
ATOM     30  C   UNL     1      -2.213   2.777  24.699  0.00  0.00    +0.142 C 
BRANCH  30  31
ATOM     31  C   UNL     1      -2.049   3.543  24.962  0.00  0.00    +0.004 A 
ATOM     32  C   UNL     1      -2.572   3.925  25.472  0.00  0.00    +0.027 A 
ATOM     33  C   UNL     1      -2.409   4.690  25.734  0.00  0.00    +0.142 A 
ATOM     34  F   UNL     1      -2.932   5.072  26.244  0.00  0.00    -0.204 F 
ATOM     35  C   UNL     1      -1.721   5.073  25.485  0.00  0.00    +0.059 A 
ATOM     36  C   UNL     1      -1.197   4.690  24.975  0.00  0.00    +0.142 A 
ATOM     37  F   UNL     1      -0.510   5.072  24.726  0.00  0.00    -0.204 F 
ATOM     38  C   UNL     1      -1.362   3.924  24.713  0.00  0.00    +0.027 A 
ENDBRANCH  30  31
ENDBRANCH  29  30
ENDBRANCH  26  27
ENDBRANCH  25  26
TORSDOF 9
ENDMDL
MODEL 4
REMARK VINA RESULT:     -11.6      3.067      6.355
REMARK  Name = 
REMARK  9 active torsions:
REMARK  status: ('A' for Active; 'I' for Inactive)
REMARK    1  A    between atoms: C_2  and  C_3
REMARK    2  A    between atoms: C_3  and  C_4
REMARK    3  A    between atoms: C_4  and  C_5
REMARK    4  A    between atoms: C_5  and  C_6
REMARK    5  A    between atoms: C_15  and  C_17
REMARK    6  A    between atoms: C_25  and  C_26
REMARK    7  A    between atoms: C_26  and  C_27
REMARK    8  A    between atoms: N_29  and  C_30
REMARK    9  A    between atoms: C_30  and  C_31
REMARK                            x       y       z     vdW  Elec       q    Type
REMARK                         _______ _______ _______ _____ _____    ______ ____
ROOT
ATOM      6  C   UNL     1      -5.365   1.710  25.030  0.00  0.00    +0.247 C 
ATOM      7  O   UNL     1      -5.650   0.941  25.121  0.00  0.00    -0.273 OA
ATOM      8  N   UNL     1      -4.563   1.838  24.884  0.00  0.00    -0.154 NA
ATOM      9  C   UNL     1      -4.047   1.196  24.828  0.00  0.00    +0.185 A 
ATOM     10  N   UNL     1      -3.235   1.239  24.684  0.00  0.00    -0.227 NA
ATOM     11  C   UNL     1      -2.938   0.469  24.674  0.00  0.00    +0.063 A 
ATOM     12  C   UNL     1      -3.566  -0.049  24.811  0.00  0.00    +0.023 A 
ATOM     13  C   UNL     1      -3.432  -0.862  24.832  0.00  0.00    +0.034 C 
ATOM     14  C   UNL     1      -2.671  -1.159  24.715  0.00  0.00    +0.010 C 
ATOM     15  C   UNL     1      -2.538  -1.973  24.736  0.00  0.00    +0.059 C 
ATOM     16  C   UNL     1      -3.350  -1.957  24.877  0.00  0.00    +0.005 C 
ATOM     19  C   UNL     1      -1.777  -2.269  24.619  0.00  0.00    +0.154 C 
ATOM     20  O   UNL     1      -1.643  -3.083  24.640  0.00  0.00    -0.223 OA
ATOM     21  C   UNL     1      -1.149  -1.751  24.482  0.00  0.00    +0.033 C 
ATOM     22  C   UNL     1      -1.283  -0.938  24.461  0.00  0.00    +0.003 C 
ATOM     23  C   UNL     1      -2.044  -0.641  24.578  0.00  0.00    +0.006 C 
ATOM     24  C   UNL     1      -1.416  -0.123  24.441  0.00  0.00    +0.000 C 
ATOM     25  C   UNL     1      -2.177   0.173  24.557  0.00  0.00    +0.050 C 
ATOM     39  S   UNL     1      -4.251   0.401  24.907  0.00  0.00    -0.054 S 
ENDROOT
BRANCH  15  17
ATOM     17  C   UNL     1      -2.687  -2.781  24.806  0.00  0.00    +0.184 C 
ATOM     18  O   UNL     1      -3.461  -3.051  24.890  0.00  0.00    -0.220 OA
ENDBRANCH  15  17
BRANCH   6   5
ATOM      5  C   UNL     1      -5.881   2.351  25.086  0.00  0.00    +0.087 C 
BRANCH   5   4
ATOM      4  C   UNL     1      -5.668   3.015  25.526  0.00  0.00    +0.010 C 
BRANCH   4   3
ATOM      3  C   UNL     1      -6.093   3.718  25.445  0.00  0.00    +0.001 C 
BRANCH   3   2
ATOM      1  C   UNL     1      -6.045   5.145  25.465  0.00  0.00    +0.000 C 
ATOM      2  C   UNL     1      -5.797   4.418  25.765  0.00  0.00    +0.000 C 
ENDBRANCH   3   2
ENDBRANCH   4   3
ENDBRANCH   5   4
ENDBRANCH   6   5
BRANCH  25  26
ATOM     26  C   UNL     1      -1.550   0.690  24.420  0.00  0.00    +0.093 C 
BRANCH  26  27
ATOM     27  C   UNL     1      -1.305   1.209  25.013  0.00  0.00    +0.242 C 
ATOM     28  O   UNL     1      -1.133   0.922  25.767  0.00  0.00    -0.273 OA
ATOM     29  N   UNL     1      -1.233   2.015  24.854  0.00  0.00    -0.201 NA
BRANCH  29  30
ATOM     30  C   UNL     1      -0.989   2.532  25.446  0.00  0.00    +0.142 C 
BRANCH  30  31
ATOM     31  C   UNL     1      -1.136   3.342  25.374  0.00  0.00    +0.004 A 
ATOM     32  C   UNL     1      -1.787   3.678  25.752  0.00  0.00    +0.027 A 
ATOM     33  C   UNL     1      -1.934   4.487  25.680  0.00  0.00    +0.142 A 
ATOM     34  F   UNL     1      -2.585   4.823  26.058  0.00  0.00    -0.204 F 
ATOM     35  C   UNL     1      -1.429   4.959  25.229  0.00  0.00    +0.059 A 
ATOM     36  C   UNL     1      -0.778   4.622  24.851  0.00  0.00    +0.142 A 
ATOM     37  F   UNL     1      -0.273   5.094  24.400  0.00  0.00    -0.204 F 
ATOM     38  C   UNL     1      -0.631   3.813  24.923  0.00  0.00    +0.027 A 
ENDBRANCH  30  31
ENDBRANCH  29  30
ENDBRANCH  26  27
ENDBRANCH  25  26
TORSDOF 9
ENDMDL
MODEL 5
REMARK VINA RESULT:     -11.6      1.416      2.174
REMARK  Name = 
REMARK  9 active torsions:
REMARK  status: ('A' for Active; 'I' for Inactive)
REMARK    1  A    between atoms: C_2  and  C_3
REMARK    2  A    between atoms: C_3  and  C_4
REMARK    3  A    between atoms: C_4  and  C_5
REMARK    4  A    between atoms: C_5  and  C_6
REMARK    5  A    between atoms: C_15  and  C_17
REMARK    6  A    between atoms: C_25  and  C_26
REMARK    7  A    between atoms: C_26  and  C_27
REMARK    8  A    between atoms: N_29  and  C_30
REMARK    9  A    between atoms: C_30  and  C_31
REMARK                            x       y       z     vdW  Elec       q    Type
REMARK                         _______ _______ _______ _____ _____    ______ ____
ROOT
ATOM      6  C   UNL     1      -0.488   1.782  24.302  0.00  0.00    +0.247 C 
ATOM      7  O   UNL     1      -0.590   2.557  24.567  0.00  0.00    -0.273 OA
ATOM      8  N   UNL     1      -1.139   1.282  24.229  0.00  0.00    -0.154 NA
ATOM      9  C   UNL     1      -1.894   1.556  24.421  0.00  0.00    +0.185 A 
ATOM     10  N   UNL     1      -2.594   1.121  24.376  0.00  0.00    -0.227 NA
ATOM     11  C   UNL     1      -3.213   1.610  24.619  0.00  0.00    +0.063 A 
ATOM     12  C   UNL     1      -2.895   2.346  24.814  0.00  0.00    +0.023 A 
ATOM     13  C   UNL     1      -3.390   2.952  25.078  0.00  0.00    +0.034 C 
ATOM     14  C   UNL     1      -4.202   2.821  25.146  0.00  0.00    +0.010 C 
ATOM     15  C   UNL     1      -4.696   3.427  25.410  0.00  0.00    +0.059 C 
ATOM     16  C   UNL     1      -3.968   3.815  25.436  0.00  0.00    +0.005 C 
ATOM     19  C   UNL     1      -5.507   3.297  25.479  0.00  0.00    +0.154 C 
ATOM     20  O   UNL     1      -6.002   3.902  25.742  0.00  0.00    -0.223 OA
ATOM     21  C   UNL     1      -5.825   2.560  25.284  0.00  0.00    +0.033 C 
ATOM     22  C   UNL     1      -5.330   1.955  25.020  0.00  0.00    +0.003 C 
ATOM     23  C   UNL     1      -4.519   2.085  24.951  0.00  0.00    +0.006 C 
ATOM     24  C   UNL     1      -4.835   1.349  24.756  0.00  0.00    +0.000 C 
ATOM     25  C   UNL     1      -4.025   1.479  24.688  0.00  0.00    +0.050 C 
ATOM     39  S   UNL     1      -2.080   2.313  24.692  0.00  0.00    -0.054 S 
ENDROOT
BRANCH  15  17
ATOM     17  C   UNL     1      -4.937   4.167  25.682  0.00  0.00    +0.184 C 
ATOM     18  O   UNL     1      -4.379   4.701  25.972  0.00  0.00    -0.220 OA
ENDBRANCH  15  17
BRANCH   6   5
ATOM      5  C   UNL     1       0.267   1.508  24.110  0.00  0.00    +0.087 C 
BRANCH   5   4
ATOM      4  C   UNL     1       0.354   0.862  23.605  0.00  0.00    +0.010 C 
BRANCH   4   3
ATOM      3  C   UNL     1       1.109   0.599  23.397  0.00  0.00    +0.001 C 
BRANCH   3   2
ATOM      1  C   UNL     1       1.916  -0.123  22.467  0.00  0.00    +0.000 C 
ATOM      2  C   UNL     1       1.196  -0.016  22.854  0.00  0.00    +0.000 C 
ENDBRANCH   3   2
ENDBRANCH   4   3
ENDBRANCH   5   4
ENDBRANCH   6   5
BRANCH  25  26
ATOM     26  C   UNL     1      -4.342   0.744  24.493  0.00  0.00    +0.093 C 
BRANCH  26  27
ATOM     27  C   UNL     1      -4.201   0.092  24.979  0.00  0.00    +0.242 C 
ATOM     28  O   UNL     1      -4.314   0.153  25.794  0.00  0.00    -0.273 OA
ATOM     29  N   UNL     1      -3.947  -0.621  24.651  0.00  0.00    -0.201 NA
BRANCH  29  30
ATOM     30  C   UNL     1      -3.807  -1.272  25.137  0.00  0.00    +0.142 C 
BRANCH  30  31
ATOM     31  C   UNL     1      -3.425  -1.938  24.834  0.00  0.00    +0.004 A 
ATOM     32  C   UNL     1      -2.604  -2.001  24.883  0.00  0.00    +0.027 A 
ATOM     33  C   UNL     1      -2.221  -2.666  24.581  0.00  0.00    +0.142 A 
ATOM     34  F   UNL     1      -1.401  -2.729  24.630  0.00  0.00    -0.204 F 
ATOM     35  C   UNL     1      -2.661  -3.270  24.230  0.00  0.00    +0.059 A 
ATOM     36  C   UNL     1      -3.483  -3.208  24.181  0.00  0.00    +0.142 A 
ATOM     37  F   UNL     1      -3.923  -3.811  23.830  0.00  0.00    -0.204 F 
ATOM     38  C   UNL     1      -3.865  -2.541  24.483  0.00  0.00    +0.027 A 
ENDBRANCH  30  31
ENDBRANCH  29  30
ENDBRANCH  26  27
ENDBRANCH  25  26
TORSDOF 9
ENDMDL
MODEL 6
REMARK VINA RESULT:     -10.8      1.929      4.690
REMARK  Name = 
REMARK  9 active torsions:
REMARK  status: ('A' for Active; 'I' for Inactive)
REMARK    1  A    between atoms: C_2  and  C_3
REMARK    2  A    between atoms: C_3  and  C_4
REMARK    3  A    between atoms: C_4  and  C_5
REMARK    4  A    between atoms: C_5  and  C_6
REMARK    5  A    between atoms: C_15  and  C_17
REMARK    6  A    between atoms: C_25  and  C_26
REMARK    7  A    between atoms: C_26  and  C_27
REMARK    8  A    between atoms: N_29  and  C_30
REMARK    9  A    between atoms: C_30  and  C_31
REMARK                            x       y       z     vdW  Elec       q    Type
REMARK                         _______ _______ _______ _____ _____    ______ ____
ROOT
ATOM      6  C   UNL     1      -3.853  -0.123  24.144  0.00  0.00    +0.247 C 
ATOM      7  O   UNL     1      -4.314   0.366  24.624  0.00  0.00    -0.273 OA
ATOM      8  N   UNL     1      -3.111   0.130  23.889  0.00  0.00    -0.154 NA
ATOM      9  C   UNL     1      -2.829   0.873  24.114  0.00  0.00    +0.185 A 
ATOM     10  N   UNL     1      -2.101   1.199  23.902  0.00  0.00    -0.227 NA
ATOM     11  C   UNL     1      -2.047   1.947  24.247  0.00  0.00    +0.063 A 
ATOM     12  C   UNL     1      -2.742   2.082  24.671  0.00  0.00    +0.023 A 
ATOM     13  C   UNL     1      -2.845   2.793  25.077  0.00  0.00    +0.034 C 
ATOM     14  C   UNL     1      -2.253   3.368  25.060  0.00  0.00    +0.010 C 
ATOM     15  C   UNL     1      -2.357   4.078  25.466  0.00  0.00    +0.059 C 
ATOM     16  C   UNL     1      -3.070   3.705  25.647  0.00  0.00    +0.005 C 
ATOM     19  C   UNL     1      -1.765   4.653  25.449  0.00  0.00    +0.154 C 
ATOM     20  O   UNL     1      -1.868   5.364  25.855  0.00  0.00    -0.223 OA
ATOM     21  C   UNL     1      -1.070   4.517  25.024  0.00  0.00    +0.033 C 
ATOM     22  C   UNL     1      -0.968   3.807  24.618  0.00  0.00    +0.003 C 
ATOM     23  C   UNL     1      -1.559   3.232  24.636  0.00  0.00    +0.006 C 
ATOM     24  C   UNL     1      -0.865   3.096  24.212  0.00  0.00    +0.000 C 
ATOM     25  C   UNL     1      -1.456   2.521  24.229  0.00  0.00    +0.050 C 
ATOM     39  S   UNL     1      -3.225   1.418  24.588  0.00  0.00    -0.054 S 
ENDROOT
BRANCH  15  17
ATOM     17  C   UNL     1      -2.708   4.659  25.935  0.00  0.00    +0.184 C 
ATOM     18  O   UNL     1      -3.346   4.467  26.420  0.00  0.00    -0.220 OA
ENDBRANCH  15  17
BRANCH   6   5
ATOM      5  C   UNL     1      -4.135  -0.866  23.920  0.00  0.00    +0.087 C 
BRANCH   5   4
ATOM      4  C   UNL     1      -3.957  -1.529  24.376  0.00  0.00    +0.010 C 
BRANCH   4   3
ATOM      3  C   UNL     1      -3.954  -2.279  24.030  0.00  0.00    +0.001 C 
BRANCH   3   2
ATOM      1  C   UNL     1      -3.184  -3.339  24.597  0.00  0.00    +0.000 C 
ATOM      2  C   UNL     1      -3.906  -2.952  24.505  0.00  0.00    +0.000 C 
ENDBRANCH   3   2
ENDBRANCH   4   3
ENDBRANCH   5   4
ENDBRANCH   6   5
BRANCH  25  26
ATOM     26  C   UNL     1      -0.762   2.386  23.806  0.00  0.00    +0.093 C 
BRANCH  26  27
ATOM     27  C   UNL     1      -0.223   1.818  24.067  0.00  0.00    +0.242 C 
ATOM     28  O   UNL     1      -0.181   1.627  24.869  0.00  0.00    -0.273 OA
ATOM     29  N   UNL     1       0.274   1.441  23.528  0.00  0.00    -0.201 NA
BRANCH  29  30
ATOM     30  C   UNL     1       0.812   0.874  23.790  0.00  0.00    +0.142 C 
BRANCH  30  31
ATOM     31  C   UNL     1       1.379   0.572  23.270  0.00  0.00    +0.004 A 
ATOM     32  C   UNL     1       2.170   0.789  23.351  0.00  0.00    +0.027 A 
ATOM     33  C   UNL     1       2.737   0.487  22.833  0.00  0.00    +0.142 A 
ATOM     34  F   UNL     1       3.527   0.704  22.914  0.00  0.00    -0.204 F 
ATOM     35  C   UNL     1       2.510  -0.033  22.233  0.00  0.00    +0.059 A 
ATOM     36  C   UNL     1       1.718  -0.250  22.152  0.00  0.00    +0.142 A 
ATOM     37  F   UNL     1       1.492  -0.769  21.552  0.00  0.00    -0.204 F 
ATOM     38  C   UNL     1       1.152   0.053  22.671  0.00  0.00    +0.027 A 
ENDBRANCH  30  31
ENDBRANCH  29  30
ENDBRANCH  26  27
ENDBRANCH  25  26
TORSDOF 9
ENDMDL
