MODEL 1
REMARK VINA RESULT:     -10.5      0.000      0.000
REMARK  Name = 
REMARK  6 active torsions:
REMARK  status: ('A' for Active; 'I' for Inactive)
REMARK    1  A    between atoms: N_2  and  C_4
REMARK    2  A    between atoms: C_7  and  C_10
REMARK    3  A    between atoms: C_13  and  C_15
REMARK    4  A    between atoms: N_19  and  C_20
REMARK    5  A    between atoms: C_20  and  C_21
REMARK    6  A    between atoms: C_24  and  S_27
REMARK                            x       y       z     vdW  Elec       q    Type
REMARK                         _______ _______ _______ _____ _____    ______ ____
ROOT
ATOM     15  C   UNL     1      -4.986   2.259  25.379  0.00  0.00    +0.138 C 
ATOM     16  C   UNL     1      -5.539   2.590  25.894  0.00  0.00    +0.027 C 
ATOM     17  C   UNL     1      -5.315   3.369  26.045  0.00  0.00    +0.019 C 
ATOM     18  C   UNL     1      -4.622   3.521  25.623  0.00  0.00    +0.073 C 
ATOM     19  N   UNL     1      -4.419   2.835  25.211  0.00  0.00    -0.263 NA
ENDROOT
BRANCH  15  13
ATOM     10  C   UNL     1      -4.646   0.233  24.799  0.00  0.00    +0.205 A 
ATOM     11  N   UNL     1      -5.384   0.375  24.457  0.00  0.00    -0.056 NA
ATOM     12  O   UNL     1      -5.601   1.152  24.633  0.00  0.00    -0.336 OA
ATOM     13  C   UNL     1      -4.998   1.490  25.083  0.00  0.00    +0.251 A 
ATOM     14  N   UNL     1      -4.408   0.922  25.186  0.00  0.00    -0.190 NA
BRANCH  10   7
ATOM      4  C   UNL     1      -3.374  -1.887  24.684  0.00  0.00    +0.132 A 
ATOM      5  C   UNL     1      -3.833  -1.645  24.043  0.00  0.00    +0.034 A 
ATOM      6  C   UNL     1      -4.257  -0.939  24.081  0.00  0.00    +0.008 A 
ATOM      7  C   UNL     1      -4.222  -0.473  24.761  0.00  0.00    +0.058 A 
ATOM      8  C   UNL     1      -3.763  -0.714  25.403  0.00  0.00    +0.103 A 
ATOM      9  N   UNL     1      -3.339  -1.421  25.365  0.00  0.00    -0.229 NA
BRANCH   4   2
ATOM      1  C   UNL     1      -3.351  -3.314  24.625  0.00  0.00    +0.114 C 
ATOM      2  N   UNL     1      -2.950  -2.593  24.646  0.00  0.00    -0.290 N 
ATOM      3  C   UNL     1      -2.126  -2.579  24.628  0.00  0.00    +0.114 C 
ENDBRANCH   4   2
ENDBRANCH  10   7
ENDBRANCH  15  13
BRANCH  19  20
ATOM     20  C   UNL     1      -3.764   2.741  24.719  0.00  0.00    +0.099 C 
BRANCH  20  21
ATOM     21  C   UNL     1      -3.122   3.255  24.784  0.00  0.00    -0.006 A 
ATOM     22  C   UNL     1      -3.096   3.944  24.331  0.00  0.00    -0.002 A 
ATOM     23  C   UNL     1      -2.454   4.457  24.396  0.00  0.00    +0.018 A 
ATOM     24  C   UNL     1      -1.837   4.281  24.915  0.00  0.00    +0.106 A 
ATOM     25  C   UNL     1      -1.862   3.592  25.368  0.00  0.00    +0.018 A 
ATOM     26  C   UNL     1      -2.504   3.079  25.302  0.00  0.00    -0.002 A 
BRANCH  24  27
ATOM     27  S   UNL     1      -1.194   4.795  24.980  0.00  0.00    +0.010 S 
ATOM     28  C   UNL     1      -0.552   5.308  25.045  0.00  0.00    +0.182 C 
ATOM     29  O   UNL     1      -1.680   5.358  25.335  0.00  0.00    -0.169 OA
ATOM     30  O   UNL     1      -0.707   4.231  24.625  0.00  0.00    -0.169 OA
ENDBRANCH  24  27
ENDBRANCH  20  21
ENDBRANCH  19  20
TORSDOF 6
ENDMDL
MODEL 2
REMARK VINA RESULT:     -10.5      2.174      5.350
REMARK  Name = 
REMARK  6 active torsions:
REMARK  status: ('A' for Active; 'I' for Inactive)
REMARK    1  A    between atoms: N_2  and  C_4
REMARK    2  A    between atoms: C_7  and  C_10
REMARK    3  A    between atoms: C_13  and  C_15
REMARK    4  A    between atoms: N_19  and  C_20
REMARK    5  A    between atoms: C_20  and  C_21
REMARK    6  A    between atoms: C_24  and  S_27
REMARK                            x       y       z     vdW  Elec       q    Type
REMARK                         _______ _______ _______ _____ _____    ______ ____
ROOT
ATOM     15  C   UNL     1      -5.266   1.948  25.185  0.00  0.00    +0.138 C 
ATOM     16  C   UNL     1      -6.082   1.994  25.072  0.00  0.00    +0.027 C 
ATOM     17  C   UNL     1      -6.349   1.252  24.829  0.00  0.00    +0.019 C 
ATOM     18  C   UNL     1      -5.698   0.747  24.793  0.00  0.00    +0.073 C 
ATOM     19  N   UNL     1      -5.028   1.177  25.013  0.00  0.00    -0.263 NA
ENDROOT
BRANCH  15  13
ATOM     10  C   UNL     1      -3.751   3.417  25.502  0.00  0.00    +0.205 A 
ATOM     11  N   UNL     1      -4.285   3.607  26.102  0.00  0.00    -0.056 NA
ATOM     12  O   UNL     1      -4.917   3.079  26.057  0.00  0.00    -0.336 OA
ATOM     13  C   UNL     1      -4.775   2.564  25.428  0.00  0.00    +0.251 A 
ATOM     14  N   UNL     1      -4.054   2.773  25.086  0.00  0.00    -0.190 NA
BRANCH  10   7
ATOM      4  C   UNL     1      -1.617   4.580  25.033  0.00  0.00    +0.132 A 
ATOM      5  C   UNL     1      -1.741   4.225  25.767  0.00  0.00    +0.034 A 
ATOM      6  C   UNL     1      -2.453   3.837  25.924  0.00  0.00    +0.008 A 
ATOM      7  C   UNL     1      -3.039   3.805  25.346  0.00  0.00    +0.058 A 
ATOM      8  C   UNL     1      -2.916   4.159  24.611  0.00  0.00    +0.103 A 
ATOM      9  N   UNL     1      -2.205   4.547  24.455  0.00  0.00    -0.229 NA
BRANCH   4   2
ATOM      1  C   UNL     1      -0.876   5.792  24.878  0.00  0.00    +0.114 C 
ATOM      2  N   UNL     1      -0.905   4.967  24.877  0.00  0.00    -0.290 N 
ATOM      3  C   UNL     1      -0.224   4.530  24.721  0.00  0.00    +0.114 C 
ENDBRANCH   4   2
ENDBRANCH  10   7
ENDBRANCH  15  13
BRANCH  19  20
ATOM     20  C   UNL     1      -4.258   0.886  25.053  0.00  0.00    +0.099 C 
BRANCH  20  21
ATOM     21  C   UNL     1      -4.107   0.092  24.893  0.00  0.00    -0.006 A 
ATOM     22  C   UNL     1      -4.045  -0.167  24.112  0.00  0.00    -0.002 A 
ATOM     23  C   UNL     1      -3.894  -0.963  23.951  0.00  0.00    +0.018 A 
ATOM     24  C   UNL     1      -3.805  -1.499  24.572  0.00  0.00    +0.106 A 
ATOM     25  C   UNL     1      -3.868  -1.240  25.353  0.00  0.00    +0.018 A 
ATOM     26  C   UNL     1      -4.018  -0.445  25.513  0.00  0.00    -0.002 A 
BRANCH  24  27
ATOM     27  S   UNL     1      -3.655  -2.294  24.411  0.00  0.00    +0.010 S 
ATOM     28  C   UNL     1      -3.504  -3.089  24.251  0.00  0.00    +0.182 C 
ATOM     29  O   UNL     1      -3.005  -2.273  24.919  0.00  0.00    -0.169 OA
ATOM     30  O   UNL     1      -4.305  -2.315  23.903  0.00  0.00    -0.169 OA
ENDBRANCH  24  27
ENDBRANCH  20  21
ENDBRANCH  19  20
TORSDOF 6
ENDMDL
MODEL 3
REMARK VINA RESULT:      -9.7      3.055      4.178
REMARK  Name = 
REMARK  6 active torsions:
REMARK  status: ('A' for Active; 'I' for Inactive)
REMARK    1  A    between atoms: N_2  and  C_4
REMARK    2  A    between atoms: C_7  and  C_10
REMARK    3  A    between atoms: C_13  and  C_15
REMARK    4  A    between atoms: N_19  and  C_20
REMARK    5  A    between atoms: C_20  and  C_21
REMARK    6  A    between atoms: C_24  and  S_27
REMARK                            x       y       z     vdW  Elec       q    Type
REMARK                         _______ _______ _______ _____ _____    ______ ____
ROOT
ATOM     15  C   UNL     1      -2.810  -0.198  25.160  0.00  0.00    +0.138 C 
ATOM     16  C   UNL     1      -3.168  -0.881  25.453  0.00  0.00    +0.027 C 
ATOM     17  C   UNL     1      -3.985  -0.774  25.423  0.00  0.00    +0.019 C 
ATOM     18  C   UNL     1      -4.133  -0.024  25.111  0.00  0.00    +0.073 C 
ATOM     19  N   UNL     1      -3.406   0.332  24.948  0.00  0.00    -0.263 NA
ENDROOT
BRANCH  15  13
ATOM     10  C   UNL     1      -0.768   0.033  24.582  0.00  0.00    +0.205 A 
ATOM     11  N   UNL     1      -0.730   0.230  25.383  0.00  0.00    -0.056 NA
ATOM     12  O   UNL     1      -1.491   0.168  25.697  0.00  0.00    -0.336 OA
ATOM     13  C   UNL     1      -1.998  -0.068  25.090  0.00  0.00    +0.251 A 
ATOM     14  N   UNL     1      -1.551  -0.151  24.402  0.00  0.00    -0.190 NA
BRANCH  10   7
ATOM      4  C   UNL     1       1.137   0.002  23.002  0.00  0.00    +0.132 A 
ATOM      5  C   UNL     1       0.848   0.720  23.287  0.00  0.00    +0.034 A 
ATOM      6  C   UNL     1       0.213   0.731  23.813  0.00  0.00    +0.008 A 
ATOM      7  C   UNL     1      -0.133   0.023  24.056  0.00  0.00    +0.058 A 
ATOM      8  C   UNL     1       0.155  -0.697  23.771  0.00  0.00    +0.103 A 
ATOM      9  N   UNL     1       0.789  -0.707  23.245  0.00  0.00    -0.229 NA
BRANCH   4   2
ATOM      1  C   UNL     1       1.667  -0.301  21.710  0.00  0.00    +0.114 C 
ATOM      2  N   UNL     1       1.771  -0.009  22.475  0.00  0.00    -0.290 N 
ATOM      3  C   UNL     1       2.509   0.271  22.713  0.00  0.00    +0.114 C 
ENDBRANCH   4   2
ENDBRANCH  10   7
ENDBRANCH  15  13
BRANCH  19  20
ATOM     20  C   UNL     1      -3.295   1.085  24.630  0.00  0.00    +0.099 C 
BRANCH  20  21
ATOM     21  C   UNL     1      -3.806   1.699  24.835  0.00  0.00    -0.006 A 
ATOM     22  C   UNL     1      -4.566   1.727  24.515  0.00  0.00    -0.002 A 
ATOM     23  C   UNL     1      -5.078   2.342  24.720  0.00  0.00    +0.018 A 
ATOM     24  C   UNL     1      -4.828   2.927  25.246  0.00  0.00    +0.106 A 
ATOM     25  C   UNL     1      -4.069   2.898  25.566  0.00  0.00    +0.018 A 
ATOM     26  C   UNL     1      -3.558   2.285  25.361  0.00  0.00    -0.002 A 
BRANCH  24  27
ATOM     27  S   UNL     1      -5.340   3.541  25.451  0.00  0.00    +0.010 S 
ATOM     28  C   UNL     1      -5.851   4.155  25.656  0.00  0.00    +0.182 C 
ATOM     29  O   UNL     1      -4.994   4.021  24.876  0.00  0.00    -0.169 OA
ATOM     30  O   UNL     1      -5.687   3.061  26.026  0.00  0.00    -0.169 OA
ENDBRANCH  24  27
ENDBRANCH  20  21
ENDBRANCH  19  20
TORSDOF 6
ENDMDL
MODEL 4
REMARK VINA RESULT:      -9.5      2.881      6.252
REMARK  Name = 
REMARK  6 active torsions:
REMARK  status: ('A' for Active; 'I' for Inactive)
REMARK    1  A    between atoms: N_2  and  C_4
REMARK    2  A    between atoms: C_7  and  C_10
REMARK    3  A    between atoms: C_13  and  C_15
REMARK    4  A    between atoms: N_19  and  C_20
REMARK    5  A    between atoms: C_20  and  C_21
REMARK    6  A    between atoms: C_24  and  S_27
REMARK                            x       y       z     vdW  Elec       q    Type
REMARK                         _______ _______ _______ _____ _____    ______ ____
ROOT
ATOM     15  C   UNL     1      -0.401   0.231  24.603  0.00  0.00    +0.138 C 
ATOM     16  C   UNL     1       0.206   0.081  24.065  0.00  0.00    +0.027 C 
ATOM     17  C   UNL     1       0.095  -0.677  23.760  0.00  0.00    +0.019 C 
ATOM     18  C   UNL     1      -0.581  -0.996  24.109  0.00  0.00    +0.073 C 
ATOM     19  N   UNL     1      -0.888  -0.434  24.631  0.00  0.00    -0.263 NA
ENDROOT
BRANCH  15  13
ATOM     10  C   UNL     1      -0.776   2.191  25.360  0.00  0.00    +0.205 A 
ATOM     11  N   UNL     1      -0.545   1.796  26.048  0.00  0.00    -0.056 NA
ATOM     12  O   UNL     1      -0.376   1.014  25.847  0.00  0.00    -0.336 OA
ATOM     13  C   UNL     1      -0.503   0.925  25.037  0.00  0.00    +0.251 A 
ATOM     14  N   UNL     1      -0.750   1.653  24.736  0.00  0.00    -0.190 NA
BRANCH  10   7
ATOM      4  C   UNL     1      -1.431   4.573  25.203  0.00  0.00    +0.132 A 
ATOM      5  C   UNL     1      -1.962   4.017  25.502  0.00  0.00    +0.034 A 
ATOM      6  C   UNL     1      -1.744   3.223  25.554  0.00  0.00    +0.008 A 
ATOM      7  C   UNL     1      -0.994   2.985  25.308  0.00  0.00    +0.058 A 
ATOM      8  C   UNL     1      -0.462   3.540  25.009  0.00  0.00    +0.103 A 
ATOM      9  N   UNL     1      -0.680   4.334  24.956  0.00  0.00    -0.229 NA
BRANCH   4   2
ATOM      1  C   UNL     1      -2.397   5.606  25.406  0.00  0.00    +0.114 C 
ATOM      2  N   UNL     1      -1.650   5.367  25.150  0.00  0.00    -0.290 N 
ATOM      3  C   UNL     1      -1.122   5.920  24.842  0.00  0.00    +0.114 C 
ENDBRANCH   4   2
ENDBRANCH  10   7
ENDBRANCH  15  13
BRANCH  19  20
ATOM     20  C   UNL     1      -1.562  -0.523  25.097  0.00  0.00    +0.099 C 
BRANCH  20  21
ATOM     21  C   UNL     1      -2.186  -0.994  24.835  0.00  0.00    -0.006 A 
ATOM     22  C   UNL     1      -2.835  -0.649  24.461  0.00  0.00    -0.002 A 
ATOM     23  C   UNL     1      -3.460  -1.120  24.199  0.00  0.00    +0.018 A 
ATOM     24  C   UNL     1      -3.435  -1.937  24.311  0.00  0.00    +0.106 A 
ATOM     25  C   UNL     1      -2.786  -2.282  24.685  0.00  0.00    +0.018 A 
ATOM     26  C   UNL     1      -2.162  -1.811  24.947  0.00  0.00    -0.002 A 
BRANCH  24  27
ATOM     27  S   UNL     1      -4.059  -2.408  24.049  0.00  0.00    +0.010 S 
ATOM     28  C   UNL     1      -4.684  -2.879  23.787  0.00  0.00    +0.182 C 
ATOM     29  O   UNL     1      -4.373  -1.765  23.640  0.00  0.00    -0.169 OA
ATOM     30  O   UNL     1      -3.745  -3.053  24.458  0.00  0.00    -0.169 OA
ENDBRANCH  24  27
ENDBRANCH  20  21
ENDBRANCH  19  20
TORSDOF 6
ENDMDL
MODEL 5
REMARK VINA RESULT:      -9.4      2.319      3.300
REMARK  Name = 
REMARK  6 active torsions:
REMARK  status: ('A' for Active; 'I' for Inactive)
REMARK    1  A    between atoms: N_2  and  C_4
REMARK    2  A    between atoms: C_7  and  C_10
REMARK    3  A    between atoms: C_13  and  C_15
REMARK    4  A    between atoms: N_19  and  C_20
REMARK    5  A    between atoms: C_20  and  C_21
REMARK    6  A    between atoms: C_24  and  S_27
REMARK                            x       y       z     vdW  Elec       q    Type
REMARK                         _______ _______ _______ _____ _____    ______ ____
ROOT
ATOM     15  C   UNL     1      -0.059   0.704  24.449  0.00  0.00    +0.138 C 
ATOM     16  C   UNL     1       0.546   0.669  23.888  0.00  0.00    +0.027 C 
ATOM     17  C   UNL     1       0.841   1.432  23.783  0.00  0.00    +0.019 C 
ATOM     18  C   UNL     1       0.419   1.939  24.279  0.00  0.00    +0.073 C 
ATOM     19  N   UNL     1      -0.137   1.489  24.691  0.00  0.00    -0.263 NA
ENDROOT
BRANCH  15  13
ATOM     10  C   UNL     1      -1.439  -0.885  24.804  0.00  0.00    +0.205 A 
ATOM     11  N   UNL     1      -0.952  -0.946  25.468  0.00  0.00    -0.056 NA
ATOM     12  O   UNL     1      -0.376  -0.357  25.415  0.00  0.00    -0.336 OA
ATOM     13  C   UNL     1      -0.506   0.066  24.720  0.00  0.00    +0.251 A 
ATOM     14  N   UNL     1      -1.163  -0.260  24.342  0.00  0.00    -0.190 NA
BRANCH  10   7
ATOM      4  C   UNL     1      -3.383  -2.328  24.290  0.00  0.00    +0.132 A 
ATOM      5  C   UNL     1      -3.493  -1.525  24.442  0.00  0.00    +0.034 A 
ATOM      6  C   UNL     1      -2.845  -1.044  24.613  0.00  0.00    +0.008 A 
ATOM      7  C   UNL     1      -2.087  -1.366  24.633  0.00  0.00    +0.058 A 
ATOM      8  C   UNL     1      -1.975  -2.170  24.482  0.00  0.00    +0.103 A 
ATOM      9  N   UNL     1      -2.623  -2.651  24.311  0.00  0.00    -0.229 NA
BRANCH   4   2
ATOM      1  C   UNL     1      -4.683  -2.496  23.722  0.00  0.00    +0.114 C 
ATOM      2  N   UNL     1      -4.031  -2.809  24.119  0.00  0.00    -0.290 N 
ATOM      3  C   UNL     1      -4.027  -3.601  24.346  0.00  0.00    +0.114 C 
ENDBRANCH   4   2
ENDBRANCH  10   7
ENDBRANCH  15  13
BRANCH  19  20
ATOM     20  C   UNL     1      -0.676   1.774  25.246  0.00  0.00    +0.099 C 
BRANCH  20  21
ATOM     21  C   UNL     1      -0.904   2.566  25.231  0.00  0.00    -0.006 A 
ATOM     22  C   UNL     1      -1.561   2.799  24.790  0.00  0.00    -0.002 A 
ATOM     23  C   UNL     1      -1.789   3.592  24.775  0.00  0.00    +0.018 A 
ATOM     24  C   UNL     1      -1.359   4.152  25.202  0.00  0.00    +0.106 A 
ATOM     25  C   UNL     1      -0.702   3.920  25.643  0.00  0.00    +0.018 A 
ATOM     26  C   UNL     1      -0.474   3.127  25.658  0.00  0.00    -0.002 A 
BRANCH  24  27
ATOM     27  S   UNL     1      -1.587   4.946  25.188  0.00  0.00    +0.010 S 
ATOM     28  C   UNL     1      -1.815   5.738  25.173  0.00  0.00    +0.182 C 
ATOM     29  O   UNL     1      -2.312   4.743  25.524  0.00  0.00    -0.169 OA
ATOM     30  O   UNL     1      -0.861   5.148  24.851  0.00  0.00    -0.169 OA
ENDBRANCH  24  27
ENDBRANCH  20  21
ENDBRANCH  19  20
TORSDOF 6
ENDMDL
MODEL 6
REMARK VINA RESULT:      -9.4      3.178      4.917
REMARK  Name = 
REMARK  6 active torsions:
REMARK  status: ('A' for Active; 'I' for Inactive)
REMARK    1  A    between atoms: N_2  and  C_4
REMARK    2  A    between atoms: C_7  and  C_10
REMARK    3  A    between atoms: C_13  and  C_15
REMARK    4  A    between atoms: N_19  and  C_20
REMARK    5  A    between atoms: C_20  and  C_21
REMARK    6  A    between atoms: C_24  and  S_27
REMARK                            x       y       z     vdW  Elec       q    Type
REMARK                         _______ _______ _______ _____ _____    ______ ____
ROOT
ATOM     15  C   UNL     1      -1.605  -0.634  24.744  0.00  0.00    +0.138 C 
ATOM     16  C   UNL     1      -1.522  -1.246  25.292  0.00  0.00    +0.027 C 
ATOM     17  C   UNL     1      -0.728  -1.466  25.312  0.00  0.00    +0.019 C 
ATOM     18  C   UNL     1      -0.318  -0.990  24.777  0.00  0.00    +0.073 C 
ATOM     19  N   UNL     1      -0.860  -0.476  24.426  0.00  0.00    -0.263 NA
ENDROOT
BRANCH  15  13
ATOM     10  C   UNL     1      -3.346   0.589  24.581  0.00  0.00    +0.205 A 
ATOM     11  N   UNL     1      -3.433   0.099  23.922  0.00  0.00    -0.056 NA
ATOM     12  O   UNL     1      -2.791  -0.419  23.903  0.00  0.00    -0.336 OA
ATOM     13  C   UNL     1      -2.307  -0.249  24.550  0.00  0.00    +0.251 A 
ATOM     14  N   UNL     1      -2.651   0.374  24.968  0.00  0.00    -0.190 NA
BRANCH  10   7
ATOM      4  C   UNL     1      -4.899   2.389  25.270  0.00  0.00    +0.132 A 
ATOM      5  C   UNL     1      -5.155   1.605  25.257  0.00  0.00    +0.034 A 
ATOM      6  C   UNL     1      -4.637   1.005  25.027  0.00  0.00    +0.008 A 
ATOM      7  C   UNL     1      -3.864   1.189  24.810  0.00  0.00    +0.058 A 
ATOM      8  C   UNL     1      -3.607   1.973  24.822  0.00  0.00    +0.103 A 
ATOM      9  N   UNL     1      -4.125   2.573  25.052  0.00  0.00    -0.229 NA
BRANCH   4   2
ATOM      1  C   UNL     1      -5.208   3.779  25.387  0.00  0.00    +0.114 C 
ATOM      2  N   UNL     1      -5.417   2.988  25.499  0.00  0.00    -0.290 N 
ATOM      3  C   UNL     1      -6.143   2.798  25.840  0.00  0.00    +0.114 C 
ENDBRANCH   4   2
ENDBRANCH  10   7
ENDBRANCH  15  13
BRANCH  19  20
ATOM     20  C   UNL     1      -0.688   0.096  23.857  0.00  0.00    +0.099 C 
BRANCH  20  21
ATOM     21  C   UNL     1       0.089   0.204  23.603  0.00  0.00    -0.006 A 
ATOM     22  C   UNL     1       0.545   0.816  23.916  0.00  0.00    -0.002 A 
ATOM     23  C   UNL     1       1.322   0.924  23.662  0.00  0.00    +0.018 A 
ATOM     24  C   UNL     1       1.643   0.420  23.093  0.00  0.00    +0.106 A 
ATOM     25  C   UNL     1       1.188  -0.192  22.779  0.00  0.00    +0.018 A 
ATOM     26  C   UNL     1       0.411  -0.300  23.034  0.00  0.00    -0.002 A 
BRANCH  24  27
ATOM     27  S   UNL     1       2.421   0.528  22.838  0.00  0.00    +0.010 S 
ATOM     28  C   UNL     1       3.198   0.636  22.584  0.00  0.00    +0.182 C 
ATOM     29  O   UNL     1       2.350  -0.128  22.344  0.00  0.00    -0.169 OA
ATOM     30  O   UNL     1       2.492   1.185  23.334  0.00  0.00    -0.169 OA
ENDBRANCH  24  27
ENDBRANCH  20  21
ENDBRANCH  19  20
TORSDOF 6
ENDMDL
MODEL 7
REMARK VINA RESULT:      -9.3      3.218      4.607
REMARK  Name = 
REMARK  6 active torsions:
REMARK  status: ('A' for Active; 'I' for Inactive)
REMARK    1  A    between atoms: N_2  and  C_4
REMARK    2  A    between atoms: C_7  and  C_10
REMARK    3  A    between atoms: C_13  and  C_15
REMARK    4  A    between atoms: N_19  and  C_20
REMARK    5  A    between atoms: C_20  and  C_21
REMARK    6  A    between atoms: C_24  and  S_27
REMARK                            x       y       z     vdW  Elec       q    Type
REMARK                         _______ _______ _______ _____ _____    ______ ____
ROOT
ATOM     15  C   UNL     1      -1.423   3.299  25.111  0.00  0.00    +0.138 C 
ATOM     16  C   UNL     1      -1.280   4.049  25.424  0.00  0.00    +0.027 C 
ATOM     17  C   UNL     1      -1.972   4.492  25.351  0.00  0.00    +0.019 C 
ATOM     18  C   UNL     1      -2.543   4.016  24.991  0.00  0.00    +0.073 C 
ATOM     19  N   UNL     1      -2.203   3.279  24.843  0.00  0.00    -0.263 NA
ENDROOT
BRANCH  15  13
ATOM     10  C   UNL     1      -0.011   1.780  24.603  0.00  0.00    +0.205 A 
ATOM     11  N   UNL     1      -0.080   1.668  25.418  0.00  0.00    -0.056 NA
ATOM     12  O   UNL     1      -0.618   2.223  25.707  0.00  0.00    -0.336 OA
ATOM     13  C   UNL     1      -0.881   2.679  25.071  0.00  0.00    +0.251 A 
ATOM     14  N   UNL     1      -0.506   2.405  24.389  0.00  0.00    -0.190 NA
BRANCH  10   7
ATOM      4  C   UNL     1       1.427   0.472  23.071  0.00  0.00    +0.132 A 
ATOM      5  C   UNL     1       0.672   0.200  23.263  0.00  0.00    +0.034 A 
ATOM      6  C   UNL     1       0.193   0.636  23.773  0.00  0.00    +0.008 A 
ATOM      7  C   UNL     1       0.468   1.344  24.093  0.00  0.00    +0.058 A 
ATOM      8  C   UNL     1       1.223   1.618  23.902  0.00  0.00    +0.103 A 
ATOM      9  N   UNL     1       1.702   1.182  23.391  0.00  0.00    -0.229 NA
BRANCH   4   2
ATOM      1  C   UNL     1       2.726   0.040  22.661  0.00  0.00    +0.114 C 
ATOM      2  N   UNL     1       1.907   0.036  22.561  0.00  0.00    -0.290 N 
ATOM      3  C   UNL     1       1.567  -0.402  21.951  0.00  0.00    +0.114 C 
ENDBRANCH   4   2
ENDBRANCH  10   7
ENDBRANCH  15  13
BRANCH  19  20
ATOM     20  C   UNL     1      -2.578   2.635  24.489  0.00  0.00    +0.099 C 
BRANCH  20  21
ATOM     21  C   UNL     1      -3.381   2.502  24.621  0.00  0.00    -0.006 A 
ATOM     22  C   UNL     1      -3.944   2.847  24.127  0.00  0.00    -0.002 A 
ATOM     23  C   UNL     1      -4.747   2.714  24.259  0.00  0.00    +0.018 A 
ATOM     24  C   UNL     1      -4.987   2.234  24.886  0.00  0.00    +0.106 A 
ATOM     25  C   UNL     1      -4.425   1.888  25.380  0.00  0.00    +0.018 A 
ATOM     26  C   UNL     1      -3.622   2.021  25.248  0.00  0.00    -0.002 A 
BRANCH  24  27
ATOM     27  S   UNL     1      -5.791   2.100  25.018  0.00  0.00    +0.010 S 
ATOM     28  C   UNL     1      -6.594   1.966  25.150  0.00  0.00    +0.182 C 
ATOM     29  O   UNL     1      -5.730   1.367  24.645  0.00  0.00    -0.169 OA
ATOM     30  O   UNL     1      -5.852   2.833  25.392  0.00  0.00    -0.169 OA
ENDBRANCH  24  27
ENDBRANCH  20  21
ENDBRANCH  19  20
TORSDOF 6
ENDMDL
MODEL 8
REMARK VINA RESULT:      -9.1      2.294      3.751
REMARK  Name = 
REMARK  6 active torsions:
REMARK  status: ('A' for Active; 'I' for Inactive)
REMARK    1  A    between atoms: N_2  and  C_4
REMARK    2  A    between atoms: C_7  and  C_10
REMARK    3  A    between atoms: C_13  and  C_15
REMARK    4  A    between atoms: N_19  and  C_20
REMARK    5  A    between atoms: C_20  and  C_21
REMARK    6  A    between atoms: C_24  and  S_27
REMARK                            x       y       z     vdW  Elec       q    Type
REMARK                         _______ _______ _______ _____ _____    ______ ____
ROOT
ATOM     15  C   UNL     1      -1.124   3.365  24.845  0.00  0.00    +0.138 C 
ATOM     16  C   UNL     1      -0.731   3.974  25.240  0.00  0.00    +0.027 C 
ATOM     17  C   UNL     1      -1.267   4.590  25.355  0.00  0.00    +0.019 C 
ATOM     18  C   UNL     1      -1.991   4.363  25.032  0.00  0.00    +0.073 C 
ATOM     19  N   UNL     1      -1.903   3.605  24.717  0.00  0.00    -0.263 NA
ENDROOT
BRANCH  15  13
ATOM     10  C   UNL     1      -0.545   1.334  24.531  0.00  0.00    +0.205 A 
ATOM     11  N   UNL     1      -0.037   1.727  24.012  0.00  0.00    -0.056 NA
ATOM     12  O   UNL     1      -0.193   2.536  24.067  0.00  0.00    -0.336 OA
ATOM     13  C   UNL     1      -0.796   2.643  24.619  0.00  0.00    +0.251 A 
ATOM     14  N   UNL     1      -1.014   1.900  24.906  0.00  0.00    -0.190 NA
BRANCH  10   7
ATOM      4  C   UNL     1      -0.643  -1.111  24.898  0.00  0.00    +0.132 A 
ATOM      5  C   UNL     1      -0.945  -0.596  25.467  0.00  0.00    +0.034 A 
ATOM      6  C   UNL     1      -0.912   0.219  25.345  0.00  0.00    +0.008 A 
ATOM      7  C   UNL     1      -0.578   0.519  24.653  0.00  0.00    +0.058 A 
ATOM      8  C   UNL     1      -0.276   0.005  24.083  0.00  0.00    +0.103 A 
ATOM      9  N   UNL     1      -0.309  -0.811  24.205  0.00  0.00    -0.229 NA
BRANCH   4   2
ATOM      1  C   UNL     1      -0.042  -2.316  25.376  0.00  0.00    +0.114 C 
ATOM      2  N   UNL     1      -0.676  -1.927  25.020  0.00  0.00    -0.290 N 
ATOM      3  C   UNL     1      -1.343  -2.352  24.786  0.00  0.00    +0.114 C 
ENDBRANCH   4   2
ENDBRANCH  10   7
ENDBRANCH  15  13
BRANCH  19  20
ATOM     20  C   UNL     1      -2.490   3.166  24.340  0.00  0.00    +0.099 C 
BRANCH  20  21
ATOM     21  C   UNL     1      -3.264   3.182  24.623  0.00  0.00    -0.006 A 
ATOM     22  C   UNL     1      -3.499   2.656  25.213  0.00  0.00    -0.002 A 
ATOM     23  C   UNL     1      -4.274   2.672  25.498  0.00  0.00    +0.018 A 
ATOM     24  C   UNL     1      -4.813   3.215  25.190  0.00  0.00    +0.106 A 
ATOM     25  C   UNL     1      -4.579   3.742  24.600  0.00  0.00    +0.018 A 
ATOM     26  C   UNL     1      -3.805   3.725  24.316  0.00  0.00    -0.002 A 
BRANCH  24  27
ATOM     27  S   UNL     1      -5.588   3.232  25.474  0.00  0.00    +0.010 S 
ATOM     28  C   UNL     1      -6.362   3.248  25.758  0.00  0.00    +0.182 C 
ATOM     29  O   UNL     1      -5.722   2.484  25.153  0.00  0.00    -0.169 OA
ATOM     30  O   UNL     1      -5.455   3.980  25.796  0.00  0.00    -0.169 OA
ENDBRANCH  24  27
ENDBRANCH  20  21
ENDBRANCH  19  20
TORSDOF 6
ENDMDL
