MODEL 1
REMARK VINA RESULT:     -13.3      0.000      0.000
REMARK  Name = 
REMARK  2 active torsions:
REMARK  status: ('A' for Active; 'I' for Inactive)
REMARK    1  A    between atoms: C_2  and  C_18
REMARK    2  A    between atoms: N_3  and  C_4
REMARK                            x       y       z     vdW  Elec       q    Type
REMARK                         _______ _______ _______ _____ _____    ______ ____
ROOT
ATOM      4  C   UNL     1      -3.622   0.102  24.578  0.00  0.00    +0.130 A 
ATOM      5  C   UNL     1      -4.132  -0.281  24.054  0.00  0.00    +0.023 A 
ATOM      6  C   UNL     1      -4.142  -1.105  24.017  0.00  0.00    +0.014 A 
ATOM      7  C   UNL     1      -3.642  -1.547  24.503  0.00  0.00    +0.041 A 
ATOM      8  C   UNL     1      -3.892  -2.431  24.224  0.00  0.00    +0.056 C 
ATOM      9  C   UNL     1      -3.253  -2.848  24.851  0.00  0.00    +0.094 C 
ATOM     10  N   UNL     1      -2.928  -2.161  25.198  0.00  0.00    -0.218 NA
ATOM     11  C   UNL     1      -3.416  -2.322  24.705  0.00  0.00    +0.091 C 
ATOM     12  C   UNL     1      -4.029  -1.903  24.104  0.00  0.00    +0.041 C 
ATOM     13  C   UNL     1      -4.456  -2.247  23.666  0.00  0.00    +0.011 C 
ATOM     14  C   UNL     1      -3.796  -1.054  24.365  0.00  0.00    +0.110 C 
ATOM     15  N   UNL     1      -3.132  -1.164  25.027  0.00  0.00    -0.298 N 
ATOM     16  C   UNL     1      -3.122  -0.339  25.064  0.00  0.00    +0.276 A 
ATOM     17  O   UNL     1      -2.612   0.043  25.587  0.00  0.00    -0.266 OA
ENDROOT
BRANCH   4   3
ATOM      1  O   UNL     1      -5.032   0.939  24.758  0.00  0.00    -0.268 OA
ATOM      2  C   UNL     1      -4.316   1.344  24.705  0.00  0.00    +0.269 C 
ATOM      3  N   UNL     1      -3.611   0.926  24.615  0.00  0.00    -0.171 NA
BRANCH   2  18
ATOM     18  C   UNL     1      -4.305   2.168  24.743  0.00  0.00    +0.058 A 
ATOM     19  C   UNL     1      -3.930   2.604  24.151  0.00  0.00    +0.025 A 
ATOM     20  C   UNL     1      -3.920   3.428  24.190  0.00  0.00    +0.099 A 
ATOM     21  N   UNL     1      -4.284   3.817  24.819  0.00  0.00    -0.242 NA
ATOM     22  C   UNL     1      -4.660   3.381  25.411  0.00  0.00    +0.099 A 
ATOM     23  C   UNL     1      -4.670   2.557  25.373  0.00  0.00    +0.025 A 
ENDBRANCH   2  18
ENDBRANCH   4   3
TORSDOF 2
ENDMDL
MODEL 2
REMARK VINA RESULT:     -13.2      0.910      4.334
REMARK  Name = 
REMARK  2 active torsions:
REMARK  status: ('A' for Active; 'I' for Inactive)
REMARK    1  A    between atoms: C_2  and  C_18
REMARK    2  A    between atoms: N_3  and  C_4
REMARK                            x       y       z     vdW  Elec       q    Type
REMARK                         _______ _______ _______ _____ _____    ______ ____
ROOT
ATOM      4  C   UNL     1      -4.153   0.855  24.456  0.00  0.00    +0.130 A 
ATOM      5  C   UNL     1      -4.829   1.057  24.883  0.00  0.00    +0.023 A 
ATOM      6  C   UNL     1      -4.974   1.846  25.078  0.00  0.00    +0.014 A 
ATOM      7  C   UNL     1      -4.441   2.432  24.845  0.00  0.00    +0.041 A 
ATOM      8  C   UNL     1      -4.884   3.200  25.213  0.00  0.00    +0.056 C 
ATOM      9  C   UNL     1      -4.180   3.809  24.882  0.00  0.00    +0.094 C 
ATOM     10  N   UNL     1      -3.679   3.255  24.509  0.00  0.00    -0.218 NA
ATOM     11  C   UNL     1      -4.292   3.251  24.871  0.00  0.00    +0.091 C 
ATOM     12  C   UNL     1      -4.965   2.649  25.184  0.00  0.00    +0.041 C 
ATOM     13  C   UNL     1      -5.534   2.841  25.546  0.00  0.00    +0.011 C 
ATOM     14  C   UNL     1      -4.548   1.908  24.835  0.00  0.00    +0.110 C 
ATOM     15  N   UNL     1      -3.765   2.230  24.418  0.00  0.00    -0.298 N 
ATOM     16  C   UNL     1      -3.621   1.441  24.223  0.00  0.00    +0.276 A 
ATOM     17  O   UNL     1      -2.945   1.239  23.797  0.00  0.00    -0.266 OA
ENDROOT
BRANCH   4   3
ATOM      1  O   UNL     1      -4.225  -0.311  25.622  0.00  0.00    -0.268 OA
ATOM      2  C   UNL     1      -4.044  -0.516  24.844  0.00  0.00    +0.269 C 
ATOM      3  N   UNL     1      -4.008   0.066  24.261  0.00  0.00    -0.171 NA
BRANCH   2  18
ATOM     18  C   UNL     1      -3.899  -1.305  24.649  0.00  0.00    +0.058 A 
ATOM     19  C   UNL     1      -4.287  -1.649  24.008  0.00  0.00    +0.025 A 
ATOM     20  C   UNL     1      -4.141  -2.439  23.813  0.00  0.00    +0.099 A 
ATOM     21  N   UNL     1      -3.608  -2.882  24.260  0.00  0.00    -0.242 NA
ATOM     22  C   UNL     1      -3.221  -2.537  24.902  0.00  0.00    +0.099 A 
ATOM     23  C   UNL     1      -3.365  -1.749  25.096  0.00  0.00    +0.025 A 
ENDBRANCH   2  18
ENDBRANCH   4   3
TORSDOF 2
ENDMDL
MODEL 3
REMARK VINA RESULT:     -11.9      1.949      2.283
REMARK  Name = 
REMARK  2 active torsions:
REMARK  status: ('A' for Active; 'I' for Inactive)
REMARK    1  A    between atoms: C_2  and  C_18
REMARK    2  A    between atoms: N_3  and  C_4
REMARK                            x       y       z     vdW  Elec       q    Type
REMARK                         _______ _______ _______ _____ _____    ______ ____
ROOT
ATOM      4  C   UNL     1      -2.396  -0.173  25.181  0.00  0.00    +0.130 A 
ATOM      5  C   UNL     1      -3.075  -0.044  24.730  0.00  0.00    +0.023 A 
ATOM      6  C   UNL     1      -3.517  -0.685  24.457  0.00  0.00    +0.014 A 
ATOM      7  C   UNL     1      -3.280  -1.456  24.636  0.00  0.00    +0.041 A 
ATOM      8  C   UNL     1      -3.978  -1.942  24.190  0.00  0.00    +0.056 C 
ATOM      9  C   UNL     1      -3.597  -2.811  24.465  0.00  0.00    +0.094 C 
ATOM     10  N   UNL     1      -2.933  -2.543  24.895  0.00  0.00    -0.218 NA
ATOM     11  C   UNL     1      -3.474  -2.258  24.531  0.00  0.00    +0.091 C 
ATOM     12  C   UNL     1      -3.830  -1.410  24.272  0.00  0.00    +0.041 C 
ATOM     13  C   UNL     1      -4.410  -1.321  23.888  0.00  0.00    +0.011 C 
ATOM     14  C   UNL     1      -3.166  -0.937  24.696  0.00  0.00    +0.110 C 
ATOM     15  N   UNL     1      -2.601  -1.584  25.086  0.00  0.00    -0.298 N 
ATOM     16  C   UNL     1      -2.159  -0.943  25.359  0.00  0.00    +0.276 A 
ATOM     17  O   UNL     1      -1.481  -1.071  25.809  0.00  0.00    -0.266 OA
ENDROOT
BRANCH   4   3
ATOM      1  O   UNL     1      -1.822   0.948  24.115  0.00  0.00    -0.268 OA
ATOM      2  C   UNL     1      -1.667   1.028  24.921  0.00  0.00    +0.269 C 
ATOM      3  N   UNL     1      -1.954   0.468  25.454  0.00  0.00    -0.171 NA
BRANCH   2  18
ATOM     18  C   UNL     1      -1.225   1.669  25.194  0.00  0.00    +0.058 A 
ATOM     19  C   UNL     1      -1.606   2.353  25.454  0.00  0.00    +0.025 A 
ATOM     20  C   UNL     1      -1.163   2.994  25.727  0.00  0.00    +0.099 A 
ATOM     21  N   UNL     1      -0.340   2.950  25.739  0.00  0.00    -0.242 NA
ATOM     22  C   UNL     1       0.042   2.266  25.478  0.00  0.00    +0.099 A 
ATOM     23  C   UNL     1      -0.401   1.626  25.206  0.00  0.00    +0.025 A 
ENDBRANCH   2  18
ENDBRANCH   4   3
TORSDOF 2
ENDMDL
