REMARK  Name = 
REMARK  5 active torsions:
REMARK  status: ('A' for Active; 'I' for Inactive)
REMARK    1  A    between atoms: S_2  and  N_5
REMARK    2  A    between atoms: C_10  and  C_11
REMARK    3  A    between atoms: C_13  and  C_16
REMARK    4  A    between atoms: C_19  and  O_20
REMARK    5  A    between atoms: O_20  and  C_21
REMARK                            x       y       z     vdW  Elec       q    Type
REMARK                         _______ _______ _______ _____ _____    ______ ____
ROOT
ATOM     11  C   UNL     1       0.715  -1.238   0.000  0.00  0.00    +0.158 A 
ATOM     12  N   UNL     1       1.382  -1.722   0.000  0.00  0.00    -0.228 NA
ATOM     13  C   UNL     1       1.127  -2.507   0.000  0.00  0.00    +0.102 A 
ATOM     14  C   UNL     1       0.302  -2.507   0.000  0.00  0.00    +0.119 A 
ATOM     15  N   UNL     1       0.047  -1.722   0.000  0.00  0.00    -0.226 NA
ENDROOT
BRANCH  11  10
ATOM      5  N   UNL     1       0.000   0.000   0.000  0.00  0.00    -0.148 NA
ATOM      6  C   UNL     1       0.000   0.825   0.000  0.00  0.00    +0.128 C 
ATOM      7  C   UNL     1       0.715   1.238   0.000  0.00  0.00    +0.161 C 
ATOM      8  O   UNL     1       1.429   0.825   0.000  0.00  0.00    -0.350 OA
ATOM      9  C   UNL     1       1.429   0.000   0.000  0.00  0.00    +0.168 C 
ATOM     10  C   UNL     1       0.715  -0.412   0.000  0.00  0.00    +0.167 C 
BRANCH   5   2
ATOM      1  C   UNL     1      -1.429  -0.825   0.000  0.00  0.00    +0.196 C 
ATOM      2  S   UNL     1      -0.715  -0.412   0.000  0.00  0.00    +0.046 S 
ATOM      3  O   UNL     1      -0.302  -1.127   0.000  0.00  0.00    -0.157 OA
ATOM      4  O   UNL     1      -1.127   0.302   0.000  0.00  0.00    -0.157 OA
ENDBRANCH   5   2
ENDBRANCH  11  10
BRANCH  13  16
ATOM     16  C   UNL     1       1.612  -3.175   0.000  0.00  0.00    +0.019 A 
ATOM     17  C   UNL     1       2.432  -3.088   0.000  0.00  0.00    +0.005 A 
ATOM     18  C   UNL     1       2.917  -3.756   0.000  0.00  0.00    +0.037 A 
ATOM     19  C   UNL     1       2.582  -4.509   0.000  0.00  0.00    +0.147 A 
ATOM     25  C   UNL     1       1.761  -4.596   0.000  0.00  0.00    +0.037 A 
ATOM     26  C   UNL     1       1.276  -3.928   0.000  0.00  0.00    +0.005 A 
BRANCH  19  20
ATOM     20  O   UNL     1       3.067  -5.177   0.000  0.00  0.00    -0.404 OA
BRANCH  20  21
ATOM     21  C   UNL     1       3.887  -5.091   0.000  0.00  0.00    +0.575 C 
ATOM     22  F   UNL     1       4.708  -5.004   0.000  0.00  0.00    -0.133 F 
ATOM     23  F   UNL     1       3.973  -5.911   0.000  0.00  0.00    -0.133 F 
ATOM     24  F   UNL     1       3.801  -4.270   0.000  0.00  0.00    -0.133 F 
ENDBRANCH  20  21
ENDBRANCH  19  20
ENDBRANCH  13  16
TORSDOF 5
