MODEL 1
REMARK VINA RESULT:     -11.2      0.000      0.000
REMARK  Name = 
REMARK  5 active torsions:
REMARK  status: ('A' for Active; 'I' for Inactive)
REMARK    1  A    between atoms: O_2  and  C_3
REMARK    2  A    between atoms: C_6  and  C_7
REMARK    3  A    between atoms: C_7  and  N_8
REMARK    4  A    between atoms: N_8  and  C_9
REMARK    5  A    between atoms: C_15  and  C_16
REMARK                            x       y       z     vdW  Elec       q    Type
REMARK                         _______ _______ _______ _____ _____    ______ ____
ROOT
ATOM      9  C   UNL     1      -4.416   1.719  24.689  0.00  0.00    +0.110 C 
ATOM     10  C   UNL     1      -5.075   1.995  25.100  0.00  0.00    +0.198 C 
ATOM     11  O   UNL     1      -5.677   1.531  25.420  0.00  0.00    -0.219 OA
ATOM     12  C   UNL     1      -5.027   2.819  25.134  0.00  0.00    +0.184 C 
ATOM     13  O   UNL     1      -5.573   3.322  25.495  0.00  0.00    -0.220 OA
ATOM     14  C   UNL     1      -4.338   3.050  24.745  0.00  0.00    +0.041 C 
ATOM     15  C   UNL     1      -3.960   2.371  24.469  0.00  0.00    +0.044 C 
ENDROOT
BRANCH  15  16
ATOM     16  C   UNL     1      -3.250   2.348  24.049  0.00  0.00    -0.021 A 
ATOM     17  C   UNL     1      -3.258   2.253  23.230  0.00  0.00    -0.004 A 
ATOM     18  C   UNL     1      -2.549   2.231  22.810  0.00  0.00    -0.000 A 
ATOM     19  C   UNL     1      -1.831   2.303  23.209  0.00  0.00    -0.000 A 
ATOM     20  C   UNL     1      -1.822   2.398  24.029  0.00  0.00    -0.000 A 
ATOM     21  C   UNL     1      -2.532   2.421  24.449  0.00  0.00    -0.004 A 
ENDBRANCH  15  16
BRANCH   9   8
ATOM      8  N   UNL     1      -4.242   0.928  24.526  0.00  0.00    -0.212 NA
BRANCH   8   7
ATOM      7  C   UNL     1      -4.460   0.340  25.061  0.00  0.00    +0.115 C 
BRANCH   7   6
ATOM      3  C   UNL     1      -3.572  -1.956  24.803  0.00  0.00    +0.139 A 
ATOM      4  C   UNL     1      -3.402  -1.521  25.483  0.00  0.00    +0.037 A 
ATOM      5  C   UNL     1      -3.697  -0.757  25.568  0.00  0.00    +0.000 A 
ATOM      6  C   UNL     1      -4.164  -0.425  24.975  0.00  0.00    -0.005 A 
ATOM     22  C   UNL     1      -4.335  -0.860  24.295  0.00  0.00    +0.000 A 
ATOM     23  C   UNL     1      -4.039  -1.624  24.209  0.00  0.00    +0.037 A 
BRANCH   3   2
ATOM      1  C   UNL     1      -2.494  -2.837  24.485  0.00  0.00    +0.252 C 
ATOM      2  O   UNL     1      -3.277  -2.721  24.717  0.00  0.00    -0.471 OA
ENDBRANCH   3   2
ENDBRANCH   7   6
ENDBRANCH   8   7
ENDBRANCH   9   8
TORSDOF 5
ENDMDL
MODEL 2
REMARK VINA RESULT:     -10.6      1.643      3.585
REMARK  Name = 
REMARK  5 active torsions:
REMARK  status: ('A' for Active; 'I' for Inactive)
REMARK    1  A    between atoms: O_2  and  C_3
REMARK    2  A    between atoms: C_6  and  C_7
REMARK    3  A    between atoms: C_7  and  N_8
REMARK    4  A    between atoms: N_8  and  C_9
REMARK    5  A    between atoms: C_15  and  C_16
REMARK                            x       y       z     vdW  Elec       q    Type
REMARK                         _______ _______ _______ _____ _____    ______ ____
ROOT
ATOM      9  C   UNL     1      -3.990   1.271  24.775  0.00  0.00    +0.110 C 
ATOM     10  C   UNL     1      -4.497   1.916  24.855  0.00  0.00    +0.198 C 
ATOM     11  O   UNL     1      -4.287   2.711  24.787  0.00  0.00    -0.219 OA
ATOM     12  C   UNL     1      -5.253   1.627  25.016  0.00  0.00    +0.184 C 
ATOM     13  O   UNL     1      -5.931   2.082  25.137  0.00  0.00    -0.220 OA
ATOM     14  C   UNL     1      -5.212   0.803  25.035  0.00  0.00    +0.041 C 
ATOM     15  C   UNL     1      -4.431   0.583  24.885  0.00  0.00    +0.044 C 
ENDROOT
BRANCH  15  16
ATOM     16  C   UNL     1      -4.143  -0.190  24.853  0.00  0.00    -0.021 A 
ATOM     17  C   UNL     1      -3.861  -0.555  25.536  0.00  0.00    -0.004 A 
ATOM     18  C   UNL     1      -3.574  -1.327  25.503  0.00  0.00    -0.000 A 
ATOM     19  C   UNL     1      -3.569  -1.735  24.786  0.00  0.00    -0.000 A 
ATOM     20  C   UNL     1      -3.851  -1.369  24.102  0.00  0.00    -0.000 A 
ATOM     21  C   UNL     1      -4.138  -0.597  24.134  0.00  0.00    -0.004 A 
ENDBRANCH  15  16
BRANCH   9   8
ATOM      8  N   UNL     1      -3.181   1.308  24.611  0.00  0.00    -0.212 NA
BRANCH   8   7
ATOM      7  C   UNL     1      -2.750   1.982  24.811  0.00  0.00    +0.115 C 
BRANCH   7   6
ATOM      3  C   UNL     1      -0.293   2.010  24.519  0.00  0.00    +0.139 A 
ATOM      4  C   UNL     1      -0.618   1.983  25.277  0.00  0.00    +0.037 A 
ATOM      5  C   UNL     1      -1.436   1.973  25.374  0.00  0.00    +0.000 A 
ATOM      6  C   UNL     1      -1.931   1.991  24.714  0.00  0.00    -0.005 A 
ATOM     22  C   UNL     1      -1.605   2.019  23.956  0.00  0.00    +0.000 A 
ATOM     23  C   UNL     1      -0.787   2.028  23.859  0.00  0.00    +0.037 A 
BRANCH   3   2
ATOM      1  C   UNL     1       0.894   1.443  23.962  0.00  0.00    +0.252 C 
ATOM      2  O   UNL     1       0.527   2.020  24.422  0.00  0.00    -0.471 OA
ENDBRANCH   3   2
ENDBRANCH   7   6
ENDBRANCH   8   7
ENDBRANCH   9   8
TORSDOF 5
ENDMDL
