MODEL 1
REMARK VINA RESULT:      -9.6      0.000      0.000
REMARK  Name = 
REMARK  5 active torsions:
REMARK  status: ('A' for Active; 'I' for Inactive)
REMARK    1  A    between atoms: O_2  and  C_3
REMARK    2  A    between atoms: C_6  and  C_11
REMARK    3  A    between atoms: C_8  and  O_9
REMARK    4  A    between atoms: C_16  and  C_18
REMARK    5  A    between atoms: C_21  and  C_23
REMARK                            x       y       z     vdW  Elec       q    Type
REMARK                         _______ _______ _______ _____ _____    ______ ____
ROOT
ATOM     11  C   UNL     1      -1.020   2.323  25.724  0.00  0.00    +0.249 C 
ATOM     12  O   UNL     1      -0.544   2.090  26.357  0.00  0.00    -0.270 OA
ATOM     13  N   UNL     1      -1.389   1.755  25.253  0.00  0.00    -0.276 N 
ATOM     14  C   UNL     1      -1.877   1.905  24.606  0.00  0.00    +0.094 C 
ATOM     15  C   UNL     1      -2.124   1.180  24.299  0.00  0.00    +0.033 C 
ATOM     16  C   UNL     1      -1.788   0.582  24.758  0.00  0.00    +0.100 C 
ATOM     17  C   UNL     1      -1.333   0.938  25.348  0.00  0.00    +0.103 C 
ENDROOT
BRANCH  11   6
ATOM      3  C   UNL     1      -1.340   4.730  25.240  0.00  0.00    +0.172 A 
ATOM      4  C   UNL     1      -0.675   4.336  24.951  0.00  0.00    +0.040 A 
ATOM      5  C   UNL     1      -0.568   3.533  25.113  0.00  0.00    +0.008 A 
ATOM      6  C   UNL     1      -1.127   3.126  25.563  0.00  0.00    +0.057 A 
ATOM      7  C   UNL     1      -1.791   3.520  25.852  0.00  0.00    +0.045 A 
ATOM      8  C   UNL     1      -1.898   4.321  25.690  0.00  0.00    +0.173 A 
BRANCH   3   2
ATOM      1  C   UNL     1      -0.921   5.925  24.578  0.00  0.00    +0.253 C 
ATOM      2  O   UNL     1      -1.446   5.531  25.079  0.00  0.00    -0.468 OA
ENDBRANCH   3   2
BRANCH   8   9
ATOM      9  O   UNL     1      -2.563   4.716  25.980  0.00  0.00    -0.468 OA
ATOM     10  C   UNL     1      -3.173   4.289  26.337  0.00  0.00    +0.253 C 
ENDBRANCH   8   9
ENDBRANCH  11   6
BRANCH  16  18
ATOM     18  C   UNL     1      -1.888  -0.229  24.646  0.00  0.00    +0.228 A 
ATOM     19  N   UNL     1      -1.284  -0.789  24.586  0.00  0.00    -0.111 NA
ATOM     20  N   UNL     1      -1.632  -1.529  24.478  0.00  0.00    -0.107 NA
ATOM     21  C   UNL     1      -2.451  -1.427  24.472  0.00  0.00    +0.250 A 
ATOM     22  O   UNL     1      -2.609  -0.623  24.576  0.00  0.00    -0.419 OA
BRANCH  21  23
ATOM     23  C   UNL     1      -3.014  -2.024  24.378  0.00  0.00    +0.058 A 
ATOM     24  C   UNL     1      -2.883  -2.769  24.707  0.00  0.00    +0.025 A 
ATOM     25  C   UNL     1      -3.446  -3.365  24.613  0.00  0.00    +0.099 A 
ATOM     26  N   UNL     1      -4.138  -3.216  24.190  0.00  0.00    -0.242 NA
ATOM     27  C   UNL     1      -4.268  -2.471  23.861  0.00  0.00    +0.099 A 
ATOM     28  C   UNL     1      -3.706  -1.875  23.955  0.00  0.00    +0.025 A 
ENDBRANCH  21  23
ENDBRANCH  16  18
TORSDOF 5
ENDMDL
MODEL 2
REMARK VINA RESULT:      -9.3      2.710      4.075
REMARK  Name = 
REMARK  5 active torsions:
REMARK  status: ('A' for Active; 'I' for Inactive)
REMARK    1  A    between atoms: O_2  and  C_3
REMARK    2  A    between atoms: C_6  and  C_11
REMARK    3  A    between atoms: C_8  and  O_9
REMARK    4  A    between atoms: C_16  and  C_18
REMARK    5  A    between atoms: C_21  and  C_23
REMARK                            x       y       z     vdW  Elec       q    Type
REMARK                         _______ _______ _______ _____ _____    ______ ____
ROOT
ATOM     11  C   UNL     1      -3.063   1.962  23.892  0.00  0.00    +0.249 C 
ATOM     12  O   UNL     1      -3.016   2.279  23.132  0.00  0.00    -0.270 OA
ATOM     13  N   UNL     1      -2.489   1.430  24.154  0.00  0.00    -0.276 N 
ATOM     14  C   UNL     1      -2.465   1.071  24.896  0.00  0.00    +0.094 C 
ATOM     15  C   UNL     1      -1.800   0.583  24.921  0.00  0.00    +0.033 C 
ATOM     16  C   UNL     1      -1.414   0.641  24.194  0.00  0.00    +0.100 C 
ATOM     17  C   UNL     1      -1.840   1.165  23.720  0.00  0.00    +0.103 C 
ENDROOT
BRANCH  11   6
ATOM      3  C   UNL     1      -4.927   2.609  25.387  0.00  0.00    +0.172 A 
ATOM      4  C   UNL     1      -4.984   1.925  24.928  0.00  0.00    +0.040 A 
ATOM      5  C   UNL     1      -4.362   1.710  24.430  0.00  0.00    +0.008 A 
ATOM      6  C   UNL     1      -3.685   2.178  24.391  0.00  0.00    +0.057 A 
ATOM      7  C   UNL     1      -3.628   2.861  24.849  0.00  0.00    +0.045 A 
ATOM      8  C   UNL     1      -4.249   3.076  25.347  0.00  0.00    +0.173 A 
BRANCH   3   2
ATOM      1  C   UNL     1      -6.169   2.297  26.021  0.00  0.00    +0.253 C 
ATOM      2  O   UNL     1      -5.548   2.824  25.885  0.00  0.00    -0.468 OA
ENDBRANCH   3   2
BRANCH   8   9
ATOM      9  O   UNL     1      -4.192   3.761  25.806  0.00  0.00    -0.468 OA
ATOM     10  C   UNL     1      -3.455   4.110  25.936  0.00  0.00    +0.253 C 
ENDBRANCH   8   9
ENDBRANCH  11   6
BRANCH  16  18
ATOM     18  C   UNL     1      -0.723   0.246  23.979  0.00  0.00    +0.228 A 
ATOM     19  N   UNL     1      -0.531  -0.534  24.171  0.00  0.00    -0.111 NA
ATOM     20  N   UNL     1       0.208  -0.702  23.845  0.00  0.00    -0.107 NA
ATOM     21  C   UNL     1       0.472  -0.027  23.451  0.00  0.00    +0.250 A 
ATOM     22  O   UNL     1      -0.103   0.559  23.534  0.00  0.00    -0.419 OA
BRANCH  21  23
ATOM     23  C   UNL     1       1.187   0.050  23.045  0.00  0.00    +0.058 A 
ATOM     24  C   UNL     1       1.289  -0.324  22.317  0.00  0.00    +0.025 A 
ATOM     25  C   UNL     1       2.004  -0.247  21.911  0.00  0.00    +0.099 A 
ATOM     26  N   UNL     1       2.616   0.202  22.234  0.00  0.00    -0.242 NA
ATOM     27  C   UNL     1       2.513   0.575  22.963  0.00  0.00    +0.099 A 
ATOM     28  C   UNL     1       1.799   0.499  23.368  0.00  0.00    +0.025 A 
ENDBRANCH  21  23
ENDBRANCH  16  18
TORSDOF 5
ENDMDL
MODEL 3
REMARK VINA RESULT:      -9.3      1.759      6.198
REMARK  Name = 
REMARK  5 active torsions:
REMARK  status: ('A' for Active; 'I' for Inactive)
REMARK    1  A    between atoms: O_2  and  C_3
REMARK    2  A    between atoms: C_6  and  C_11
REMARK    3  A    between atoms: C_8  and  O_9
REMARK    4  A    between atoms: C_16  and  C_18
REMARK    5  A    between atoms: C_21  and  C_23
REMARK                            x       y       z     vdW  Elec       q    Type
REMARK                         _______ _______ _______ _____ _____    ______ ____
ROOT
ATOM     11  C   UNL     1      -3.762  -0.290  25.233  0.00  0.00    +0.249 C 
ATOM     12  O   UNL     1      -4.037  -0.232  26.009  0.00  0.00    -0.270 OA
ATOM     13  N   UNL     1      -3.505   0.385  24.834  0.00  0.00    -0.276 N 
ATOM     14  C   UNL     1      -3.218   0.410  24.061  0.00  0.00    +0.094 C 
ATOM     15  C   UNL     1      -3.025   1.193  23.887  0.00  0.00    +0.033 C 
ATOM     16  C   UNL     1      -3.193   1.651  24.552  0.00  0.00    +0.100 C 
ATOM     17  C   UNL     1      -3.490   1.151  25.138  0.00  0.00    +0.103 C 
ENDROOT
BRANCH  11   6
ATOM      3  C   UNL     1      -3.712  -2.492  24.102  0.00  0.00    +0.172 A 
ATOM      4  C   UNL     1      -4.343  -1.977  23.974  0.00  0.00    +0.040 A 
ATOM      5  C   UNL     1      -4.360  -1.242  24.351  0.00  0.00    +0.008 A 
ATOM      6  C   UNL     1      -3.745  -1.024  24.856  0.00  0.00    +0.057 A 
ATOM      7  C   UNL     1      -3.114  -1.540  24.985  0.00  0.00    +0.045 A 
ATOM      8  C   UNL     1      -3.098  -2.273  24.608  0.00  0.00    +0.173 A 
BRANCH   3   2
ATOM      1  C   UNL     1      -4.354  -3.486  23.301  0.00  0.00    +0.253 C 
ATOM      2  O   UNL     1      -3.696  -3.225  23.726  0.00  0.00    -0.468 OA
ENDBRANCH   3   2
BRANCH   8   9
ATOM      9  O   UNL     1      -2.466  -2.789  24.737  0.00  0.00    -0.468 OA
ATOM     10  C   UNL     1      -1.703  -2.490  24.834  0.00  0.00    +0.253 C 
ENDBRANCH   8   9
ENDBRANCH  11   6
BRANCH  16  18
ATOM     18  C   UNL     1      -3.084   2.466  24.621  0.00  0.00    +0.228 A 
ATOM     19  N   UNL     1      -3.678   3.038  24.602  0.00  0.00    -0.111 NA
ATOM     20  N   UNL     1      -3.323   3.777  24.690  0.00  0.00    -0.107 NA
ATOM     21  C   UNL     1      -2.509   3.662  24.763  0.00  0.00    +0.250 A 
ATOM     22  O   UNL     1      -2.361   2.851  24.720  0.00  0.00    -0.419 OA
BRANCH  21  23
ATOM     23  C   UNL     1      -1.942   4.254  24.862  0.00  0.00    +0.058 A 
ATOM     24  C   UNL     1      -2.179   5.028  25.023  0.00  0.00    +0.025 A 
ATOM     25  C   UNL     1      -1.612   5.620  25.121  0.00  0.00    +0.099 A 
ATOM     26  N   UNL     1      -0.810   5.438  25.059  0.00  0.00    -0.242 NA
ATOM     27  C   UNL     1      -0.575   4.663  24.897  0.00  0.00    +0.099 A 
ATOM     28  C   UNL     1      -1.140   4.072  24.799  0.00  0.00    +0.025 A 
ENDBRANCH  21  23
ENDBRANCH  16  18
TORSDOF 5
ENDMDL
MODEL 4
REMARK VINA RESULT:      -8.2      3.481      5.659
REMARK  Name = 
REMARK  5 active torsions:
REMARK  status: ('A' for Active; 'I' for Inactive)
REMARK    1  A    between atoms: O_2  and  C_3
REMARK    2  A    between atoms: C_6  and  C_11
REMARK    3  A    between atoms: C_8  and  O_9
REMARK    4  A    between atoms: C_16  and  C_18
REMARK    5  A    between atoms: C_21  and  C_23
REMARK                            x       y       z     vdW  Elec       q    Type
REMARK                         _______ _______ _______ _____ _____    ______ ____
ROOT
ATOM     11  C   UNL     1      -0.931  -0.899  24.780  0.00  0.00    +0.249 C 
ATOM     12  O   UNL     1      -0.542  -1.430  25.277  0.00  0.00    -0.270 OA
ATOM     13  N   UNL     1      -0.522  -0.533  24.165  0.00  0.00    -0.276 N 
ATOM     14  C   UNL     1      -0.837   0.007  23.627  0.00  0.00    +0.094 C 
ATOM     15  C   UNL     1      -0.235   0.231  23.109  0.00  0.00    +0.033 C 
ATOM     16  C   UNL     1       0.451  -0.171  23.327  0.00  0.00    +0.100 C 
ATOM     17  C   UNL     1       0.274  -0.643  23.980  0.00  0.00    +0.103 C 
ENDROOT
BRANCH  11   6
ATOM      3  C   UNL     1      -3.330  -0.404  25.138  0.00  0.00    +0.172 A 
ATOM      4  C   UNL     1      -2.758   0.147  25.358  0.00  0.00    +0.040 A 
ATOM      5  C   UNL     1      -1.958  -0.018  25.239  0.00  0.00    +0.008 A 
ATOM      6  C   UNL     1      -1.731  -0.734  24.899  0.00  0.00    +0.057 A 
ATOM      7  C   UNL     1      -2.304  -1.286  24.679  0.00  0.00    +0.045 A 
ATOM      8  C   UNL     1      -3.103  -1.121  24.798  0.00  0.00    +0.173 A 
BRANCH   3   2
ATOM      1  C   UNL     1      -4.393   0.543  25.258  0.00  0.00    +0.253 C 
ATOM      2  O   UNL     1      -4.129  -0.239  25.257  0.00  0.00    -0.468 OA
ENDBRANCH   3   2
BRANCH   8   9
ATOM      9  O   UNL     1      -3.676  -1.674  24.578  0.00  0.00    -0.468 OA
ATOM     10  C   UNL     1      -3.470  -2.468  24.492  0.00  0.00    +0.253 C 
ENDBRANCH   8   9
ENDBRANCH  11   6
BRANCH  16  18
ATOM     18  C   UNL     1       1.186  -0.111  22.957  0.00  0.00    +0.228 A 
ATOM     19  N   UNL     1       1.334  -0.216  22.152  0.00  0.00    -0.111 NA
ATOM     20  N   UNL     1       2.142  -0.106  22.025  0.00  0.00    -0.107 NA
ATOM     21  C   UNL     1       2.493   0.067  22.751  0.00  0.00    +0.250 A 
ATOM     22  O   UNL     1       1.903   0.064  23.327  0.00  0.00    -0.419 OA
BRANCH  21  23
ATOM     23  C   UNL     1       3.295   0.218  22.879  0.00  0.00    +0.058 A 
ATOM     24  C   UNL     1       3.776  -0.366  23.207  0.00  0.00    +0.025 A 
ATOM     25  C   UNL     1       4.578  -0.215  23.335  0.00  0.00    +0.099 A 
ATOM     26  N   UNL     1       4.897   0.518  23.134  0.00  0.00    -0.242 NA
ATOM     27  C   UNL     1       4.415   1.101  22.805  0.00  0.00    +0.099 A 
ATOM     28  C   UNL     1       3.614   0.951  22.677  0.00  0.00    +0.025 A 
ENDBRANCH  21  23
ENDBRANCH  16  18
TORSDOF 5
ENDMDL
MODEL 5
REMARK VINA RESULT:      -6.6     16.796     18.594
REMARK  Name = 
REMARK  5 active torsions:
REMARK  status: ('A' for Active; 'I' for Inactive)
REMARK    1  A    between atoms: O_2  and  C_3
REMARK    2  A    between atoms: C_6  and  C_11
REMARK    3  A    between atoms: C_8  and  O_9
REMARK    4  A    between atoms: C_16  and  C_18
REMARK    5  A    between atoms: C_21  and  C_23
REMARK                            x       y       z     vdW  Elec       q    Type
REMARK                         _______ _______ _______ _____ _____    ______ ____
ROOT
ATOM     11  C   UNL     1      -3.785 -10.221  10.575  0.00  0.00    +0.249 C 
ATOM     12  O   UNL     1      -3.691 -10.764   9.960  0.00  0.00    -0.270 OA
ATOM     13  N   UNL     1      -4.383  -9.654  10.537  0.00  0.00    -0.276 N 
ATOM     14  C   UNL     1      -4.541  -9.079  11.107  0.00  0.00    +0.094 C 
ATOM     15  C   UNL     1      -5.184  -8.632  10.846  0.00  0.00    +0.033 C 
ATOM     16  C   UNL     1      -5.421  -8.931  10.114  0.00  0.00    +0.100 C 
ATOM     17  C   UNL     1      -4.925  -9.563   9.924  0.00  0.00    +0.103 C 
ENDROOT
BRANCH  11   6
ATOM      3  C   UNL     1      -2.271 -10.297  12.532  0.00  0.00    +0.172 A 
ATOM      4  C   UNL     1      -3.039 -10.592  12.593  0.00  0.00    +0.040 A 
ATOM      5  C   UNL     1      -3.544 -10.567  11.940  0.00  0.00    +0.008 A 
ATOM      6  C   UNL     1      -3.280 -10.246  11.227  0.00  0.00    +0.057 A 
ATOM      7  C   UNL     1      -2.512  -9.951  11.167  0.00  0.00    +0.045 A 
ATOM      8  C   UNL     1      -2.008  -9.976  11.819  0.00  0.00    +0.173 A 
BRANCH   3   2
ATOM      1  C   UNL     1      -2.062 -10.531  13.926  0.00  0.00    +0.253 C 
ATOM      2  O   UNL     1      -1.767 -10.322  13.184  0.00  0.00    -0.468 OA
ENDBRANCH   3   2
BRANCH   8   9
ATOM      9  O   UNL     1      -1.239  -9.680  11.758  0.00  0.00    -0.468 OA
ATOM     10  C   UNL     1      -1.034  -9.192  11.125  0.00  0.00    +0.253 C 
ENDBRANCH   8   9
ENDBRANCH  11   6
BRANCH  16  18
ATOM     18  C   UNL     1      -6.044  -8.648   9.654  0.00  0.00    +0.228 A 
ATOM     19  N   UNL     1      -5.982  -8.341   8.890  0.00  0.00    -0.111 NA
ATOM     20  N   UNL     1      -6.738  -8.125   8.640  0.00  0.00    -0.107 NA
ATOM     21  C   UNL     1      -7.267  -8.298   9.249  0.00  0.00    +0.250 A 
ATOM     22  O   UNL     1      -6.838  -8.621   9.876  0.00  0.00    -0.419 OA
BRANCH  21  23
ATOM     23  C   UNL     1      -8.082  -8.170   9.234  0.00  0.00    +0.058 A 
ATOM     24  C   UNL     1      -8.588  -8.690   9.628  0.00  0.00    +0.025 A 
ATOM     25  C   UNL     1      -9.403  -8.562   9.613  0.00  0.00    +0.099 A 
ATOM     26  N   UNL     1      -9.712  -7.916   9.205  0.00  0.00    -0.242 NA
ATOM     27  C   UNL     1      -9.206  -7.396   8.812  0.00  0.00    +0.099 A 
ATOM     28  C   UNL     1      -8.391  -7.523   8.826  0.00  0.00    +0.025 A 
ENDBRANCH  21  23
ENDBRANCH  16  18
TORSDOF 5
ENDMDL
MODEL 6
REMARK VINA RESULT:      -6.6     14.318     15.364
REMARK  Name = 
REMARK  5 active torsions:
REMARK  status: ('A' for Active; 'I' for Inactive)
REMARK    1  A    between atoms: O_2  and  C_3
REMARK    2  A    between atoms: C_6  and  C_11
REMARK    3  A    between atoms: C_8  and  O_9
REMARK    4  A    between atoms: C_16  and  C_18
REMARK    5  A    between atoms: C_21  and  C_23
REMARK                            x       y       z     vdW  Elec       q    Type
REMARK                         _______ _______ _______ _____ _____    ______ ____
ROOT
ATOM     11  C   UNL     1      -7.292  -9.990  17.593  0.00  0.00    +0.249 C 
ATOM     12  O   UNL     1      -7.192  -9.936  18.410  0.00  0.00    -0.270 OA
ATOM     13  N   UNL     1      -6.641 -10.129  17.106  0.00  0.00    -0.276 N 
ATOM     14  C   UNL     1      -6.657 -10.196  16.284  0.00  0.00    +0.094 C 
ATOM     15  C   UNL     1      -5.885 -10.333  16.025  0.00  0.00    +0.033 C 
ATOM     16  C   UNL     1      -5.393 -10.351  16.687  0.00  0.00    +0.100 C 
ATOM     17  C   UNL     1      -5.861 -10.224  17.355  0.00  0.00    +0.103 C 
ENDROOT
BRANCH  11   6
ATOM      3  C   UNL     1      -9.547  -9.736  16.603  0.00  0.00    +0.172 A 
ATOM      4  C   UNL     1      -9.241 -10.489  16.746  0.00  0.00    +0.040 A 
ATOM      5  C   UNL     1      -8.489 -10.574  17.076  0.00  0.00    +0.008 A 
ATOM      6  C   UNL     1      -8.044  -9.905  17.263  0.00  0.00    +0.057 A 
ATOM      7  C   UNL     1      -8.350  -9.152  17.120  0.00  0.00    +0.045 A 
ATOM      8  C   UNL     1      -9.100  -9.068  16.791  0.00  0.00    +0.173 A 
BRANCH   3   2
ATOM      1  C   UNL     1     -10.673 -10.302  15.929  0.00  0.00    +0.253 C 
ATOM      2  O   UNL     1     -10.298  -9.652  16.274  0.00  0.00    -0.468 OA
ENDBRANCH   3   2
BRANCH   8   9
ATOM      9  O   UNL     1      -9.406  -8.314  16.648  0.00  0.00    -0.468 OA
ATOM     10  C   UNL     1      -9.481  -7.775  17.269  0.00  0.00    +0.253 C 
ENDBRANCH   8   9
ENDBRANCH  11   6
BRANCH  16  18
ATOM     18  C   UNL     1      -4.578 -10.473  16.682  0.00  0.00    +0.228 A 
ATOM     19  N   UNL     1      -4.110 -10.647  17.340  0.00  0.00    -0.111 NA
ATOM     20  N   UNL     1      -3.330 -10.725  17.084  0.00  0.00    -0.107 NA
ATOM     21  C   UNL     1      -3.315 -10.600  16.268  0.00  0.00    +0.250 A 
ATOM     22  O   UNL     1      -4.087 -10.444  16.020  0.00  0.00    -0.419 OA
BRANCH  21  23
ATOM     23  C   UNL     1      -2.646 -10.625  15.785  0.00  0.00    +0.058 A 
ATOM     24  C   UNL     1      -2.727 -10.569  14.966  0.00  0.00    +0.025 A 
ATOM     25  C   UNL     1      -2.058 -10.594  14.483  0.00  0.00    +0.099 A 
ATOM     26  N   UNL     1      -1.309 -10.676  14.820  0.00  0.00    -0.242 NA
ATOM     27  C   UNL     1      -1.229 -10.733  15.639  0.00  0.00    +0.099 A 
ATOM     28  C   UNL     1      -1.897 -10.707  16.122  0.00  0.00    +0.025 A 
ENDBRANCH  21  23
ENDBRANCH  16  18
TORSDOF 5
ENDMDL
MODEL 7
REMARK VINA RESULT:      -6.4     14.633     16.051
REMARK  Name = 
REMARK  5 active torsions:
REMARK  status: ('A' for Active; 'I' for Inactive)
REMARK    1  A    between atoms: O_2  and  C_3
REMARK    2  A    between atoms: C_6  and  C_11
REMARK    3  A    between atoms: C_8  and  O_9
REMARK    4  A    between atoms: C_16  and  C_18
REMARK    5  A    between atoms: C_21  and  C_23
REMARK                            x       y       z     vdW  Elec       q    Type
REMARK                         _______ _______ _______ _____ _____    ______ ____
ROOT
ATOM     11  C   UNL     1      -6.182  -9.675  16.479  0.00  0.00    +0.249 C 
ATOM     12  O   UNL     1      -5.573  -9.194  16.759  0.00  0.00    -0.270 OA
ATOM     13  N   UNL     1      -6.134 -10.005  15.724  0.00  0.00    -0.276 N 
ATOM     14  C   UNL     1      -6.698 -10.494  15.373  0.00  0.00    +0.094 C 
ATOM     15  C   UNL     1      -6.427 -10.695  14.620  0.00  0.00    +0.033 C 
ATOM     16  C   UNL     1      -5.695 -10.331  14.507  0.00  0.00    +0.100 C 
ATOM     17  C   UNL     1      -5.515  -9.904  15.190  0.00  0.00    +0.103 C 
ENDROOT
BRANCH  11   6
ATOM      3  C   UNL     1      -8.155 -10.127  17.905  0.00  0.00    +0.172 A 
ATOM      4  C   UNL     1      -7.530 -10.665  17.882  0.00  0.00    +0.040 A 
ATOM      5  C   UNL     1      -6.872 -10.515  17.407  0.00  0.00    +0.008 A 
ATOM      6  C   UNL     1      -6.840  -9.825  16.954  0.00  0.00    +0.057 A 
ATOM      7  C   UNL     1      -7.465  -9.287  16.977  0.00  0.00    +0.045 A 
ATOM      8  C   UNL     1      -8.122  -9.438  17.452  0.00  0.00    +0.173 A 
BRANCH   3   2
ATOM      1  C   UNL     1      -8.741 -10.772  19.037  0.00  0.00    +0.253 C 
ATOM      2  O   UNL     1      -8.812 -10.277  18.380  0.00  0.00    -0.468 OA
ENDBRANCH   3   2
BRANCH   8   9
ATOM      9  O   UNL     1      -8.747  -8.899  17.474  0.00  0.00    -0.468 OA
ATOM     10  C   UNL     1      -8.937  -8.460  16.802  0.00  0.00    +0.253 C 
ENDBRANCH   8   9
ENDBRANCH  11   6
BRANCH  16  18
ATOM     18  C   UNL     1      -5.226 -10.383  13.831  0.00  0.00    +0.228 A 
ATOM     19  N   UNL     1      -5.495 -10.352  13.051  0.00  0.00    -0.111 NA
ATOM     20  N   UNL     1      -4.842 -10.426  12.553  0.00  0.00    -0.107 NA
ATOM     21  C   UNL     1      -4.169 -10.503  13.025  0.00  0.00    +0.250 A 
ATOM     22  O   UNL     1      -4.407 -10.476  13.814  0.00  0.00    -0.419 OA
BRANCH  21  23
ATOM     23  C   UNL     1      -3.394 -10.590  12.754  0.00  0.00    +0.058 A 
ATOM     24  C   UNL     1      -3.243 -10.642  11.945  0.00  0.00    +0.025 A 
ATOM     25  C   UNL     1      -2.468 -10.730  11.674  0.00  0.00    +0.099 A 
ATOM     26  N   UNL     1      -1.845 -10.766  12.213  0.00  0.00    -0.242 NA
ATOM     27  C   UNL     1      -1.996 -10.713  13.023  0.00  0.00    +0.099 A 
ATOM     28  C   UNL     1      -2.770 -10.626  13.293  0.00  0.00    +0.025 A 
ENDBRANCH  21  23
ENDBRANCH  16  18
TORSDOF 5
ENDMDL
MODEL 8
REMARK VINA RESULT:      -6.1     14.572     16.696
REMARK  Name = 
REMARK  5 active torsions:
REMARK  status: ('A' for Active; 'I' for Inactive)
REMARK    1  A    between atoms: O_2  and  C_3
REMARK    2  A    between atoms: C_6  and  C_11
REMARK    3  A    between atoms: C_8  and  O_9
REMARK    4  A    between atoms: C_16  and  C_18
REMARK    5  A    between atoms: C_21  and  C_23
REMARK                            x       y       z     vdW  Elec       q    Type
REMARK                         _______ _______ _______ _____ _____    ______ ____
ROOT
ATOM     11  C   UNL     1      -7.431 -10.423  15.037  0.00  0.00    +0.249 C 
ATOM     12  O   UNL     1      -8.128 -10.711  14.703  0.00  0.00    -0.270 OA
ATOM     13  N   UNL     1      -6.769 -10.291  14.562  0.00  0.00    -0.276 N 
ATOM     14  C   UNL     1      -6.039 -10.006  14.819  0.00  0.00    +0.094 C 
ATOM     15  C   UNL     1      -5.540  -9.959  14.163  0.00  0.00    +0.033 C 
ATOM     16  C   UNL     1      -5.963 -10.215  13.502  0.00  0.00    +0.100 C 
ATOM     17  C   UNL     1      -6.723 -10.420  13.750  0.00  0.00    +0.103 C 
ENDROOT
BRANCH  11   6
ATOM      3  C   UNL     1      -7.326  -9.957  17.466  0.00  0.00    +0.172 A 
ATOM      4  C   UNL     1      -6.954 -10.625  17.158  0.00  0.00    +0.040 A 
ATOM      5  C   UNL     1      -6.989 -10.781  16.348  0.00  0.00    +0.008 A 
ATOM      6  C   UNL     1      -7.396 -10.268  15.847  0.00  0.00    +0.057 A 
ATOM      7  C   UNL     1      -7.769  -9.599  16.155  0.00  0.00    +0.045 A 
ATOM      8  C   UNL     1      -7.733  -9.444  16.964  0.00  0.00    +0.173 A 
BRANCH   3   2
ATOM      1  C   UNL     1      -6.817 -10.268  18.764  0.00  0.00    +0.253 C 
ATOM      2  O   UNL     1      -7.291  -9.802  18.275  0.00  0.00    -0.468 OA
ENDBRANCH   3   2
BRANCH   8   9
ATOM      9  O   UNL     1      -8.106  -8.774  17.272  0.00  0.00    -0.468 OA
ATOM     10  C   UNL     1      -8.813  -8.507  16.941  0.00  0.00    +0.253 C 
ENDBRANCH   8   9
ENDBRANCH  11   6
BRANCH  16  18
ATOM     18  C   UNL     1      -5.676 -10.258  12.730  0.00  0.00    +0.228 A 
ATOM     19  N   UNL     1      -5.938 -10.777  12.144  0.00  0.00    -0.111 NA
ATOM     20  N   UNL     1      -5.501 -10.631  11.460  0.00  0.00    -0.107 NA
ATOM     21  C   UNL     1      -4.969 -10.021  11.623  0.00  0.00    +0.250 A 
ATOM     22  O   UNL     1      -5.078  -9.791  12.408  0.00  0.00    -0.419 OA
BRANCH  21  23
ATOM     23  C   UNL     1      -4.425  -9.698  11.093  0.00  0.00    +0.058 A 
ATOM     24  C   UNL     1      -4.654  -9.087  10.589  0.00  0.00    +0.025 A 
ATOM     25  C   UNL     1      -4.109  -8.764  10.059  0.00  0.00    +0.099 A 
ATOM     26  N   UNL     1      -3.337  -9.052  10.035  0.00  0.00    -0.242 NA
ATOM     27  C   UNL     1      -3.109  -9.664  10.539  0.00  0.00    +0.099 A 
ATOM     28  C   UNL     1      -3.652  -9.987  11.068  0.00  0.00    +0.025 A 
ENDBRANCH  21  23
ENDBRANCH  16  18
TORSDOF 5
ENDMDL
