REMARK  Name = 
REMARK  3 active torsions:
REMARK  status: ('A' for Active; 'I' for Inactive)
REMARK    1  A    between atoms: C_2  and  C_3
REMARK    2  A    between atoms: N_13  and  C_14
REMARK    3  A    between atoms: C_14  and  C_15
REMARK                            x       y       z     vdW  Elec       q    Type
REMARK                         _______ _______ _______ _____ _____    ______ ____
ROOT
ATOM      1  O   UNL     1      -0.223  -2.769   0.000  0.00  0.00    -0.275 OA
ATOM      2  C   UNL     1      -0.223  -1.944   0.000  0.00  0.00    +0.225 C 
ATOM      6  N   UNL     1       0.492  -1.532   0.000  0.00  0.00    -0.280 N 
ATOM      7  C   UNL     1       0.492  -0.707   0.000  0.00  0.00    +0.093 C 
ATOM      8  C   UNL     1       1.206  -0.294   0.000  0.00  0.00    +0.022 C 
ATOM      9  C   UNL     1       1.921  -0.707   0.000  0.00  0.00    +0.012 C 
ATOM     10  C   UNL     1       2.566  -0.192   0.000  0.00  0.00    +0.085 C 
ATOM     11  C   UNL     1       3.370  -0.376   0.000  0.00  0.00    +0.226 C 
ATOM     12  O   UNL     1       3.884   0.269   0.000  0.00  0.00    -0.275 OA
ATOM     13  N   UNL     1       3.728  -1.119   0.000  0.00  0.00    -0.275 N 
ATOM     24  C   UNL     1       3.370  -1.862   0.000  0.00  0.00    +0.094 C 
ATOM     25  C   UNL     1       2.566  -2.046   0.000  0.00  0.00    +0.023 C 
ATOM     26  C   UNL     1       1.921  -1.532   0.000  0.00  0.00    +0.022 C 
ATOM     27  C   UNL     1       1.206  -1.944   0.000  0.00  0.00    +0.093 C 
ENDROOT
BRANCH   2   3
ATOM      3  C   UNL     1      -0.937  -1.532   0.000  0.00  0.00    +0.077 C 
ATOM      4  C   UNL     1      -1.762  -1.532   0.000  0.00  0.00    +0.010 C 
ATOM      5  C   UNL     1      -1.350  -0.817   0.000  0.00  0.00    +0.010 C 
ENDBRANCH   2   3
BRANCH  13  14
ATOM     14  C   UNL     1       4.553  -1.119   0.000  0.00  0.00    +0.120 C 
BRANCH  14  15
ATOM     15  C   UNL     1       4.965  -1.834   0.000  0.00  0.00    +0.001 A 
ATOM     16  C   UNL     1       5.790  -1.834   0.000  0.00  0.00    +0.001 A 
ATOM     17  C   UNL     1       6.203  -2.548   0.000  0.00  0.00    +0.040 A 
ATOM     18  C   UNL     1       5.790  -3.263   0.000  0.00  0.00    +0.176 A 
ATOM     19  O   UNL     1       6.045  -4.047   0.000  0.00  0.00    -0.435 OA
ATOM     20  C   UNL     1       5.378  -4.532   0.000  0.00  0.00    +0.429 C 
ATOM     21  O   UNL     1       4.710  -4.047   0.000  0.00  0.00    -0.435 OA
ATOM     22  C   UNL     1       4.965  -3.263   0.000  0.00  0.00    +0.176 A 
ATOM     23  C   UNL     1       4.553  -2.548   0.000  0.00  0.00    +0.038 A 
ENDBRANCH  14  15
ENDBRANCH  13  14
TORSDOF 3
