REMARK  Name = 
REMARK  9 active torsions:
REMARK  status: ('A' for Active; 'I' for Inactive)
REMARK    1  A    between atoms: O_2  and  C_3
REMARK    2  A    between atoms: C_3  and  C_4
REMARK    3  A    between atoms: C_4  and  N_5
REMARK    4  A    between atoms: N_5  and  C_6
REMARK    5  A    between atoms: C_7  and  C_12
REMARK    6  A    between atoms: C_15  and  C_17
REMARK    7  A    between atoms: N_21  and  C_22
REMARK    8  A    between atoms: C_22  and  C_23
REMARK    9  A    between atoms: C_26  and  N_27
REMARK                            x       y       z     vdW  Elec       q    Type
REMARK                         _______ _______ _______ _____ _____    ______ ____
ROOT
ATOM     12  C   UNL     1       0.381  -2.790   0.000  0.00  0.00    +0.206 A 
ATOM     13  N   UNL     1      -0.287  -3.275   0.000  0.00  0.00    -0.056 NA
ATOM     14  O   UNL     1      -0.032  -4.060   0.000  0.00  0.00    -0.336 OA
ATOM     15  C   UNL     1       0.793  -4.060   0.000  0.00  0.00    +0.251 A 
ATOM     16  N   UNL     1       1.048  -3.275   0.000  0.00  0.00    -0.190 NA
ENDROOT
BRANCH  12   7
ATOM      6  C   UNL     1       1.095  -1.553   0.000  0.00  0.00    +0.151 A 
ATOM      7  C   UNL     1       0.381  -1.965   0.000  0.00  0.00    +0.072 A 
ATOM      8  C   UNL     1      -0.334  -1.553   0.000  0.00  0.00    +0.008 A 
ATOM      9  C   UNL     1      -0.334  -0.728   0.000  0.00  0.00    +0.021 A 
ATOM     10  C   UNL     1       0.381  -0.315   0.000  0.00  0.00    +0.100 A 
ATOM     11  N   UNL     1       1.095  -0.728   0.000  0.00  0.00    -0.228 NA
BRANCH   6   5
ATOM      5  N   UNL     1       1.810  -1.965   0.000  0.00  0.00    -0.218 NA
BRANCH   5   4
ATOM      4  C   UNL     1       2.524  -1.553   0.000  0.00  0.00    +0.146 C 
BRANCH   4   3
ATOM      3  C   UNL     1       3.238  -1.965   0.000  0.00  0.00    +0.166 C 
BRANCH   3   2
ATOM      1  C   UNL     1       4.667  -1.965   0.000  0.00  0.00    +0.174 C 
ATOM      2  O   UNL     1       3.953  -1.553   0.000  0.00  0.00    -0.349 OA
ENDBRANCH   3   2
ENDBRANCH   4   3
ENDBRANCH   5   4
ENDBRANCH   6   5
ENDBRANCH  12   7
BRANCH  15  17
ATOM     17  C   UNL     1       1.278  -4.727   0.000  0.00  0.00    +0.138 C 
ATOM     18  C   UNL     1       1.023  -5.512   0.000  0.00  0.00    +0.027 C 
ATOM     19  C   UNL     1       1.690  -5.997   0.000  0.00  0.00    +0.019 C 
ATOM     20  C   UNL     1       2.358  -5.512   0.000  0.00  0.00    +0.073 C 
ATOM     21  N   UNL     1       2.103  -4.727   0.000  0.00  0.00    -0.263 NA
BRANCH  21  22
ATOM     22  C   UNL     1       2.588  -4.060   0.000  0.00  0.00    +0.099 C 
BRANCH  22  23
ATOM     23  C   UNL     1       3.408  -4.146   0.000  0.00  0.00    -0.006 A 
ATOM     24  C   UNL     1       3.893  -3.479   0.000  0.00  0.00    -0.002 A 
ATOM     25  C   UNL     1       4.714  -3.565   0.000  0.00  0.00    +0.016 A 
ATOM     26  C   UNL     1       5.049  -4.319   0.000  0.00  0.00    +0.073 A 
ATOM     31  C   UNL     1       4.564  -4.986   0.000  0.00  0.00    +0.016 A 
ATOM     32  C   UNL     1       3.744  -4.900   0.000  0.00  0.00    -0.002 A 
BRANCH  26  27
ATOM     27  N   UNL     1       5.870  -4.405   0.000  0.00  0.00    -0.179 NA
ATOM     28  C   UNL     1       6.355  -3.737   0.000  0.00  0.00    +0.246 C 
ATOM     29  C   UNL     1       6.019  -2.984   0.000  0.00  0.00    +0.097 C 
ATOM     30  O   UNL     1       7.175  -3.824   0.000  0.00  0.00    -0.273 OA
ENDBRANCH  26  27
ENDBRANCH  22  23
ENDBRANCH  21  22
ENDBRANCH  15  17
TORSDOF 9
