MODEL 1
REMARK VINA RESULT:     -10.2      0.000      0.000
REMARK  Name = 
REMARK  9 active torsions:
REMARK  status: ('A' for Active; 'I' for Inactive)
REMARK    1  A    between atoms: O_2  and  C_3
REMARK    2  A    between atoms: C_3  and  C_4
REMARK    3  A    between atoms: C_4  and  O_5
REMARK    4  A    between atoms: O_5  and  C_6
REMARK    5  A    between atoms: C_8  and  C_12
REMARK    6  A    between atoms: C_15  and  C_17
REMARK    7  A    between atoms: N_21  and  C_22
REMARK    8  A    between atoms: C_22  and  C_23
REMARK    9  A    between atoms: C_25  and  O_26
REMARK                            x       y       z     vdW  Elec       q    Type
REMARK                         _______ _______ _______ _____ _____    ______ ____
ROOT
ATOM     12  C   UNL     1      -0.855   2.619  25.338  0.00  0.00    +0.204 A 
ATOM     13  N   UNL     1      -0.347   2.314  25.913  0.00  0.00    -0.056 NA
ATOM     14  O   UNL     1      -0.048   1.597  25.635  0.00  0.00    -0.336 OA
ATOM     15  C   UNL     1      -0.372   1.458  24.889  0.00  0.00    +0.251 A 
ATOM     16  N   UNL     1      -0.870   2.089  24.706  0.00  0.00    -0.190 NA
ENDROOT
BRANCH  12   8
ATOM      6  C   UNL     1      -2.470   4.037  25.716  0.00  0.00    +0.225 A 
ATOM      7  C   UNL     1      -2.051   3.328  25.666  0.00  0.00    +0.061 A 
ATOM      8  C   UNL     1      -1.274   3.327  25.387  0.00  0.00    +0.045 A 
ATOM      9  C   UNL     1      -0.917   4.034  25.158  0.00  0.00    +0.024 A 
ATOM     10  C   UNL     1      -1.336   4.743  25.207  0.00  0.00    +0.102 A 
ATOM     11  N   UNL     1      -2.112   4.745  25.486  0.00  0.00    -0.210 NA
BRANCH   6   5
ATOM      5  O   UNL     1      -3.246   4.040  25.995  0.00  0.00    -0.457 OA
BRANCH   5   4
ATOM      4  C   UNL     1      -3.862   3.793  25.504  0.00  0.00    +0.239 C 
BRANCH   4   3
ATOM      3  C   UNL     1      -4.614   3.668  25.819  0.00  0.00    +0.189 C 
BRANCH   3   2
ATOM      1  C   UNL     1      -5.733   2.818  25.555  0.00  0.00    +0.174 C 
ATOM      2  O   UNL     1      -5.233   3.433  25.326  0.00  0.00    -0.347 OA
ENDBRANCH   3   2
ENDBRANCH   4   3
ENDBRANCH   5   4
ENDBRANCH   6   5
ENDBRANCH  12   8
BRANCH  15  17
ATOM     17  C   UNL     1      -0.223   0.803  24.411  0.00  0.00    +0.138 C 
ATOM     18  C   UNL     1       0.296   0.778  23.769  0.00  0.00    +0.027 C 
ATOM     19  C   UNL     1       0.272   0.017  23.451  0.00  0.00    +0.019 C 
ATOM     20  C   UNL     1      -0.260  -0.429  23.896  0.00  0.00    +0.073 C 
ATOM     21  N   UNL     1      -0.567   0.057  24.489  0.00  0.00    -0.263 NA
BRANCH  21  22
ATOM     22  C   UNL     1      -1.119  -0.165  25.059  0.00  0.00    +0.100 C 
BRANCH  22  23
ATOM     23  C   UNL     1      -1.598  -0.825  24.935  0.00  0.00    -0.003 A 
ATOM     24  C   UNL     1      -2.382  -0.726  24.695  0.00  0.00    +0.034 A 
ATOM     25  C   UNL     1      -2.861  -1.386  24.571  0.00  0.00    +0.138 A 
ATOM     28  C   UNL     1      -2.558  -2.144  24.687  0.00  0.00    +0.037 A 
ATOM     29  C   UNL     1      -1.775  -2.243  24.926  0.00  0.00    +0.003 A 
ATOM     30  C   UNL     1      -1.295  -1.583  25.051  0.00  0.00    -0.003 A 
BRANCH  25  26
ATOM     26  O   UNL     1      -3.645  -1.288  24.332  0.00  0.00    -0.471 OA
ATOM     27  C   UNL     1      -4.038  -1.902  23.947  0.00  0.00    +0.252 C 
ENDBRANCH  25  26
ENDBRANCH  22  23
ENDBRANCH  21  22
ENDBRANCH  15  17
TORSDOF 9
ENDMDL
MODEL 2
REMARK VINA RESULT:     -10.2      1.657      3.735
REMARK  Name = 
REMARK  9 active torsions:
REMARK  status: ('A' for Active; 'I' for Inactive)
REMARK    1  A    between atoms: O_2  and  C_3
REMARK    2  A    between atoms: C_3  and  C_4
REMARK    3  A    between atoms: C_4  and  O_5
REMARK    4  A    between atoms: O_5  and  C_6
REMARK    5  A    between atoms: C_8  and  C_12
REMARK    6  A    between atoms: C_15  and  C_17
REMARK    7  A    between atoms: N_21  and  C_22
REMARK    8  A    between atoms: C_22  and  C_23
REMARK    9  A    between atoms: C_25  and  O_26
REMARK                            x       y       z     vdW  Elec       q    Type
REMARK                         _______ _______ _______ _____ _____    ______ ____
ROOT
ATOM     12  C   UNL     1      -3.115   3.423  24.725  0.00  0.00    +0.204 A 
ATOM     13  N   UNL     1      -3.583   3.602  24.069  0.00  0.00    -0.056 NA
ATOM     14  O   UNL     1      -4.263   3.136  24.105  0.00  0.00    -0.336 OA
ATOM     15  C   UNL     1      -4.215   2.668  24.783  0.00  0.00    +0.251 A 
ATOM     16  N   UNL     1      -3.506   2.846  25.166  0.00  0.00    -0.190 NA
ENDROOT
BRANCH  12   8
ATOM      6  C   UNL     1      -0.979   3.629  25.122  0.00  0.00    +0.225 A 
ATOM      7  C   UNL     1      -1.709   3.290  24.940  0.00  0.00    +0.061 A 
ATOM      8  C   UNL     1      -2.385   3.762  24.908  0.00  0.00    +0.045 A 
ATOM      9  C   UNL     1      -2.333   4.571  25.058  0.00  0.00    +0.024 A 
ATOM     10  C   UNL     1      -1.603   4.909  25.240  0.00  0.00    +0.102 A 
ATOM     11  N   UNL     1      -0.926   4.439  25.272  0.00  0.00    -0.210 NA
BRANCH   6   5
ATOM      5  O   UNL     1      -0.302   3.159  25.155  0.00  0.00    -0.457 OA
BRANCH   5   4
ATOM      4  C   UNL     1      -0.107   2.671  24.519  0.00  0.00    +0.239 C 
BRANCH   4   3
ATOM      3  C   UNL     1       0.390   2.022  24.635  0.00  0.00    +0.189 C 
BRANCH   3   2
ATOM      1  C   UNL     1       0.785   0.929  23.804  0.00  0.00    +0.174 C 
ATOM      2  O   UNL     1       0.835   1.727  24.006  0.00  0.00    -0.347 OA
ENDBRANCH   3   2
ENDBRANCH   4   3
ENDBRANCH   5   4
ENDBRANCH   6   5
ENDBRANCH  12   8
BRANCH  15  17
ATOM     17  C   UNL     1      -4.777   2.119  25.035  0.00  0.00    +0.138 C 
ATOM     18  C   UNL     1      -5.482   2.292  25.428  0.00  0.00    +0.027 C 
ATOM     19  C   UNL     1      -5.874   1.580  25.573  0.00  0.00    +0.019 C 
ATOM     20  C   UNL     1      -5.411   0.968  25.270  0.00  0.00    +0.073 C 
ATOM     21  N   UNL     1      -4.733   1.301  24.937  0.00  0.00    -0.263 NA
BRANCH  21  22
ATOM     22  C   UNL     1      -4.121   0.888  24.571  0.00  0.00    +0.100 C 
BRANCH  22  23
ATOM     23  C   UNL     1      -4.020   0.083  24.718  0.00  0.00    -0.003 A 
ATOM     24  C   UNL     1      -4.260  -0.472  24.157  0.00  0.00    +0.034 A 
ATOM     25  C   UNL     1      -4.160  -1.277  24.304  0.00  0.00    +0.138 A 
ATOM     28  C   UNL     1      -3.819  -1.528  25.012  0.00  0.00    +0.037 A 
ATOM     29  C   UNL     1      -3.578  -0.974  25.573  0.00  0.00    +0.003 A 
ATOM     30  C   UNL     1      -3.679  -0.168  25.426  0.00  0.00    -0.003 A 
BRANCH  25  26
ATOM     26  O   UNL     1      -4.400  -1.833  23.743  0.00  0.00    -0.471 OA
ATOM     27  C   UNL     1      -4.132  -2.611  23.792  0.00  0.00    +0.252 C 
ENDBRANCH  25  26
ENDBRANCH  22  23
ENDBRANCH  21  22
ENDBRANCH  15  17
TORSDOF 9
ENDMDL
MODEL 3
REMARK VINA RESULT:      -9.8      0.901      4.633
REMARK  Name = 
REMARK  9 active torsions:
REMARK  status: ('A' for Active; 'I' for Inactive)
REMARK    1  A    between atoms: O_2  and  C_3
REMARK    2  A    between atoms: C_3  and  C_4
REMARK    3  A    between atoms: C_4  and  O_5
REMARK    4  A    between atoms: O_5  and  C_6
REMARK    5  A    between atoms: C_8  and  C_12
REMARK    6  A    between atoms: C_15  and  C_17
REMARK    7  A    between atoms: N_21  and  C_22
REMARK    8  A    between atoms: C_22  and  C_23
REMARK    9  A    between atoms: C_25  and  O_26
REMARK                            x       y       z     vdW  Elec       q    Type
REMARK                         _______ _______ _______ _____ _____    ______ ____
ROOT
ATOM     12  C   UNL     1      -0.295   1.703  24.956  0.00  0.00    +0.204 A 
ATOM     13  N   UNL     1       0.063   1.931  25.665  0.00  0.00    -0.056 NA
ATOM     14  O   UNL     1      -0.182   2.700  25.838  0.00  0.00    -0.336 OA
ATOM     15  C   UNL     1      -0.690   2.947  25.236  0.00  0.00    +0.251 A 
ATOM     16  N   UNL     1      -0.759   2.331  24.692  0.00  0.00    -0.190 NA
ENDROOT
BRANCH  12   8
ATOM      6  C   UNL     1      -0.488  -0.423  24.503  0.00  0.00    +0.225 A 
ATOM      7  C   UNL     1      -0.580   0.305  24.880  0.00  0.00    +0.061 A 
ATOM      8  C   UNL     1      -0.203   0.975  24.579  0.00  0.00    +0.045 A 
ATOM      9  C   UNL     1       0.266   0.918  23.903  0.00  0.00    +0.024 A 
ATOM     10  C   UNL     1       0.358   0.189  23.526  0.00  0.00    +0.102 A 
ATOM     11  N   UNL     1      -0.019  -0.481  23.825  0.00  0.00    -0.210 NA
BRANCH   6   5
ATOM      5  O   UNL     1      -0.864  -1.093  24.802  0.00  0.00    -0.457 OA
BRANCH   5   4
ATOM      4  C   UNL     1      -1.547  -1.380  24.439  0.00  0.00    +0.239 C 
BRANCH   4   3
ATOM      3  C   UNL     1      -1.966  -2.001  24.783  0.00  0.00    +0.189 C 
BRANCH   3   2
ATOM      1  C   UNL     1      -3.278  -2.567  24.749  0.00  0.00    +0.174 C 
ATOM      2  O   UNL     1      -2.576  -2.369  24.366  0.00  0.00    -0.347 OA
ENDBRANCH   3   2
ENDBRANCH   4   3
ENDBRANCH   5   4
ENDBRANCH   6   5
ENDBRANCH  12   8
BRANCH  15  17
ATOM     17  C   UNL     1      -1.063   3.681  25.188  0.00  0.00    +0.138 C 
ATOM     18  C   UNL     1      -0.730   4.376  24.890  0.00  0.00    +0.027 C 
ATOM     19  C   UNL     1      -1.296   4.974  24.947  0.00  0.00    +0.019 C 
ATOM     20  C   UNL     1      -1.978   4.650  25.278  0.00  0.00    +0.073 C 
ATOM     21  N   UNL     1      -1.834   3.851  25.427  0.00  0.00    -0.263 NA
BRANCH  21  22
ATOM     22  C   UNL     1      -2.368   3.316  25.758  0.00  0.00    +0.100 C 
BRANCH  22  23
ATOM     23  C   UNL     1      -3.179   3.434  25.669  0.00  0.00    -0.003 A 
ATOM     24  C   UNL     1      -3.597   3.014  25.094  0.00  0.00    +0.034 A 
ATOM     25  C   UNL     1      -4.408   3.132  25.005  0.00  0.00    +0.138 A 
ATOM     28  C   UNL     1      -4.802   3.670  25.490  0.00  0.00    +0.037 A 
ATOM     29  C   UNL     1      -4.385   4.090  26.065  0.00  0.00    +0.003 A 
ATOM     30  C   UNL     1      -3.573   3.972  26.154  0.00  0.00    -0.003 A 
BRANCH  25  26
ATOM     26  O   UNL     1      -4.826   2.712  24.430  0.00  0.00    -0.471 OA
ATOM     27  C   UNL     1      -5.332   2.100  24.654  0.00  0.00    +0.252 C 
ENDBRANCH  25  26
ENDBRANCH  22  23
ENDBRANCH  21  22
ENDBRANCH  15  17
TORSDOF 9
ENDMDL
MODEL 4
REMARK VINA RESULT:      -9.8      1.717      3.451
REMARK  Name = 
REMARK  9 active torsions:
REMARK  status: ('A' for Active; 'I' for Inactive)
REMARK    1  A    between atoms: O_2  and  C_3
REMARK    2  A    between atoms: C_3  and  C_4
REMARK    3  A    between atoms: C_4  and  O_5
REMARK    4  A    between atoms: O_5  and  C_6
REMARK    5  A    between atoms: C_8  and  C_12
REMARK    6  A    between atoms: C_15  and  C_17
REMARK    7  A    between atoms: N_21  and  C_22
REMARK    8  A    between atoms: C_22  and  C_23
REMARK    9  A    between atoms: C_25  and  O_26
REMARK                            x       y       z     vdW  Elec       q    Type
REMARK                         _______ _______ _______ _____ _____    ______ ____
ROOT
ATOM     12  C   UNL     1      -4.645   1.284  25.202  0.00  0.00    +0.204 A 
ATOM     13  N   UNL     1      -4.973   0.810  25.793  0.00  0.00    -0.056 NA
ATOM     14  O   UNL     1      -4.780   0.025  25.627  0.00  0.00    -0.336 OA
ATOM     15  C   UNL     1      -4.333   0.014  24.933  0.00  0.00    +0.251 A 
ATOM     16  N   UNL     1      -4.250   0.793  24.671  0.00  0.00    -0.190 NA
ENDROOT
BRANCH  12   8
ATOM      6  C   UNL     1      -4.117   3.370  24.834  0.00  0.00    +0.225 A 
ATOM      7  C   UNL     1      -4.059   2.548  24.884  0.00  0.00    +0.061 A 
ATOM      8  C   UNL     1      -4.702   2.106  25.152  0.00  0.00    +0.045 A 
ATOM      9  C   UNL     1      -5.401   2.484  25.370  0.00  0.00    +0.024 A 
ATOM     10  C   UNL     1      -5.459   3.305  25.320  0.00  0.00    +0.102 A 
ATOM     11  N   UNL     1      -4.817   3.749  25.052  0.00  0.00    -0.210 NA
BRANCH   6   5
ATOM      5  O   UNL     1      -3.475   3.813  24.566  0.00  0.00    -0.457 OA
BRANCH   5   4
ATOM      4  C   UNL     1      -2.899   4.069  25.098  0.00  0.00    +0.239 C 
BRANCH   4   3
ATOM      3  C   UNL     1      -2.178   4.356  24.818  0.00  0.00    +0.189 C 
BRANCH   3   2
ATOM      1  C   UNL     1      -0.963   5.073  25.050  0.00  0.00    +0.174 C 
ATOM      2  O   UNL     1      -1.724   4.860  25.287  0.00  0.00    -0.347 OA
ENDBRANCH   3   2
ENDBRANCH   4   3
ENDBRANCH   5   4
ENDBRANCH   6   5
ENDBRANCH  12   8
BRANCH  15  17
ATOM     17  C   UNL     1      -4.024  -0.656  24.566  0.00  0.00    +0.138 C 
ATOM     18  C   UNL     1      -4.421  -1.142  24.030  0.00  0.00    +0.027 C 
ATOM     19  C   UNL     1      -3.905  -1.746  23.803  0.00  0.00    +0.019 C 
ATOM     20  C   UNL     1      -3.191  -1.633  24.198  0.00  0.00    +0.073 C 
ATOM     21  N   UNL     1      -3.264  -0.959  24.670  0.00  0.00    -0.263 NA
BRANCH  21  22
ATOM     22  C   UNL     1      -2.679  -0.645  25.160  0.00  0.00    +0.100 C 
BRANCH  22  23
ATOM     23  C   UNL     1      -1.885  -0.808  25.011  0.00  0.00    -0.003 A 
ATOM     24  C   UNL     1      -1.443  -0.302  24.529  0.00  0.00    +0.034 A 
ATOM     25  C   UNL     1      -0.649  -0.465  24.380  0.00  0.00    +0.138 A 
ATOM     28  C   UNL     1      -0.295  -1.132  24.711  0.00  0.00    +0.037 A 
ATOM     29  C   UNL     1      -0.735  -1.637  25.193  0.00  0.00    +0.003 A 
ATOM     30  C   UNL     1      -1.530  -1.474  25.342  0.00  0.00    -0.003 A 
BRANCH  25  26
ATOM     26  O   UNL     1      -0.208   0.041  23.899  0.00  0.00    -0.471 OA
ATOM     27  C   UNL     1       0.443  -0.250  23.484  0.00  0.00    +0.252 C 
ENDBRANCH  25  26
ENDBRANCH  22  23
ENDBRANCH  21  22
ENDBRANCH  15  17
TORSDOF 9
ENDMDL
MODEL 5
REMARK VINA RESULT:      -9.6      1.793      5.639
REMARK  Name = 
REMARK  9 active torsions:
REMARK  status: ('A' for Active; 'I' for Inactive)
REMARK    1  A    between atoms: O_2  and  C_3
REMARK    2  A    between atoms: C_3  and  C_4
REMARK    3  A    between atoms: C_4  and  O_5
REMARK    4  A    between atoms: O_5  and  C_6
REMARK    5  A    between atoms: C_8  and  C_12
REMARK    6  A    between atoms: C_15  and  C_17
REMARK    7  A    between atoms: N_21  and  C_22
REMARK    8  A    between atoms: C_22  and  C_23
REMARK    9  A    between atoms: C_25  and  O_26
REMARK                            x       y       z     vdW  Elec       q    Type
REMARK                         _______ _______ _______ _____ _____    ______ ____
ROOT
ATOM     12  C   UNL     1      -4.019  -0.190  24.711  0.00  0.00    +0.204 A 
ATOM     13  N   UNL     1      -4.532  -0.068  24.076  0.00  0.00    -0.056 NA
ATOM     14  O   UNL     1      -4.902   0.662  24.184  0.00  0.00    -0.336 OA
ATOM     15  C   UNL     1      -4.619   0.990  24.885  0.00  0.00    +0.251 A 
ATOM     16  N   UNL     1      -4.073   0.464  25.211  0.00  0.00    -0.190 NA
ENDROOT
BRANCH  12   8
ATOM      6  C   UNL     1      -2.235  -1.423  24.958  0.00  0.00    +0.225 A 
ATOM      7  C   UNL     1      -2.717  -0.763  24.843  0.00  0.00    +0.061 A 
ATOM      8  C   UNL     1      -3.538  -0.850  24.826  0.00  0.00    +0.045 A 
ATOM      9  C   UNL     1      -3.876  -1.595  24.923  0.00  0.00    +0.024 A 
ATOM     10  C   UNL     1      -3.395  -2.255  25.037  0.00  0.00    +0.102 A 
ATOM     11  N   UNL     1      -2.574  -2.170  25.055  0.00  0.00    -0.210 NA
BRANCH   6   5
ATOM      5  O   UNL     1      -1.415  -1.338  24.975  0.00  0.00    -0.457 OA
BRANCH   5   4
ATOM      4  C   UNL     1      -1.010  -1.100  24.297  0.00  0.00    +0.239 C 
BRANCH   4   3
ATOM      3  C   UNL     1      -0.240  -0.810  24.358  0.00  0.00    +0.189 C 
BRANCH   3   2
ATOM      1  C   UNL     1       0.590  -0.080  23.452  0.00  0.00    +0.174 C 
ATOM      2  O   UNL     1       0.247  -0.790  23.692  0.00  0.00    -0.347 OA
ENDBRANCH   3   2
ENDBRANCH   4   3
ENDBRANCH   5   4
ENDBRANCH   6   5
ENDBRANCH  12   8
BRANCH  15  17
ATOM     17  C   UNL     1      -4.842   1.717  25.205  0.00  0.00    +0.138 C 
ATOM     18  C   UNL     1      -5.510   1.859  25.668  0.00  0.00    +0.027 C 
ATOM     19  C   UNL     1      -5.517   2.659  25.868  0.00  0.00    +0.019 C 
ATOM     20  C   UNL     1      -4.853   3.012  25.528  0.00  0.00    +0.073 C 
ATOM     21  N   UNL     1      -4.436   2.430  25.119  0.00  0.00    -0.263 NA
BRANCH  21  22
ATOM     22  C   UNL     1      -3.736   2.542  24.697  0.00  0.00    +0.100 C 
BRANCH  22  23
ATOM     23  C   UNL     1      -3.197   3.117  24.937  0.00  0.00    -0.003 A 
ATOM     24  C   UNL     1      -2.550   2.907  25.405  0.00  0.00    +0.034 A 
ATOM     25  C   UNL     1      -2.010   3.483  25.645  0.00  0.00    +0.138 A 
ATOM     28  C   UNL     1      -2.117   4.269  25.418  0.00  0.00    +0.037 A 
ATOM     29  C   UNL     1      -2.763   4.479  24.951  0.00  0.00    +0.003 A 
ATOM     30  C   UNL     1      -3.303   3.903  24.710  0.00  0.00    -0.003 A 
BRANCH  25  26
ATOM     26  O   UNL     1      -1.364   3.273  26.113  0.00  0.00    -0.471 OA
ATOM     27  C   UNL     1      -0.659   3.032  25.758  0.00  0.00    +0.252 C 
ENDBRANCH  25  26
ENDBRANCH  22  23
ENDBRANCH  21  22
ENDBRANCH  15  17
TORSDOF 9
ENDMDL
MODEL 6
REMARK VINA RESULT:      -9.2      1.480      4.275
REMARK  Name = 
REMARK  9 active torsions:
REMARK  status: ('A' for Active; 'I' for Inactive)
REMARK    1  A    between atoms: O_2  and  C_3
REMARK    2  A    between atoms: C_3  and  C_4
REMARK    3  A    between atoms: C_4  and  O_5
REMARK    4  A    between atoms: O_5  and  C_6
REMARK    5  A    between atoms: C_8  and  C_12
REMARK    6  A    between atoms: C_15  and  C_17
REMARK    7  A    between atoms: N_21  and  C_22
REMARK    8  A    between atoms: C_22  and  C_23
REMARK    9  A    between atoms: C_25  and  O_26
REMARK                            x       y       z     vdW  Elec       q    Type
REMARK                         _______ _______ _______ _____ _____    ______ ____
ROOT
ATOM     12  C   UNL     1      -4.113   3.275  25.619  0.00  0.00    +0.204 A 
ATOM     13  N   UNL     1      -4.116   3.749  26.295  0.00  0.00    -0.056 NA
ATOM     14  O   UNL     1      -3.417   4.188  26.301  0.00  0.00    -0.336 OA
ATOM     15  C   UNL     1      -2.982   3.984  25.630  0.00  0.00    +0.251 A 
ATOM     16  N   UNL     1      -3.413   3.420  25.209  0.00  0.00    -0.190 NA
ENDROOT
BRANCH  12   8
ATOM      6  C   UNL     1      -5.102   1.504  24.813  0.00  0.00    +0.225 A 
ATOM      7  C   UNL     1      -4.508   2.031  25.038  0.00  0.00    +0.061 A 
ATOM      8  C   UNL     1      -4.707   2.748  25.395  0.00  0.00    +0.045 A 
ATOM      9  C   UNL     1      -5.498   2.938  25.526  0.00  0.00    +0.024 A 
ATOM     10  C   UNL     1      -6.092   2.412  25.301  0.00  0.00    +0.102 A 
ATOM     11  N   UNL     1      -5.895   1.694  24.945  0.00  0.00    -0.210 NA
BRANCH   6   5
ATOM      5  O   UNL     1      -4.905   0.787  24.457  0.00  0.00    -0.457 OA
BRANCH   5   4
ATOM      4  C   UNL     1      -4.515   0.203  24.891  0.00  0.00    +0.239 C 
BRANCH   4   3
ATOM      3  C   UNL     1      -4.276  -0.495  24.521  0.00  0.00    +0.189 C 
BRANCH   3   2
ATOM      1  C   UNL     1      -3.701  -1.801  24.599  0.00  0.00    +0.174 C 
ATOM      2  O   UNL     1      -3.960  -1.111  24.970  0.00  0.00    -0.347 OA
ENDBRANCH   3   2
ENDBRANCH   4   3
ENDBRANCH   5   4
ENDBRANCH   6   5
ENDBRANCH  12   8
BRANCH  15  17
ATOM     17  C   UNL     1      -2.247   4.291  25.417  0.00  0.00    +0.138 C 
ATOM     18  C   UNL     1      -2.107   5.040  25.100  0.00  0.00    +0.027 C 
ATOM     19  C   UNL     1      -1.295   5.114  24.971  0.00  0.00    +0.019 C 
ATOM     20  C   UNL     1      -0.934   4.412  25.208  0.00  0.00    +0.073 C 
ATOM     21  N   UNL     1      -1.522   3.902  25.484  0.00  0.00    -0.263 NA
BRANCH  21  22
ATOM     22  C   UNL     1      -1.405   3.140  25.775  0.00  0.00    +0.100 C 
BRANCH  22  23
ATOM     23  C   UNL     1      -0.786   2.678  25.486  0.00  0.00    -0.003 A 
ATOM     24  C   UNL     1      -0.900   2.207  24.817  0.00  0.00    +0.034 A 
ATOM     25  C   UNL     1      -0.281   1.745  24.528  0.00  0.00    +0.138 A 
ATOM     28  C   UNL     1       0.452   1.754  24.906  0.00  0.00    +0.037 A 
ATOM     29  C   UNL     1       0.566   2.224  25.574  0.00  0.00    +0.003 A 
ATOM     30  C   UNL     1      -0.053   2.686  25.864  0.00  0.00    -0.003 A 
BRANCH  25  26
ATOM     26  O   UNL     1      -0.395   1.275  23.860  0.00  0.00    -0.471 OA
ATOM     27  C   UNL     1      -0.523   0.464  23.944  0.00  0.00    +0.252 C 
ENDBRANCH  25  26
ENDBRANCH  22  23
ENDBRANCH  21  22
ENDBRANCH  15  17
TORSDOF 9
ENDMDL
MODEL 7
REMARK VINA RESULT:      -9.2      1.556      5.221
REMARK  Name = 
REMARK  9 active torsions:
REMARK  status: ('A' for Active; 'I' for Inactive)
REMARK    1  A    between atoms: O_2  and  C_3
REMARK    2  A    between atoms: C_3  and  C_4
REMARK    3  A    between atoms: C_4  and  O_5
REMARK    4  A    between atoms: O_5  and  C_6
REMARK    5  A    between atoms: C_8  and  C_12
REMARK    6  A    between atoms: C_15  and  C_17
REMARK    7  A    between atoms: N_21  and  C_22
REMARK    8  A    between atoms: C_22  and  C_23
REMARK    9  A    between atoms: C_25  and  O_26
REMARK                            x       y       z     vdW  Elec       q    Type
REMARK                         _______ _______ _______ _____ _____    ______ ____
ROOT
ATOM     12  C   UNL     1      -0.440   1.599  25.020  0.00  0.00    +0.204 A 
ATOM     13  N   UNL     1      -0.177   1.791  25.779  0.00  0.00    -0.056 NA
ATOM     14  O   UNL     1      -0.446   2.551  25.958  0.00  0.00    -0.336 OA
ATOM     15  C   UNL     1      -0.875   2.828  25.310  0.00  0.00    +0.251 A 
ATOM     16  N   UNL     1      -0.871   2.240  24.731  0.00  0.00    -0.190 NA
ENDROOT
BRANCH  12   8
ATOM      6  C   UNL     1       0.374   0.167  23.589  0.00  0.00    +0.225 A 
ATOM      7  C   UNL     1       0.230   0.875  23.987  0.00  0.00    +0.061 A 
ATOM      8  C   UNL     1      -0.296   0.891  24.622  0.00  0.00    +0.045 A 
ATOM      9  C   UNL     1      -0.679   0.201  24.859  0.00  0.00    +0.024 A 
ATOM     10  C   UNL     1      -0.535  -0.508  24.461  0.00  0.00    +0.102 A 
ATOM     11  N   UNL     1      -0.009  -0.525  23.826  0.00  0.00    -0.210 NA
BRANCH   6   5
ATOM      5  O   UNL     1       0.900   0.150  22.954  0.00  0.00    -0.457 OA
BRANCH   5   4
ATOM      4  C   UNL     1       1.701  -0.002  23.085  0.00  0.00    +0.239 C 
BRANCH   4   3
ATOM      3  C   UNL     1       2.253   0.163  22.494  0.00  0.00    +0.189 C 
BRANCH   3   2
ATOM      1  C   UNL     1       3.622   0.564  22.412  0.00  0.00    +0.174 C 
ATOM      2  O   UNL     1       3.052   0.006  22.622  0.00  0.00    -0.347 OA
ENDBRANCH   3   2
ENDBRANCH   4   3
ENDBRANCH   5   4
ENDBRANCH   6   5
ENDBRANCH  12   8
BRANCH  15  17
ATOM     17  C   UNL     1      -1.244   3.563  25.251  0.00  0.00    +0.138 C 
ATOM     18  C   UNL     1      -0.895   4.261  24.981  0.00  0.00    +0.027 C 
ATOM     19  C   UNL     1      -1.462   4.860  25.015  0.00  0.00    +0.019 C 
ATOM     20  C   UNL     1      -2.161   4.533  25.306  0.00  0.00    +0.073 C 
ATOM     21  N   UNL     1      -2.026   3.731  25.452  0.00  0.00    -0.263 NA
BRANCH  21  22
ATOM     22  C   UNL     1      -2.578   3.194  25.747  0.00  0.00    +0.100 C 
BRANCH  22  23
ATOM     23  C   UNL     1      -3.384   3.324  25.631  0.00  0.00    -0.003 A 
ATOM     24  C   UNL     1      -3.805   2.854  25.099  0.00  0.00    +0.034 A 
ATOM     25  C   UNL     1      -4.611   2.984  24.983  0.00  0.00    +0.138 A 
ATOM     28  C   UNL     1      -4.997   3.583  25.399  0.00  0.00    +0.037 A 
ATOM     29  C   UNL     1      -4.576   4.053  25.931  0.00  0.00    +0.003 A 
ATOM     30  C   UNL     1      -3.769   3.923  26.047  0.00  0.00    -0.003 A 
BRANCH  25  26
ATOM     26  O   UNL     1      -5.033   2.515  24.451  0.00  0.00    -0.471 OA
ATOM     27  C   UNL     1      -5.575   1.960  24.731  0.00  0.00    +0.252 C 
ENDBRANCH  25  26
ENDBRANCH  22  23
ENDBRANCH  21  22
ENDBRANCH  15  17
TORSDOF 9
ENDMDL
