MODEL 1
REMARK VINA RESULT:      -9.1      0.000      0.000
REMARK  Name = 
REMARK  9 active torsions:
REMARK  status: ('A' for Active; 'I' for Inactive)
REMARK    1  A    between atoms: O_2  and  C_3
REMARK    2  A    between atoms: C_3  and  C_4
REMARK    3  A    between atoms: C_4  and  N_5
REMARK    4  A    between atoms: N_5  and  C_6
REMARK    5  A    between atoms: C_9  and  C_12
REMARK    6  A    between atoms: C_15  and  C_17
REMARK    7  A    between atoms: N_21  and  C_22
REMARK    8  A    between atoms: C_22  and  C_23
REMARK    9  A    between atoms: C_26  and  N_27
REMARK                            x       y       z     vdW  Elec       q    Type
REMARK                         _______ _______ _______ _____ _____    ______ ____
ROOT
ATOM     12  C   UNL     1      -0.858  -0.440  24.288  0.00  0.00    +0.205 A 
ATOM     13  N   UNL     1      -0.906  -0.684  25.076  0.00  0.00    -0.056 NA
ATOM     14  O   UNL     1      -1.700  -0.825  25.251  0.00  0.00    -0.336 OA
ATOM     15  C   UNL     1      -2.142  -0.669  24.572  0.00  0.00    +0.251 A 
ATOM     16  N   UNL     1      -1.621  -0.431  23.977  0.00  0.00    -0.190 NA
ENDROOT
BRANCH  12   9
ATOM      6  C   UNL     1       1.215   0.157  23.075  0.00  0.00    +0.148 A 
ATOM      7  C   UNL     1       0.775   0.742  23.453  0.00  0.00    +0.036 A 
ATOM      8  C   UNL     1       0.084   0.543  23.858  0.00  0.00    +0.008 A 
ATOM      9  C   UNL     1      -0.167  -0.241  23.884  0.00  0.00    +0.058 A 
ATOM     10  C   UNL     1       0.273  -0.829  23.506  0.00  0.00    +0.103 A 
ATOM     11  N   UNL     1       0.964  -0.630  23.102  0.00  0.00    -0.228 NA
BRANCH   6   5
ATOM      5  N   UNL     1       1.906   0.355  22.671  0.00  0.00    -0.218 NA
BRANCH   5   4
ATOM      4  C   UNL     1       2.607   0.478  23.089  0.00  0.00    +0.146 C 
BRANCH   4   3
ATOM      3  C   UNL     1       3.321   0.558  22.682  0.00  0.00    +0.166 C 
BRANCH   3   2
ATOM      1  C   UNL     1       4.702   0.590  23.046  0.00  0.00    +0.174 C 
ATOM      2  O   UNL     1       3.957   0.944  23.037  0.00  0.00    -0.349 OA
ENDBRANCH   3   2
ENDBRANCH   4   3
ENDBRANCH   5   4
ENDBRANCH   6   5
ENDBRANCH  12   9
BRANCH  15  17
ATOM     17  C   UNL     1      -2.961  -0.738  24.500  0.00  0.00    +0.138 C 
ATOM     18  C   UNL     1      -3.381  -1.440  24.389  0.00  0.00    +0.027 C 
ATOM     19  C   UNL     1      -4.183  -1.254  24.346  0.00  0.00    +0.019 C 
ATOM     20  C   UNL     1      -4.260  -0.436  24.431  0.00  0.00    +0.073 C 
ATOM     21  N   UNL     1      -3.504  -0.118  24.525  0.00  0.00    -0.263 NA
BRANCH  21  22
ATOM     22  C   UNL     1      -3.325   0.681  24.628  0.00  0.00    +0.099 C 
BRANCH  22  23
ATOM     23  C   UNL     1      -3.928   1.225  24.766  0.00  0.00    -0.006 A 
ATOM     24  C   UNL     1      -4.094   1.809  24.208  0.00  0.00    -0.002 A 
ATOM     25  C   UNL     1      -4.698   2.354  24.346  0.00  0.00    +0.016 A 
ATOM     26  C   UNL     1      -5.136   2.314  25.044  0.00  0.00    +0.073 A 
ATOM     31  C   UNL     1      -4.971   1.730  25.602  0.00  0.00    +0.016 A 
ATOM     32  C   UNL     1      -4.368   1.186  25.464  0.00  0.00    -0.002 A 
BRANCH  26  27
ATOM     27  N   UNL     1      -5.741   2.859  25.182  0.00  0.00    -0.179 NA
ATOM     28  C   UNL     1      -5.566   3.590  25.523  0.00  0.00    +0.246 C 
ATOM     29  C   UNL     1      -4.789   3.776  25.725  0.00  0.00    +0.097 C 
ATOM     30  O   UNL     1      -6.170   4.135  25.661  0.00  0.00    -0.273 OA
ENDBRANCH  26  27
ENDBRANCH  22  23
ENDBRANCH  21  22
ENDBRANCH  15  17
TORSDOF 9
ENDMDL
MODEL 2
REMARK VINA RESULT:      -8.5      2.296      4.091
REMARK  Name = 
REMARK  9 active torsions:
REMARK  status: ('A' for Active; 'I' for Inactive)
REMARK    1  A    between atoms: O_2  and  C_3
REMARK    2  A    between atoms: C_3  and  C_4
REMARK    3  A    between atoms: C_4  and  N_5
REMARK    4  A    between atoms: N_5  and  C_6
REMARK    5  A    between atoms: C_9  and  C_12
REMARK    6  A    between atoms: C_15  and  C_17
REMARK    7  A    between atoms: N_21  and  C_22
REMARK    8  A    between atoms: C_22  and  C_23
REMARK    9  A    between atoms: C_26  and  N_27
REMARK                            x       y       z     vdW  Elec       q    Type
REMARK                         _______ _______ _______ _____ _____    ______ ____
ROOT
ATOM     12  C   UNL     1      -0.284   1.586  25.077  0.00  0.00    +0.205 A 
ATOM     13  N   UNL     1       0.430   1.886  25.362  0.00  0.00    -0.056 NA
ATOM     14  O   UNL     1       0.372   2.709  25.382  0.00  0.00    -0.336 OA
ATOM     15  C   UNL     1      -0.379   2.917  25.110  0.00  0.00    +0.251 A 
ATOM     16  N   UNL     1      -0.784   2.224  24.921  0.00  0.00    -0.190 NA
ENDROOT
BRANCH  12   9
ATOM      6  C   UNL     1      -0.830  -0.805  24.747  0.00  0.00    +0.148 A 
ATOM      7  C   UNL     1      -1.040  -0.427  25.449  0.00  0.00    +0.036 A 
ATOM      8  C   UNL     1      -0.858   0.370  25.559  0.00  0.00    +0.008 A 
ATOM      9  C   UNL     1      -0.466   0.789  24.967  0.00  0.00    +0.058 A 
ATOM     10  C   UNL     1      -0.255   0.411  24.264  0.00  0.00    +0.103 A 
ATOM     11  N   UNL     1      -0.437  -0.386  24.155  0.00  0.00    -0.228 NA
BRANCH   6   5
ATOM      5  N   UNL     1      -1.012  -1.603  24.637  0.00  0.00    -0.218 NA
BRANCH   5   4
ATOM      4  C   UNL     1      -1.780  -1.826  24.436  0.00  0.00    +0.146 C 
BRANCH   4   3
ATOM      3  C   UNL     1      -2.009  -2.616  24.495  0.00  0.00    +0.166 C 
BRANCH   3   2
ATOM      1  C   UNL     1      -3.398  -2.948  24.521  0.00  0.00    +0.174 C 
ATOM      2  O   UNL     1      -2.687  -2.881  24.108  0.00  0.00    -0.349 OA
ENDBRANCH   3   2
ENDBRANCH   4   3
ENDBRANCH   5   4
ENDBRANCH   6   5
ENDBRANCH  12   9
BRANCH  15  17
ATOM     17  C   UNL     1      -0.673   3.685  25.039  0.00  0.00    +0.138 C 
ATOM     18  C   UNL     1      -0.314   4.306  24.631  0.00  0.00    +0.027 C 
ATOM     19  C   UNL     1      -0.796   4.971  24.702  0.00  0.00    +0.019 C 
ATOM     20  C   UNL     1      -1.454   4.761  25.155  0.00  0.00    +0.073 C 
ATOM     21  N   UNL     1      -1.377   3.966  25.363  0.00  0.00    -0.263 NA
BRANCH  21  22
ATOM     22  C   UNL     1      -1.912   3.530  25.815  0.00  0.00    +0.099 C 
BRANCH  22  23
ATOM     23  C   UNL     1      -2.721   3.667  25.743  0.00  0.00    -0.006 A 
ATOM     24  C   UNL     1      -3.126   3.406  25.073  0.00  0.00    -0.002 A 
ATOM     25  C   UNL     1      -3.937   3.543  25.001  0.00  0.00    +0.016 A 
ATOM     26  C   UNL     1      -4.342   3.942  25.599  0.00  0.00    +0.073 A 
ATOM     31  C   UNL     1      -3.937   4.203  26.268  0.00  0.00    +0.016 A 
ATOM     32  C   UNL     1      -3.128   4.066  26.341  0.00  0.00    -0.002 A 
BRANCH  26  27
ATOM     27  N   UNL     1      -5.153   4.079  25.527  0.00  0.00    -0.179 NA
ATOM     28  C   UNL     1      -5.689   3.475  25.696  0.00  0.00    +0.246 C 
ATOM     29  C   UNL     1      -5.416   2.736  25.938  0.00  0.00    +0.097 C 
ATOM     30  O   UNL     1      -6.500   3.612  25.624  0.00  0.00    -0.273 OA
ENDBRANCH  26  27
ENDBRANCH  22  23
ENDBRANCH  21  22
ENDBRANCH  15  17
TORSDOF 9
ENDMDL
MODEL 3
REMARK VINA RESULT:      -7.9      1.276      1.715
REMARK  Name = 
REMARK  9 active torsions:
REMARK  status: ('A' for Active; 'I' for Inactive)
REMARK    1  A    between atoms: O_2  and  C_3
REMARK    2  A    between atoms: C_3  and  C_4
REMARK    3  A    between atoms: C_4  and  N_5
REMARK    4  A    between atoms: N_5  and  C_6
REMARK    5  A    between atoms: C_9  and  C_12
REMARK    6  A    between atoms: C_15  and  C_17
REMARK    7  A    between atoms: N_21  and  C_22
REMARK    8  A    between atoms: C_22  and  C_23
REMARK    9  A    between atoms: C_26  and  N_27
REMARK                            x       y       z     vdW  Elec       q    Type
REMARK                         _______ _______ _______ _____ _____    ______ ____
ROOT
ATOM     12  C   UNL     1       0.232   0.230  23.422  0.00  0.00    +0.205 A 
ATOM     13  N   UNL     1      -0.330  -0.063  22.892  0.00  0.00    -0.056 NA
ATOM     14  O   UNL     1      -1.048  -0.129  23.293  0.00  0.00    -0.336 OA
ATOM     15  C   UNL     1      -0.931   0.123  24.069  0.00  0.00    +0.251 A 
ATOM     16  N   UNL     1      -0.140   0.344  24.149  0.00  0.00    -0.190 NA
ENDROOT
BRANCH  12   9
ATOM      6  C   UNL     1       2.612   0.682  22.915  0.00  0.00    +0.148 A 
ATOM      7  C   UNL     1       2.229   0.043  22.562  0.00  0.00    +0.036 A 
ATOM      8  C   UNL     1       1.435  -0.108  22.731  0.00  0.00    +0.008 A 
ATOM      9  C   UNL     1       1.025   0.380  23.253  0.00  0.00    +0.058 A 
ATOM     10  C   UNL     1       1.407   1.021  23.607  0.00  0.00    +0.103 A 
ATOM     11  N   UNL     1       2.200   1.171  23.438  0.00  0.00    -0.228 NA
BRANCH   6   5
ATOM      5  N   UNL     1       3.405   0.833  22.747  0.00  0.00    -0.218 NA
BRANCH   5   4
ATOM      4  C   UNL     1       3.992   0.338  23.048  0.00  0.00    +0.146 C 
BRANCH   4   3
ATOM      3  C   UNL     1       4.777   0.592  23.067  0.00  0.00    +0.166 C 
BRANCH   3   2
ATOM      1  C   UNL     1       5.787  -0.060  23.839  0.00  0.00    +0.174 C 
ATOM      2  O   UNL     1       5.388   0.041  23.124  0.00  0.00    -0.349 OA
ENDBRANCH   3   2
ENDBRANCH   4   3
ENDBRANCH   5   4
ENDBRANCH   6   5
ENDBRANCH  12   9
BRANCH  15  17
ATOM     17  C   UNL     1      -1.503   0.149  24.663  0.00  0.00    +0.138 C 
ATOM     18  C   UNL     1      -1.593  -0.398  25.274  0.00  0.00    +0.027 C 
ATOM     19  C   UNL     1      -2.231  -0.159  25.739  0.00  0.00    +0.019 C 
ATOM     20  C   UNL     1      -2.537   0.535  25.414  0.00  0.00    +0.073 C 
ATOM     21  N   UNL     1      -2.087   0.726  24.749  0.00  0.00    -0.263 NA
BRANCH  21  22
ATOM     22  C   UNL     1      -2.201   1.378  24.257  0.00  0.00    +0.099 C 
BRANCH  22  23
ATOM     23  C   UNL     1      -2.779   1.936  24.439  0.00  0.00    -0.006 A 
ATOM     24  C   UNL     1      -3.523   1.890  24.086  0.00  0.00    -0.002 A 
ATOM     25  C   UNL     1      -4.102   2.449  24.268  0.00  0.00    +0.016 A 
ATOM     26  C   UNL     1      -3.937   3.054  24.805  0.00  0.00    +0.073 A 
ATOM     31  C   UNL     1      -3.193   3.100  25.159  0.00  0.00    +0.016 A 
ATOM     32  C   UNL     1      -2.614   2.541  24.976  0.00  0.00    -0.002 A 
BRANCH  26  27
ATOM     27  N   UNL     1      -4.516   3.613  24.987  0.00  0.00    -0.179 NA
ATOM     28  C   UNL     1      -5.146   3.407  25.478  0.00  0.00    +0.246 C 
ATOM     29  C   UNL     1      -5.198   2.645  25.786  0.00  0.00    +0.097 C 
ATOM     30  O   UNL     1      -5.726   3.966  25.661  0.00  0.00    -0.273 OA
ENDBRANCH  26  27
ENDBRANCH  22  23
ENDBRANCH  21  22
ENDBRANCH  15  17
TORSDOF 9
ENDMDL
MODEL 4
REMARK VINA RESULT:      -7.8      2.881      4.563
REMARK  Name = 
REMARK  9 active torsions:
REMARK  status: ('A' for Active; 'I' for Inactive)
REMARK    1  A    between atoms: O_2  and  C_3
REMARK    2  A    between atoms: C_3  and  C_4
REMARK    3  A    between atoms: C_4  and  N_5
REMARK    4  A    between atoms: N_5  and  C_6
REMARK    5  A    between atoms: C_9  and  C_12
REMARK    6  A    between atoms: C_15  and  C_17
REMARK    7  A    between atoms: N_21  and  C_22
REMARK    8  A    between atoms: C_22  and  C_23
REMARK    9  A    between atoms: C_26  and  N_27
REMARK                            x       y       z     vdW  Elec       q    Type
REMARK                         _______ _______ _______ _____ _____    ______ ____
ROOT
ATOM     12  C   UNL     1      -4.783   0.339  24.861  0.00  0.00    +0.205 A 
ATOM     13  N   UNL     1      -5.529   0.398  24.514  0.00  0.00    -0.056 NA
ATOM     14  O   UNL     1      -5.813   1.161  24.648  0.00  0.00    -0.336 OA
ATOM     15  C   UNL     1      -5.243   1.574  25.078  0.00  0.00    +0.251 A 
ATOM     16  N   UNL     1      -4.606   1.065  25.210  0.00  0.00    -0.190 NA
ENDROOT
BRANCH  12   9
ATOM      6  C   UNL     1      -3.330  -1.665  24.857  0.00  0.00    +0.148 A 
ATOM      7  C   UNL     1      -3.677  -1.404  24.155  0.00  0.00    +0.036 A 
ATOM      8  C   UNL     1      -4.161  -0.736  24.157  0.00  0.00    +0.008 A 
ATOM      9  C   UNL     1      -4.298  -0.329  24.860  0.00  0.00    +0.058 A 
ATOM     10  C   UNL     1      -3.952  -0.589  25.563  0.00  0.00    +0.103 A 
ATOM     11  N   UNL     1      -3.468  -1.257  25.561  0.00  0.00    -0.228 NA
BRANCH   6   5
ATOM      5  N   UNL     1      -2.846  -2.333  24.855  0.00  0.00    -0.218 NA
BRANCH   5   4
ATOM      4  C   UNL     1      -2.091  -2.294  24.524  0.00  0.00    +0.146 C 
BRANCH   4   3
ATOM      3  C   UNL     1      -1.449  -2.622  24.924  0.00  0.00    +0.166 C 
BRANCH   3   2
ATOM      1  C   UNL     1      -0.128  -2.220  25.293  0.00  0.00    +0.174 C 
ATOM      2  O   UNL     1      -0.680  -2.413  24.711  0.00  0.00    -0.349 OA
ENDBRANCH   3   2
ENDBRANCH   4   3
ENDBRANCH   5   4
ENDBRANCH   6   5
ENDBRANCH  12   9
BRANCH  15  17
ATOM     17  C   UNL     1      -5.299   2.356  25.332  0.00  0.00    +0.138 C 
ATOM     18  C   UNL     1      -5.926   2.685  25.755  0.00  0.00    +0.027 C 
ATOM     19  C   UNL     1      -5.753   3.480  25.892  0.00  0.00    +0.019 C 
ATOM     20  C   UNL     1      -5.018   3.642  25.555  0.00  0.00    +0.073 C 
ATOM     21  N   UNL     1      -4.737   2.948  25.208  0.00  0.00    -0.263 NA
BRANCH  21  22
ATOM     22  C   UNL     1      -4.021   2.861  24.809  0.00  0.00    +0.099 C 
BRANCH  22  23
ATOM     23  C   UNL     1      -3.420   3.416  24.913  0.00  0.00    -0.006 A 
ATOM     24  C   UNL     1      -2.916   3.362  25.563  0.00  0.00    -0.002 A 
ATOM     25  C   UNL     1      -2.315   3.918  25.667  0.00  0.00    +0.016 A 
ATOM     26  C   UNL     1      -2.218   4.527  25.119  0.00  0.00    +0.073 A 
ATOM     31  C   UNL     1      -2.722   4.581  24.469  0.00  0.00    +0.016 A 
ATOM     32  C   UNL     1      -3.323   4.026  24.365  0.00  0.00    -0.002 A 
BRANCH  26  27
ATOM     27  N   UNL     1      -1.617   5.083  25.223  0.00  0.00    -0.179 NA
ATOM     28  C   UNL     1      -0.861   4.933  24.928  0.00  0.00    +0.246 C 
ATOM     29  C   UNL     1      -0.707   4.228  24.530  0.00  0.00    +0.097 C 
ATOM     30  O   UNL     1      -0.260   5.488  25.032  0.00  0.00    -0.273 OA
ENDBRANCH  26  27
ENDBRANCH  22  23
ENDBRANCH  21  22
ENDBRANCH  15  17
TORSDOF 9
ENDMDL
MODEL 5
REMARK VINA RESULT:      -7.6      1.972      5.758
REMARK  Name = 
REMARK  9 active torsions:
REMARK  status: ('A' for Active; 'I' for Inactive)
REMARK    1  A    between atoms: O_2  and  C_3
REMARK    2  A    between atoms: C_3  and  C_4
REMARK    3  A    between atoms: C_4  and  N_5
REMARK    4  A    between atoms: N_5  and  C_6
REMARK    5  A    between atoms: C_9  and  C_12
REMARK    6  A    between atoms: C_15  and  C_17
REMARK    7  A    between atoms: N_21  and  C_22
REMARK    8  A    between atoms: C_22  and  C_23
REMARK    9  A    between atoms: C_26  and  N_27
REMARK                            x       y       z     vdW  Elec       q    Type
REMARK                         _______ _______ _______ _____ _____    ______ ____
ROOT
ATOM     12  C   UNL     1      -0.919   2.408  24.780  0.00  0.00    +0.205 A 
ATOM     13  N   UNL     1      -0.150   2.597  25.014  0.00  0.00    -0.056 NA
ATOM     14  O   UNL     1       0.354   2.004  24.738  0.00  0.00    -0.336 OA
ATOM     15  C   UNL     1      -0.104   1.450  24.333  0.00  0.00    +0.251 A 
ATOM     16  N   UNL     1      -0.890   1.700  24.359  0.00  0.00    -0.190 NA
ENDROOT
BRANCH  12   9
ATOM      6  C   UNL     1      -2.952   3.736  25.257  0.00  0.00    +0.148 A 
ATOM      7  C   UNL     1      -2.376   3.639  25.840  0.00  0.00    +0.036 A 
ATOM      8  C   UNL     1      -1.698   3.197  25.681  0.00  0.00    +0.008 A 
ATOM      9  C   UNL     1      -1.596   2.851  24.939  0.00  0.00    +0.058 A 
ATOM     10  C   UNL     1      -2.172   2.947  24.356  0.00  0.00    +0.103 A 
ATOM     11  N   UNL     1      -2.850   3.390  24.515  0.00  0.00    -0.228 NA
BRANCH   6   5
ATOM      5  N   UNL     1      -3.630   4.179  25.417  0.00  0.00    -0.218 NA
BRANCH   5   4
ATOM      4  C   UNL     1      -4.310   3.804  25.696  0.00  0.00    +0.146 C 
BRANCH   4   3
ATOM      3  C   UNL     1      -5.054   4.087  25.478  0.00  0.00    +0.166 C 
BRANCH   3   2
ATOM      1  C   UNL     1      -6.028   3.065  25.700  0.00  0.00    +0.174 C 
ATOM      2  O   UNL     1      -5.729   3.815  25.867  0.00  0.00    -0.349 OA
ENDBRANCH   3   2
ENDBRANCH   4   3
ENDBRANCH   5   4
ENDBRANCH   6   5
ENDBRANCH  12   9
BRANCH  15  17
ATOM     17  C   UNL     1       0.176   0.766  23.966  0.00  0.00    +0.138 C 
ATOM     18  C   UNL     1       0.694   0.737  23.324  0.00  0.00    +0.027 C 
ATOM     19  C   UNL     1       0.825  -0.055  23.137  0.00  0.00    +0.019 C 
ATOM     20  C   UNL     1       0.387  -0.517  23.663  0.00  0.00    +0.073 C 
ATOM     21  N   UNL     1      -0.014  -0.009  24.175  0.00  0.00    -0.263 NA
BRANCH  21  22
ATOM     22  C   UNL     1      -0.516  -0.236  24.789  0.00  0.00    +0.099 C 
BRANCH  22  23
ATOM     23  C   UNL     1      -1.020  -0.882  24.692  0.00  0.00    -0.006 A 
ATOM     24  C   UNL     1      -0.811  -1.618  25.001  0.00  0.00    -0.002 A 
ATOM     25  C   UNL     1      -1.315  -2.264  24.905  0.00  0.00    +0.016 A 
ATOM     26  C   UNL     1      -2.028  -2.174  24.498  0.00  0.00    +0.073 A 
ATOM     31  C   UNL     1      -2.236  -1.438  24.189  0.00  0.00    +0.016 A 
ATOM     32  C   UNL     1      -1.732  -0.793  24.285  0.00  0.00    -0.002 A 
BRANCH  26  27
ATOM     27  N   UNL     1      -2.532  -2.821  24.401  0.00  0.00    -0.179 NA
ATOM     28  C   UNL     1      -3.281  -2.814  24.747  0.00  0.00    +0.246 C 
ATOM     29  C   UNL     1      -3.526  -2.163  25.189  0.00  0.00    +0.097 C 
ATOM     30  O   UNL     1      -3.785  -3.461  24.651  0.00  0.00    -0.273 OA
ENDBRANCH  26  27
ENDBRANCH  22  23
ENDBRANCH  21  22
ENDBRANCH  15  17
TORSDOF 9
ENDMDL
MODEL 6
REMARK VINA RESULT:      -7.6      3.073      4.478
REMARK  Name = 
REMARK  9 active torsions:
REMARK  status: ('A' for Active; 'I' for Inactive)
REMARK    1  A    between atoms: O_2  and  C_3
REMARK    2  A    between atoms: C_3  and  C_4
REMARK    3  A    between atoms: C_4  and  N_5
REMARK    4  A    between atoms: N_5  and  C_6
REMARK    5  A    between atoms: C_9  and  C_12
REMARK    6  A    between atoms: C_15  and  C_17
REMARK    7  A    between atoms: N_21  and  C_22
REMARK    8  A    between atoms: C_22  and  C_23
REMARK    9  A    between atoms: C_26  and  N_27
REMARK                            x       y       z     vdW  Elec       q    Type
REMARK                         _______ _______ _______ _____ _____    ______ ____
ROOT
ATOM     12  C   UNL     1      -2.088   2.744  25.162  0.00  0.00    +0.205 A 
ATOM     13  N   UNL     1      -2.290   3.222  24.521  0.00  0.00    -0.056 NA
ATOM     14  O   UNL     1      -3.066   3.044  24.304  0.00  0.00    -0.336 OA
ATOM     15  C   UNL     1      -3.343   2.455  24.811  0.00  0.00    +0.251 A 
ATOM     16  N   UNL     1      -2.738   2.270  25.342  0.00  0.00    -0.190 NA
ENDROOT
BRANCH  12   9
ATOM      6  C   UNL     1       0.089   2.733  26.339  0.00  0.00    +0.148 A 
ATOM      7  C   UNL     1      -0.265   2.022  26.121  0.00  0.00    +0.036 A 
ATOM      8  C   UNL     1      -0.991   2.025  25.728  0.00  0.00    +0.008 A 
ATOM      9  C   UNL     1      -1.362   2.740  25.555  0.00  0.00    +0.058 A 
ATOM     10  C   UNL     1      -1.008   3.453  25.773  0.00  0.00    +0.103 A 
ATOM     11  N   UNL     1      -0.282   3.450  26.165  0.00  0.00    -0.228 NA
BRANCH   6   5
ATOM      5  N   UNL     1       0.815   2.730  26.732  0.00  0.00    -0.218 NA
BRANCH   5   4
ATOM      4  C   UNL     1       0.841   2.617  27.549  0.00  0.00    +0.146 C 
BRANCH   4   3
ATOM      3  C   UNL     1       1.557   2.689  27.952  0.00  0.00    +0.166 C 
BRANCH   3   2
ATOM      1  C   UNL     1       2.300   2.654  29.173  0.00  0.00    +0.174 C 
ATOM      2  O   UNL     1       1.587   2.563  28.767  0.00  0.00    -0.349 OA
ENDBRANCH   3   2
ENDBRANCH   4   3
ENDBRANCH   5   4
ENDBRANCH   6   5
ENDBRANCH  12   9
BRANCH  15  17
ATOM     17  C   UNL     1      -4.093   2.111  24.792  0.00  0.00    +0.138 C 
ATOM     18  C   UNL     1      -4.789   2.450  25.079  0.00  0.00    +0.027 C 
ATOM     19  C   UNL     1      -5.404   1.918  24.947  0.00  0.00    +0.019 C 
ATOM     20  C   UNL     1      -5.090   1.249  24.579  0.00  0.00    +0.073 C 
ATOM     21  N   UNL     1      -4.279   1.369  24.483  0.00  0.00    -0.263 NA
BRANCH  21  22
ATOM     22  C   UNL     1      -3.748   0.840  24.140  0.00  0.00    +0.099 C 
BRANCH  22  23
ATOM     23  C   UNL     1      -3.845   0.029  24.249  0.00  0.00    -0.006 A 
ATOM     24  C   UNL     1      -3.733  -0.304  24.995  0.00  0.00    -0.002 A 
ATOM     25  C   UNL     1      -3.830  -1.116  25.105  0.00  0.00    +0.016 A 
ATOM     26  C   UNL     1      -4.039  -1.595  24.466  0.00  0.00    +0.073 A 
ATOM     31  C   UNL     1      -4.151  -1.263  23.720  0.00  0.00    +0.016 A 
ATOM     32  C   UNL     1      -4.054  -0.452  23.611  0.00  0.00    -0.002 A 
BRANCH  26  27
ATOM     27  N   UNL     1      -4.136  -2.408  24.576  0.00  0.00    -0.179 NA
ATOM     28  C   UNL     1      -3.480  -2.908  24.551  0.00  0.00    +0.246 C 
ATOM     29  C   UNL     1      -2.729  -2.597  24.416  0.00  0.00    +0.097 C 
ATOM     30  O   UNL     1      -3.577  -3.720  24.660  0.00  0.00    -0.273 OA
ENDBRANCH  26  27
ENDBRANCH  22  23
ENDBRANCH  21  22
ENDBRANCH  15  17
TORSDOF 9
ENDMDL
MODEL 7
REMARK VINA RESULT:      -7.6      1.596      2.306
REMARK  Name = 
REMARK  9 active torsions:
REMARK  status: ('A' for Active; 'I' for Inactive)
REMARK    1  A    between atoms: O_2  and  C_3
REMARK    2  A    between atoms: C_3  and  C_4
REMARK    3  A    between atoms: C_4  and  N_5
REMARK    4  A    between atoms: N_5  and  C_6
REMARK    5  A    between atoms: C_9  and  C_12
REMARK    6  A    between atoms: C_15  and  C_17
REMARK    7  A    between atoms: N_21  and  C_22
REMARK    8  A    between atoms: C_22  and  C_23
REMARK    9  A    between atoms: C_26  and  N_27
REMARK                            x       y       z     vdW  Elec       q    Type
REMARK                         _______ _______ _______ _____ _____    ______ ____
ROOT
ATOM     12  C   UNL     1       0.009   1.178  24.406  0.00  0.00    +0.205 A 
ATOM     13  N   UNL     1      -0.422   0.679  24.902  0.00  0.00    -0.056 NA
ATOM     14  O   UNL     1      -1.021   1.125  25.255  0.00  0.00    -0.336 OA
ATOM     15  C   UNL     1      -0.960   1.899  24.976  0.00  0.00    +0.251 A 
ATOM     16  N   UNL     1      -0.323   1.932  24.452  0.00  0.00    -0.190 NA
ENDROOT
BRANCH  12   9
ATOM      6  C   UNL     1       1.955   0.527  23.023  0.00  0.00    +0.148 A 
ATOM      7  C   UNL     1       1.284   0.049  23.042  0.00  0.00    +0.036 A 
ATOM      8  C   UNL     1       0.635   0.266  23.503  0.00  0.00    +0.008 A 
ATOM      9  C   UNL     1       0.658   0.961  23.945  0.00  0.00    +0.058 A 
ATOM     10  C   UNL     1       1.329   1.441  23.927  0.00  0.00    +0.103 A 
ATOM     11  N   UNL     1       1.978   1.224  23.466  0.00  0.00    -0.228 NA
BRANCH   6   5
ATOM      5  N   UNL     1       2.604   0.310  22.562  0.00  0.00    -0.218 NA
BRANCH   5   4
ATOM      4  C   UNL     1       3.349   0.626  22.725  0.00  0.00    +0.146 C 
BRANCH   4   3
ATOM      3  C   UNL     1       4.026   0.170  22.600  0.00  0.00    +0.166 C 
BRANCH   3   2
ATOM      1  C   UNL     1       5.317   0.064  23.204  0.00  0.00    +0.174 C 
ATOM      2  O   UNL     1       4.772   0.488  22.753  0.00  0.00    -0.349 OA
ENDBRANCH   3   2
ENDBRANCH   4   3
ENDBRANCH   5   4
ENDBRANCH   6   5
ENDBRANCH  12   9
BRANCH  15  17
ATOM     17  C   UNL     1      -1.448   2.530  25.185  0.00  0.00    +0.138 C 
ATOM     18  C   UNL     1      -1.257   3.139  25.708  0.00  0.00    +0.027 C 
ATOM     19  C   UNL     1      -1.904   3.648  25.754  0.00  0.00    +0.019 C 
ATOM     20  C   UNL     1      -2.496   3.354  25.261  0.00  0.00    +0.073 C 
ATOM     21  N   UNL     1      -2.214   2.662  24.909  0.00  0.00    -0.263 NA
BRANCH  21  22
ATOM     22  C   UNL     1      -2.626   2.187  24.375  0.00  0.00    +0.099 C 
BRANCH  22  23
ATOM     23  C   UNL     1      -3.442   2.095  24.449  0.00  0.00    -0.006 A 
ATOM     24  C   UNL     1      -3.750   1.422  24.813  0.00  0.00    -0.002 A 
ATOM     25  C   UNL     1      -4.567   1.330  24.887  0.00  0.00    +0.016 A 
ATOM     26  C   UNL     1      -5.075   1.911  24.598  0.00  0.00    +0.073 A 
ATOM     31  C   UNL     1      -4.767   2.585  24.234  0.00  0.00    +0.016 A 
ATOM     32  C   UNL     1      -3.952   2.677  24.160  0.00  0.00    -0.002 A 
BRANCH  26  27
ATOM     27  N   UNL     1      -5.892   1.819  24.672  0.00  0.00    -0.179 NA
ATOM     28  C   UNL     1      -6.267   2.024  25.377  0.00  0.00    +0.246 C 
ATOM     29  C   UNL     1      -5.828   2.322  26.008  0.00  0.00    +0.097 C 
ATOM     30  O   UNL     1      -7.084   1.932  25.452  0.00  0.00    -0.273 OA
ENDBRANCH  26  27
ENDBRANCH  22  23
ENDBRANCH  21  22
ENDBRANCH  15  17
TORSDOF 9
ENDMDL
MODEL 8
REMARK VINA RESULT:      -7.5      1.810      3.169
REMARK  Name = 
REMARK  9 active torsions:
REMARK  status: ('A' for Active; 'I' for Inactive)
REMARK    1  A    between atoms: O_2  and  C_3
REMARK    2  A    between atoms: C_3  and  C_4
REMARK    3  A    between atoms: C_4  and  N_5
REMARK    4  A    between atoms: N_5  and  C_6
REMARK    5  A    between atoms: C_9  and  C_12
REMARK    6  A    between atoms: C_15  and  C_17
REMARK    7  A    between atoms: N_21  and  C_22
REMARK    8  A    between atoms: C_22  and  C_23
REMARK    9  A    between atoms: C_26  and  N_27
REMARK                            x       y       z     vdW  Elec       q    Type
REMARK                         _______ _______ _______ _____ _____    ______ ____
ROOT
ATOM     12  C   UNL     1      -0.182   1.569  24.274  0.00  0.00    +0.205 A 
ATOM     13  N   UNL     1      -0.210   1.898  25.031  0.00  0.00    -0.056 NA
ATOM     14  O   UNL     1      -0.990   2.125  25.181  0.00  0.00    -0.336 OA
ATOM     15  C   UNL     1      -1.442   1.935  24.517  0.00  0.00    +0.251 A 
ATOM     16  N   UNL     1      -0.943   1.592  23.957  0.00  0.00    -0.190 NA
ENDROOT
BRANCH  12   9
ATOM      6  C   UNL     1       1.835   0.671  23.155  0.00  0.00    +0.148 A 
ATOM      7  C   UNL     1       1.137   0.231  23.164  0.00  0.00    +0.036 A 
ATOM      8  C   UNL     1       0.465   0.531  23.537  0.00  0.00    +0.008 A 
ATOM      9  C   UNL     1       0.491   1.270  23.901  0.00  0.00    +0.058 A 
ATOM     10  C   UNL     1       1.188   1.711  23.893  0.00  0.00    +0.103 A 
ATOM     11  N   UNL     1       1.860   1.411  23.520  0.00  0.00    -0.228 NA
BRANCH   6   5
ATOM      5  N   UNL     1       2.507   0.372  22.782  0.00  0.00    -0.218 NA
BRANCH   5   4
ATOM      4  C   UNL     1       3.250   0.687  22.955  0.00  0.00    +0.146 C 
BRANCH   4   3
ATOM      3  C   UNL     1       3.932   0.286  22.724  0.00  0.00    +0.166 C 
BRANCH   3   2
ATOM      1  C   UNL     1       5.243   0.152  23.276  0.00  0.00    +0.174 C 
ATOM      2  O   UNL     1       4.675   0.606  22.887  0.00  0.00    -0.349 OA
ENDBRANCH   3   2
ENDBRANCH   4   3
ENDBRANCH   5   4
ENDBRANCH   6   5
ENDBRANCH  12   9
BRANCH  15  17
ATOM     17  C   UNL     1      -2.252   2.066  24.429  0.00  0.00    +0.138 C 
ATOM     18  C   UNL     1      -2.602   2.742  24.111  0.00  0.00    +0.027 C 
ATOM     19  C   UNL     1      -3.420   2.638  24.128  0.00  0.00    +0.019 C 
ATOM     20  C   UNL     1      -3.576   1.897  24.457  0.00  0.00    +0.073 C 
ATOM     21  N   UNL     1      -2.854   1.543  24.643  0.00  0.00    -0.263 NA
BRANCH  21  22
ATOM     22  C   UNL     1      -2.752   0.799  24.983  0.00  0.00    +0.099 C 
BRANCH  22  23
ATOM     23  C   UNL     1      -3.209   0.162  24.726  0.00  0.00    -0.006 A 
ATOM     24  C   UNL     1      -3.780  -0.163  25.224  0.00  0.00    -0.002 A 
ATOM     25  C   UNL     1      -4.237  -0.801  24.967  0.00  0.00    +0.016 A 
ATOM     26  C   UNL     1      -4.122  -1.112  24.212  0.00  0.00    +0.073 A 
ATOM     31  C   UNL     1      -3.551  -0.787  23.714  0.00  0.00    +0.016 A 
ATOM     32  C   UNL     1      -3.094  -0.150  23.971  0.00  0.00    -0.002 A 
BRANCH  26  27
ATOM     27  N   UNL     1      -4.579  -1.750  23.955  0.00  0.00    -0.179 NA
ATOM     28  C   UNL     1      -4.270  -2.514  23.979  0.00  0.00    +0.246 C 
ATOM     29  C   UNL     1      -3.505  -2.642  24.258  0.00  0.00    +0.097 C 
ATOM     30  O   UNL     1      -4.727  -3.152  23.722  0.00  0.00    -0.273 OA
ENDBRANCH  26  27
ENDBRANCH  22  23
ENDBRANCH  21  22
ENDBRANCH  15  17
TORSDOF 9
ENDMDL
MODEL 9
REMARK VINA RESULT:      -5.4     15.873     17.999
REMARK  Name = 
REMARK  9 active torsions:
REMARK  status: ('A' for Active; 'I' for Inactive)
REMARK    1  A    between atoms: O_2  and  C_3
REMARK    2  A    between atoms: C_3  and  C_4
REMARK    3  A    between atoms: C_4  and  N_5
REMARK    4  A    between atoms: N_5  and  C_6
REMARK    5  A    between atoms: C_9  and  C_12
REMARK    6  A    between atoms: C_15  and  C_17
REMARK    7  A    between atoms: N_21  and  C_22
REMARK    8  A    between atoms: C_22  and  C_23
REMARK    9  A    between atoms: C_26  and  N_27
REMARK                            x       y       z     vdW  Elec       q    Type
REMARK                         _______ _______ _______ _____ _____    ______ ____
ROOT
ATOM     12  C   UNL     1      -8.435  -9.846  11.677  0.00  0.00    +0.205 A 
ATOM     13  N   UNL     1      -8.546 -10.483  11.164  0.00  0.00    -0.056 NA
ATOM     14  O   UNL     1      -8.190 -10.295  10.443  0.00  0.00    -0.336 OA
ATOM     15  C   UNL     1      -7.860  -9.542  10.511  0.00  0.00    +0.251 A 
ATOM     16  N   UNL     1      -8.011  -9.265  11.274  0.00  0.00    -0.190 NA
ENDROOT
BRANCH  12   9
ATOM      6  C   UNL     1      -9.233  -9.707  14.016  0.00  0.00    +0.148 A 
ATOM      7  C   UNL     1      -8.427  -9.781  13.859  0.00  0.00    +0.036 A 
ATOM      8  C   UNL     1      -8.161  -9.828  13.079  0.00  0.00    +0.008 A 
ATOM      9  C   UNL     1      -8.701  -9.800  12.457  0.00  0.00    +0.058 A 
ATOM     10  C   UNL     1      -9.508  -9.725  12.613  0.00  0.00    +0.103 A 
ATOM     11  N   UNL     1      -9.774  -9.679  13.392  0.00  0.00    -0.228 NA
BRANCH   6   5
ATOM      5  N   UNL     1      -9.500  -9.660  14.795  0.00  0.00    -0.218 NA
BRANCH   5   4
ATOM      4  C   UNL     1      -9.474  -8.940  15.197  0.00  0.00    +0.146 C 
BRANCH   4   3
ATOM      3  C   UNL     1      -9.737  -8.894  15.978  0.00  0.00    +0.166 C 
BRANCH   3   2
ATOM      1  C   UNL     1      -9.686  -8.140  17.191  0.00  0.00    +0.174 C 
ATOM      2  O   UNL     1      -9.746  -8.167  16.369  0.00  0.00    -0.349 OA
ENDBRANCH   3   2
ENDBRANCH   4   3
ENDBRANCH   5   4
ENDBRANCH   6   5
ENDBRANCH  12   9
BRANCH  15  17
ATOM     17  C   UNL     1      -7.451  -9.137   9.921  0.00  0.00    +0.138 C 
ATOM     18  C   UNL     1      -7.775  -8.592   9.393  0.00  0.00    +0.027 C 
ATOM     19  C   UNL     1      -7.170  -8.323   8.900  0.00  0.00    +0.019 C 
ATOM     20  C   UNL     1      -6.472  -8.702   9.124  0.00  0.00    +0.073 C 
ATOM     21  N   UNL     1      -6.645  -9.205   9.755  0.00  0.00    -0.263 NA
BRANCH  21  22
ATOM     22  C   UNL     1      -6.108  -9.690  10.150  0.00  0.00    +0.099 C 
BRANCH  22  23
ATOM     23  C   UNL     1      -5.304  -9.507  10.143  0.00  0.00    -0.006 A 
ATOM     24  C   UNL     1      -5.003  -8.947  10.667  0.00  0.00    -0.002 A 
ATOM     25  C   UNL     1      -4.199  -8.764  10.660  0.00  0.00    +0.016 A 
ATOM     26  C   UNL     1      -3.695  -9.142  10.127  0.00  0.00    +0.073 A 
ATOM     31  C   UNL     1      -3.996  -9.702   9.602  0.00  0.00    +0.016 A 
ATOM     32  C   UNL     1      -4.800  -9.885   9.610  0.00  0.00    -0.002 A 
BRANCH  26  27
ATOM     27  N   UNL     1      -2.890  -8.959  10.120  0.00  0.00    -0.179 NA
ATOM     28  C   UNL     1      -2.377  -9.338  10.643  0.00  0.00    +0.246 C 
ATOM     29  C   UNL     1      -2.667  -9.899  11.172  0.00  0.00    +0.097 C 
ATOM     30  O   UNL     1      -1.572  -9.155  10.635  0.00  0.00    -0.273 OA
ENDBRANCH  26  27
ENDBRANCH  22  23
ENDBRANCH  21  22
ENDBRANCH  15  17
TORSDOF 9
ENDMDL
MODEL 10
REMARK VINA RESULT:      -5.2     14.499     16.699
REMARK  Name = 
REMARK  9 active torsions:
REMARK  status: ('A' for Active; 'I' for Inactive)
REMARK    1  A    between atoms: O_2  and  C_3
REMARK    2  A    between atoms: C_3  and  C_4
REMARK    3  A    between atoms: C_4  and  N_5
REMARK    4  A    between atoms: N_5  and  C_6
REMARK    5  A    between atoms: C_9  and  C_12
REMARK    6  A    between atoms: C_15  and  C_17
REMARK    7  A    between atoms: N_21  and  C_22
REMARK    8  A    between atoms: C_22  and  C_23
REMARK    9  A    between atoms: C_26  and  N_27
REMARK                            x       y       z     vdW  Elec       q    Type
REMARK                         _______ _______ _______ _____ _____    ______ ____
ROOT
ATOM     12  C   UNL     1      -6.873 -10.285  13.785  0.00  0.00    +0.205 A 
ATOM     13  N   UNL     1      -7.185 -10.780  13.203  0.00  0.00    -0.056 NA
ATOM     14  O   UNL     1      -6.893 -10.531  12.473  0.00  0.00    -0.336 OA
ATOM     15  C   UNL     1      -6.400  -9.882  12.603  0.00  0.00    +0.251 A 
ATOM     16  N   UNL     1      -6.389  -9.730  13.414  0.00  0.00    -0.190 NA
ENDROOT
BRANCH  12   9
ATOM      6  C   UNL     1      -7.316 -10.437  16.215  0.00  0.00    +0.148 A 
ATOM      7  C   UNL     1      -6.637 -10.780  15.897  0.00  0.00    +0.036 A 
ATOM      8  C   UNL     1      -6.489 -10.729  15.087  0.00  0.00    +0.008 A 
ATOM      9  C   UNL     1      -7.021 -10.335  14.595  0.00  0.00    +0.058 A 
ATOM     10  C   UNL     1      -7.701  -9.992  14.912  0.00  0.00    +0.103 A 
ATOM     11  N   UNL     1      -7.848 -10.042  15.723  0.00  0.00    -0.228 NA
BRANCH   6   5
ATOM      5  N   UNL     1      -7.463 -10.487  17.026  0.00  0.00    -0.218 NA
BRANCH   5   4
ATOM      4  C   UNL     1      -6.856 -10.342  17.565  0.00  0.00    +0.146 C 
BRANCH   4   3
ATOM      3  C   UNL     1      -6.982 -10.467  18.371  0.00  0.00    +0.166 C 
BRANCH   3   2
ATOM      1  C   UNL     1      -6.460 -10.474  19.701  0.00  0.00    +0.174 C 
ATOM      2  O   UNL     1      -6.424 -10.209  18.921  0.00  0.00    -0.349 OA
ENDBRANCH   3   2
ENDBRANCH   4   3
ENDBRANCH   5   4
ENDBRANCH   6   5
ENDBRANCH  12   9
BRANCH  15  17
ATOM     17  C   UNL     1      -5.992  -9.460  12.025  0.00  0.00    +0.138 C 
ATOM     18  C   UNL     1      -6.246  -8.763  11.663  0.00  0.00    +0.027 C 
ATOM     19  C   UNL     1      -5.669  -8.532  11.121  0.00  0.00    +0.019 C 
ATOM     20  C   UNL     1      -5.057  -9.086  11.148  0.00  0.00    +0.073 C 
ATOM     21  N   UNL     1      -5.257  -9.659  11.706  0.00  0.00    -0.263 NA
BRANCH  21  22
ATOM     22  C   UNL     1      -4.802 -10.316  11.911  0.00  0.00    +0.099 C 
BRANCH  22  23
ATOM     23  C   UNL     1      -3.982 -10.293  11.827  0.00  0.00    -0.006 A 
ATOM     24  C   UNL     1      -3.506 -10.121  12.478  0.00  0.00    -0.002 A 
ATOM     25  C   UNL     1      -2.685 -10.098  12.394  0.00  0.00    +0.016 A 
ATOM     26  C   UNL     1      -2.341 -10.245  11.659  0.00  0.00    +0.073 A 
ATOM     31  C   UNL     1      -2.818 -10.417  11.008  0.00  0.00    +0.016 A 
ATOM     32  C   UNL     1      -3.638 -10.440  11.091  0.00  0.00    -0.002 A 
BRANCH  26  27
ATOM     27  N   UNL     1      -1.521 -10.222  11.575  0.00  0.00    -0.179 NA
ATOM     28  C   UNL     1      -1.161  -9.568  11.223  0.00  0.00    +0.246 C 
ATOM     29  C   UNL     1      -1.621  -8.939  10.955  0.00  0.00    +0.097 C 
ATOM     30  O   UNL     1      -0.340  -9.544  11.140  0.00  0.00    -0.273 OA
ENDBRANCH  26  27
ENDBRANCH  22  23
ENDBRANCH  21  22
ENDBRANCH  15  17
TORSDOF 9
ENDMDL
