REMARK  Name = 
REMARK  7 active torsions:
REMARK  status: ('A' for Active; 'I' for Inactive)
REMARK    1  A    between atoms: C_2  and  C_3
REMARK    2  A    between atoms: C_4  and  C_17
REMARK    3  A    between atoms: N_9  and  C_10
REMARK    4  A    between atoms: C_10  and  C_11
REMARK    5  A    between atoms: C_20  and  N_21
REMARK    6  A    between atoms: C_22  and  C_24
REMARK    7  A    between atoms: C_27  and  C_30
REMARK                            x       y       z     vdW  Elec       q    Type
REMARK                         _______ _______ _______ _____ _____    ______ ____
ROOT
ATOM     17  C   UNL     1       2.858  -4.950   0.000  0.00  0.00    +0.006 A 
ATOM     18  C   UNL     1       2.858  -4.125   0.000  0.00  0.00    -0.001 A 
ATOM     19  C   UNL     1       3.572  -3.712   0.000  0.00  0.00    +0.016 A 
ATOM     20  C   UNL     1       4.287  -4.125   0.000  0.00  0.00    +0.074 A 
ATOM     34  C   UNL     1       4.287  -4.950   0.000  0.00  0.00    +0.016 A 
ATOM     35  C   UNL     1       3.572  -5.362   0.000  0.00  0.00    -0.001 A 
ENDROOT
BRANCH  17   4
ATOM      3  C   UNL     1       1.429  -4.950   0.000  0.00  0.00    +0.140 C 
ATOM      4  C   UNL     1       2.143  -5.362   0.000  0.00  0.00    +0.159 C 
ATOM      5  O   UNL     1       2.143  -6.188   0.000  0.00  0.00    -0.341 OA
ATOM      6  C   UNL     1       1.429  -6.600   0.000  0.00  0.00    +0.227 C 
ATOM      7  C   UNL     1       0.715  -6.188   0.000  0.00  0.00    +0.256 C 
ATOM      8  O   UNL     1       0.000  -6.600   0.000  0.00  0.00    -0.272 OA
ATOM      9  N   UNL     1       0.715  -5.362   0.000  0.00  0.00    -0.270 N 
BRANCH   3   2
ATOM      1  O   UNL     1       0.715  -3.712   0.000  0.00  0.00    -0.218 OA
ATOM      2  C   UNL     1       1.429  -4.125   0.000  0.00  0.00    +0.205 C 
ENDBRANCH   3   2
BRANCH   9  10
ATOM     10  C   UNL     1       0.000  -4.950   0.000  0.00  0.00    +0.120 C 
BRANCH  10  11
ATOM     11  C   UNL     1      -0.715  -5.362   0.000  0.00  0.00    +0.001 A 
ATOM     12  C   UNL     1      -0.715  -6.188   0.000  0.00  0.00    +0.018 A 
ATOM     13  C   UNL     1      -1.429  -6.600   0.000  0.00  0.00    +0.099 A 
ATOM     14  N   UNL     1      -2.143  -6.188   0.000  0.00  0.00    -0.242 NA
ATOM     15  C   UNL     1      -2.143  -5.362   0.000  0.00  0.00    +0.099 A 
ATOM     16  C   UNL     1      -1.429  -4.950   0.000  0.00  0.00    +0.018 A 
ENDBRANCH  10  11
ENDBRANCH   9  10
ENDBRANCH  17   4
BRANCH  20  21
ATOM     21  N   UNL     1       5.001  -3.712   0.000  0.00  0.00    -0.175 NA
ATOM     22  C   UNL     1       5.001  -2.888   0.000  0.00  0.00    +0.269 C 
ATOM     23  O   UNL     1       4.287  -2.475   0.000  0.00  0.00    -0.268 OA
BRANCH  22  24
ATOM     24  C   UNL     1       5.716  -2.475   0.000  0.00  0.00    +0.055 A 
ATOM     25  C   UNL     1       5.716  -1.650   0.000  0.00  0.00    +0.005 A 
ATOM     26  C   UNL     1       6.430  -1.238   0.000  0.00  0.00    +0.004 A 
ATOM     27  C   UNL     1       7.145  -1.650   0.000  0.00  0.00    +0.071 A 
ATOM     28  C   UNL     1       7.145  -2.475   0.000  0.00  0.00    +0.004 A 
ATOM     29  C   UNL     1       6.430  -2.888   0.000  0.00  0.00    +0.005 A 
BRANCH  27  30
ATOM     30  C   UNL     1       7.859  -1.238   0.000  0.00  0.00    +0.419 C 
ATOM     31  F   UNL     1       8.574  -0.825   0.000  0.00  0.00    -0.166 F 
ATOM     32  F   UNL     1       8.272  -1.952   0.000  0.00  0.00    -0.166 F 
ATOM     33  F   UNL     1       7.447  -0.523   0.000  0.00  0.00    -0.166 F 
ENDBRANCH  27  30
ENDBRANCH  22  24
ENDBRANCH  20  21
TORSDOF 7
