MODEL 1
REMARK VINA RESULT:     -10.4      0.000      0.000
REMARK  Name = 
REMARK  3 active torsions:
REMARK  status: ('A' for Active; 'I' for Inactive)
REMARK    1  A    between atoms: N_3  and  C_17
REMARK    2  A    between atoms: N_7  and  C_8
REMARK    3  A    between atoms: C_8  and  C_9
REMARK                            x       y       z     vdW  Elec       q    Type
REMARK                         _______ _______ _______ _____ _____    ______ ____
ROOT
ATOM      1  O   UNL     1      -4.982   0.052  25.284  0.00  0.00    -0.252 OA
ATOM      2  C   UNL     1      -4.315   0.315  24.876  0.00  0.00    +0.307 C 
ATOM      3  N   UNL     1      -3.748  -0.163  24.515  0.00  0.00    -0.264 N 
ATOM      4  C   UNL     1      -3.180   0.329  24.174  0.00  0.00    +0.116 C 
ATOM      5  C   UNL     1      -3.396   1.110  24.325  0.00  0.00    +0.113 C 
ATOM      6  C   UNL     1      -3.045   1.830  24.123  0.00  0.00    +0.094 C 
ATOM      7  N   UNL     1      -3.395   2.539  24.355  0.00  0.00    -0.263 NA
ATOM     14  C   UNL     1      -4.097   2.530  24.789  0.00  0.00    +0.094 C 
ATOM     15  C   UNL     1      -4.448   1.812  24.991  0.00  0.00    +0.112 C 
ATOM     16  N   UNL     1      -4.098   1.101  24.759  0.00  0.00    -0.261 N 
ENDROOT
BRANCH   3  17
ATOM     17  C   UNL     1      -3.748  -0.988  24.498  0.00  0.00    +0.077 C 
ATOM     18  C   UNL     1      -3.356  -1.413  25.086  0.00  0.00    +0.020 C 
ATOM     19  C   UNL     1      -3.357  -2.238  25.068  0.00  0.00    +0.002 C 
ATOM     20  C   UNL     1      -3.749  -2.637  24.463  0.00  0.00    +0.000 C 
ATOM     21  C   UNL     1      -4.141  -2.212  23.874  0.00  0.00    +0.002 C 
ATOM     22  C   UNL     1      -4.141  -1.388  23.891  0.00  0.00    +0.020 C 
ENDBRANCH   3  17
BRANCH   7   8
ATOM      8  C   UNL     1      -3.045   3.258  24.154  0.00  0.00    +0.139 C 
BRANCH   8   9
ATOM      9  C   UNL     1      -2.520   3.622  24.675  0.00  0.00    +0.155 A 
ATOM     10  N   UNL     1      -2.721   4.144  25.281  0.00  0.00    -0.226 NA
ATOM     11  C   UNL     1      -2.027   4.373  25.663  0.00  0.00    +0.121 A 
ATOM     12  C   UNL     1      -1.395   3.992  25.292  0.00  0.00    +0.121 A 
ATOM     13  N   UNL     1      -1.700   3.529  24.681  0.00  0.00    -0.226 NA
ENDBRANCH   8   9
ENDBRANCH   7   8
TORSDOF 3
ENDMDL
MODEL 2
REMARK VINA RESULT:      -9.4      1.677      2.043
REMARK  Name = 
REMARK  3 active torsions:
REMARK  status: ('A' for Active; 'I' for Inactive)
REMARK    1  A    between atoms: N_3  and  C_17
REMARK    2  A    between atoms: N_7  and  C_8
REMARK    3  A    between atoms: C_8  and  C_9
REMARK                            x       y       z     vdW  Elec       q    Type
REMARK                         _______ _______ _______ _____ _____    ______ ____
ROOT
ATOM      1  O   UNL     1      -1.232  -0.669  26.071  0.00  0.00    -0.252 OA
ATOM      2  C   UNL     1      -1.549  -0.201  25.469  0.00  0.00    +0.307 C 
ATOM      3  N   UNL     1      -2.152  -0.421  24.952  0.00  0.00    -0.264 N 
ATOM      4  C   UNL     1      -2.295   0.213  24.443  0.00  0.00    +0.116 C 
ATOM      5  C   UNL     1      -1.779   0.823  24.646  0.00  0.00    +0.113 C 
ATOM      6  C   UNL     1      -1.668   1.580  24.335  0.00  0.00    +0.094 C 
ATOM      7  N   UNL     1      -1.098   2.080  24.659  0.00  0.00    -0.263 NA
ATOM     14  C   UNL     1      -0.637   1.824  25.293  0.00  0.00    +0.094 C 
ATOM     15  C   UNL     1      -0.747   1.068  25.604  0.00  0.00    +0.112 C 
ATOM     16  N   UNL     1      -1.318   0.567  25.280  0.00  0.00    -0.261 N 
ENDROOT
BRANCH   3  17
ATOM     17  C   UNL     1      -2.545  -1.146  24.945  0.00  0.00    +0.077 C 
ATOM     18  C   UNL     1      -2.226  -1.785  24.532  0.00  0.00    +0.020 C 
ATOM     19  C   UNL     1      -2.619  -2.510  24.524  0.00  0.00    +0.002 C 
ATOM     20  C   UNL     1      -3.331  -2.597  24.930  0.00  0.00    +0.000 C 
ATOM     21  C   UNL     1      -3.652  -1.959  25.343  0.00  0.00    +0.002 C 
ATOM     22  C   UNL     1      -3.259  -1.233  25.350  0.00  0.00    +0.020 C 
ENDBRANCH   3  17
BRANCH   7   8
ATOM      8  C   UNL     1      -0.988   2.836  24.348  0.00  0.00    +0.139 C 
BRANCH   8   9
ATOM      9  C   UNL     1      -1.345   3.486  24.708  0.00  0.00    +0.155 A 
ATOM     10  N   UNL     1      -2.145   3.682  24.672  0.00  0.00    -0.226 NA
ATOM     11  C   UNL     1      -2.259   4.373  25.109  0.00  0.00    +0.121 A 
ATOM     12  C   UNL     1      -1.528   4.604  25.416  0.00  0.00    +0.121 A 
ATOM     13  N   UNL     1      -0.963   4.056  25.168  0.00  0.00    -0.226 NA
ENDBRANCH   8   9
ENDBRANCH   7   8
TORSDOF 3
ENDMDL
MODEL 3
REMARK VINA RESULT:      -9.4      1.825      5.052
REMARK  Name = 
REMARK  3 active torsions:
REMARK  status: ('A' for Active; 'I' for Inactive)
REMARK    1  A    between atoms: N_3  and  C_17
REMARK    2  A    between atoms: N_7  and  C_8
REMARK    3  A    between atoms: C_8  and  C_9
REMARK                            x       y       z     vdW  Elec       q    Type
REMARK                         _______ _______ _______ _____ _____    ______ ____
ROOT
ATOM      1  O   UNL     1      -0.511   2.474  26.258  0.00  0.00    -0.252 OA
ATOM      2  C   UNL     1      -0.991   2.223  25.635  0.00  0.00    +0.307 C 
ATOM      3  N   UNL     1      -1.406   2.711  25.116  0.00  0.00    -0.264 N 
ATOM      4  C   UNL     1      -1.813   2.230  24.583  0.00  0.00    +0.116 C 
ATOM      5  C   UNL     1      -1.649   1.445  24.774  0.00  0.00    +0.113 C 
ATOM      6  C   UNL     1      -1.896   0.732  24.439  0.00  0.00    +0.094 C 
ATOM      7  N   UNL     1      -1.636   0.016  24.755  0.00  0.00    -0.263 NA
ATOM     14  C   UNL     1      -1.128   0.012  25.405  0.00  0.00    +0.094 C 
ATOM     15  C   UNL     1      -0.881   0.723  25.740  0.00  0.00    +0.112 C 
ATOM     16  N   UNL     1      -1.141   1.440  25.424  0.00  0.00    -0.261 N 
ENDROOT
BRANCH   3  17
ATOM     17  C   UNL     1      -1.414   3.536  25.127  0.00  0.00    +0.077 C 
ATOM     18  C   UNL     1      -0.785   3.959  24.800  0.00  0.00    +0.020 C 
ATOM     19  C   UNL     1      -0.793   4.784  24.811  0.00  0.00    +0.002 C 
ATOM     20  C   UNL     1      -1.428   5.186  25.149  0.00  0.00    +0.000 C 
ATOM     21  C   UNL     1      -2.058   4.764  25.476  0.00  0.00    +0.002 C 
ATOM     22  C   UNL     1      -2.050   3.939  25.465  0.00  0.00    +0.020 C 
ENDBRANCH   3  17
BRANCH   7   8
ATOM      8  C   UNL     1      -1.883  -0.697  24.420  0.00  0.00    +0.139 C 
BRANCH   8   9
ATOM      9  C   UNL     1      -2.593  -1.041  24.659  0.00  0.00    +0.155 A 
ATOM     10  N   UNL     1      -2.701  -1.525  25.318  0.00  0.00    -0.226 NA
ATOM     11  C   UNL     1      -3.496  -1.745  25.347  0.00  0.00    +0.121 A 
ATOM     12  C   UNL     1      -3.880  -1.396  24.705  0.00  0.00    +0.121 A 
ATOM     13  N   UNL     1      -3.322  -0.961  24.280  0.00  0.00    -0.226 NA
ENDBRANCH   8   9
ENDBRANCH   7   8
TORSDOF 3
ENDMDL
MODEL 4
REMARK VINA RESULT:      -9.4      1.273      4.751
REMARK  Name = 
REMARK  3 active torsions:
REMARK  status: ('A' for Active; 'I' for Inactive)
REMARK    1  A    between atoms: N_3  and  C_17
REMARK    2  A    between atoms: N_7  and  C_8
REMARK    3  A    between atoms: C_8  and  C_9
REMARK                            x       y       z     vdW  Elec       q    Type
REMARK                         _______ _______ _______ _____ _____    ______ ____
ROOT
ATOM      1  O   UNL     1      -2.081   2.596  23.224  0.00  0.00    -0.252 OA
ATOM      2  C   UNL     1      -2.425   2.305  23.916  0.00  0.00    +0.307 C 
ATOM      3  N   UNL     1      -2.365   2.644  24.666  0.00  0.00    -0.264 N 
ATOM      4  C   UNL     1      -2.791   2.173  25.193  0.00  0.00    +0.116 C 
ATOM      5  C   UNL     1      -3.114   1.544  24.769  0.00  0.00    +0.113 C 
ATOM      6  C   UNL     1      -3.586   0.907  24.998  0.00  0.00    +0.094 C 
ATOM      7  N   UNL     1      -3.830   0.352  24.439  0.00  0.00    -0.263 NA
ATOM     14  C   UNL     1      -3.603   0.434  23.650  0.00  0.00    +0.094 C 
ATOM     15  C   UNL     1      -3.132   1.070  23.420  0.00  0.00    +0.112 C 
ATOM     16  N   UNL     1      -2.888   1.626  23.980  0.00  0.00    -0.261 N 
ENDROOT
BRANCH   3  17
ATOM     17  C   UNL     1      -1.952   3.332  24.856  0.00  0.00    +0.077 C 
ATOM     18  C   UNL     1      -1.131   3.312  24.936  0.00  0.00    +0.020 C 
ATOM     19  C   UNL     1      -0.718   4.000  25.126  0.00  0.00    +0.002 C 
ATOM     20  C   UNL     1      -1.125   4.708  25.236  0.00  0.00    +0.000 C 
ATOM     21  C   UNL     1      -1.946   4.730  25.157  0.00  0.00    +0.002 C 
ATOM     22  C   UNL     1      -2.359   4.041  24.966  0.00  0.00    +0.020 C 
ENDBRANCH   3  17
BRANCH   7   8
ATOM      8  C   UNL     1      -4.301  -0.285  24.669  0.00  0.00    +0.139 C 
BRANCH   8   9
ATOM      9  C   UNL     1      -3.969  -1.034  24.758  0.00  0.00    +0.155 A 
ATOM     10  N   UNL     1      -3.606  -1.327  25.439  0.00  0.00    -0.226 NA
ATOM     11  C   UNL     1      -3.353  -2.096  25.284  0.00  0.00    +0.121 A 
ATOM     12  C   UNL     1      -3.559  -2.280  24.505  0.00  0.00    +0.121 A 
ATOM     13  N   UNL     1      -3.939  -1.624  24.181  0.00  0.00    -0.226 NA
ENDBRANCH   8   9
ENDBRANCH   7   8
TORSDOF 3
ENDMDL
