REMARK  Name = 
REMARK  7 active torsions:
REMARK  status: ('A' for Active; 'I' for Inactive)
REMARK    1  A    between atoms: C_4  and  C_27
REMARK    2  A    between atoms: C_6  and  C_7
REMARK    3  A    between atoms: C_14  and  C_15
REMARK    4  A    between atoms: C_15  and  N_16
REMARK    5  A    between atoms: N_16  and  S_17
REMARK    6  A    between atoms: S_17  and  C_20
REMARK    7  A    between atoms: C_20  and  C_21
REMARK                            x       y       z     vdW  Elec       q    Type
REMARK                         _______ _______ _______ _____ _____    ______ ____
ROOT
ATOM      7  C   UNL     1       1.661  -1.343   0.000  0.00  0.00    +0.056 C 
ATOM      8  C   UNL     1       1.814  -2.106   0.000  0.00  0.00    +0.078 C 
ATOM      9  N   UNL     1       1.065  -1.759   0.000  0.00  0.00    -0.272 NA
ATOM     10  C   UNL     1       1.205  -0.720   0.000  0.00  0.00    +0.072 C 
ATOM     11  C   UNL     1       0.961  -0.114   0.000  0.00  0.00    +0.018 C 
ATOM     12  C   UNL     1       0.923  -1.010   0.000  0.00  0.00    +0.010 C 
ATOM     13  C   UNL     1       0.119  -1.362   0.000  0.00  0.00    +0.018 C 
ATOM     14  C   UNL     1       0.226  -2.118   0.000  0.00  0.00    +0.077 C 
ENDROOT
BRANCH   7   6
ATOM      1  C   UNL     1       1.582   0.451   0.000  0.00  0.00    +0.153 C 
ATOM      2  N   UNL     1       2.270  -0.004   0.000  0.00  0.00    -0.253 N 
ATOM      3  N   UNL     1       3.043   0.285   0.000  0.00  0.00    -0.169 NA
ATOM      4  C   UNL     1       3.557  -0.360   0.000  0.00  0.00    +0.108 A 
ATOM      5  C   UNL     1       3.102  -1.048   0.000  0.00  0.00    +0.036 A 
ATOM      6  C   UNL     1       2.307  -0.828   0.000  0.00  0.00    +0.058 A 
BRANCH   4  27
ATOM     27  C   UNL     1       4.381  -0.323   0.000  0.00  0.00    +0.049 A 
ATOM     28  C   UNL     1       4.836   0.365   0.000  0.00  0.00    +0.009 A 
ATOM     29  C   UNL     1       5.631   0.145   0.000  0.00  0.00    +0.008 A 
ATOM     30  C   UNL     1       5.667  -0.679   0.000  0.00  0.00    +0.035 A 
ATOM     31  S   UNL     1       4.895  -0.969   0.000  0.00  0.00    -0.085 S 
ENDBRANCH   4  27
ENDBRANCH   7   6
BRANCH  14  15
ATOM     15  C   UNL     1      -0.179  -2.836   0.000  0.00  0.00    +0.131 C 
BRANCH  15  16
ATOM     16  N   UNL     1      -1.004  -2.845   0.000  0.00  0.00    -0.080 NA
BRANCH  16  17
ATOM     17  S   UNL     1      -1.408  -3.564   0.000  0.00  0.00    +0.062 S 
ATOM     18  O   UNL     1      -0.690  -3.969   0.000  0.00  0.00    -0.156 OA
ATOM     19  O   UNL     1      -2.127  -3.159   0.000  0.00  0.00    -0.156 OA
BRANCH  17  20
ATOM     20  C   UNL     1      -1.813  -4.283   0.000  0.00  0.00    +0.197 C 
BRANCH  20  21
ATOM     21  C   UNL     1      -2.638  -4.292   0.000  0.00  0.00    +0.003 A 
ATOM     22  C   UNL     1      -3.043  -5.011   0.000  0.00  0.00    -0.003 A 
ATOM     23  C   UNL     1      -3.868  -5.019   0.000  0.00  0.00    -0.000 A 
ATOM     24  C   UNL     1      -4.288  -4.309   0.000  0.00  0.00    -0.000 A 
ATOM     25  C   UNL     1      -3.883  -3.591   0.000  0.00  0.00    -0.000 A 
ATOM     26  C   UNL     1      -3.058  -3.582   0.000  0.00  0.00    -0.003 A 
ENDBRANCH  20  21
ENDBRANCH  17  20
ENDBRANCH  16  17
ENDBRANCH  15  16
ENDBRANCH  14  15
TORSDOF 7
