MODEL 1
REMARK VINA RESULT:     -12.4      0.000      0.000
REMARK  Name = 
REMARK  4 active torsions:
REMARK  status: ('A' for Active; 'I' for Inactive)
REMARK    1  A    between atoms: C_7  and  C_8
REMARK    2  A    between atoms: C_14  and  N_15
REMARK    3  A    between atoms: C_16  and  C_18
REMARK    4  A    between atoms: C_21  and  C_24
REMARK                            x       y       z     vdW  Elec       q    Type
REMARK                         _______ _______ _______ _____ _____    ______ ____
ROOT
ATOM      8  C   UNL     1      -3.773   2.671  24.660  0.00  0.00    +0.047 C 
ATOM      9  C   UNL     1      -4.199   3.349  24.857  0.00  0.00    +0.042 C 
ATOM     10  C   UNL     1      -4.973   3.123  25.030  0.00  0.00    +0.184 C 
ATOM     11  O   UNL     1      -5.587   3.627  25.254  0.00  0.00    -0.220 OA
ATOM     12  C   UNL     1      -5.025   2.305  24.941  0.00  0.00    +0.202 C 
ATOM     13  O   UNL     1      -5.701   1.846  25.059  0.00  0.00    -0.219 OA
ATOM     14  C   UNL     1      -4.284   2.025  24.712  0.00  0.00    +0.132 C 
ENDROOT
BRANCH   8   7
ATOM      1  C   UNL     1      -2.619   3.182  25.722  0.00  0.00    +0.031 C 
ATOM      2  C   UNL     1      -2.400   2.899  24.979  0.00  0.00    -0.026 A 
ATOM      3  C   UNL     1      -1.602   2.871  24.767  0.00  0.00    -0.005 A 
ATOM      4  C   UNL     1      -1.382   2.588  24.024  0.00  0.00    -0.000 A 
ATOM      5  C   UNL     1      -1.959   2.332  23.493  0.00  0.00    -0.000 A 
ATOM      6  C   UNL     1      -2.757   2.360  23.706  0.00  0.00    -0.005 A 
ATOM      7  C   UNL     1      -2.976   2.643  24.448  0.00  0.00    -0.025 A 
ENDBRANCH   8   7
BRANCH  14  15
ATOM     15  N   UNL     1      -4.087   1.239  24.561  0.00  0.00    -0.200 NA
ATOM     16  C   UNL     1      -4.364   0.642  25.059  0.00  0.00    +0.265 C 
ATOM     17  O   UNL     1      -4.837   0.832  25.708  0.00  0.00    -0.268 OA
BRANCH  16  18
ATOM     18  C   UNL     1      -4.168  -0.145  24.909  0.00  0.00    +0.055 A 
ATOM     19  C   UNL     1      -4.389  -0.497  24.196  0.00  0.00    +0.005 A 
ATOM     20  C   UNL     1      -4.192  -1.284  24.045  0.00  0.00    +0.010 A 
ATOM     21  C   UNL     1      -3.775  -1.719  24.608  0.00  0.00    +0.068 A 
ATOM     22  C   UNL     1      -3.553  -1.368  25.321  0.00  0.00    +0.010 A 
ATOM     23  C   UNL     1      -3.750  -0.580  25.472  0.00  0.00    +0.005 A 
BRANCH  21  24
ATOM     24  C   UNL     1      -3.578  -2.507  24.458  0.00  0.00    +0.100 C 
ATOM     25  N   UNL     1      -3.382  -3.293  24.308  0.00  0.00    -0.191 NA
ENDBRANCH  21  24
ENDBRANCH  16  18
ENDBRANCH  14  15
TORSDOF 4
ENDMDL
MODEL 2
REMARK VINA RESULT:     -11.6      1.616      3.802
REMARK  Name = 
REMARK  4 active torsions:
REMARK  status: ('A' for Active; 'I' for Inactive)
REMARK    1  A    between atoms: C_7  and  C_8
REMARK    2  A    between atoms: C_14  and  N_15
REMARK    3  A    between atoms: C_16  and  C_18
REMARK    4  A    between atoms: C_21  and  C_24
REMARK                            x       y       z     vdW  Elec       q    Type
REMARK                         _______ _______ _______ _____ _____    ______ ____
ROOT
ATOM      8  C   UNL     1      -4.251   0.235  24.940  0.00  0.00    +0.047 C 
ATOM      9  C   UNL     1      -5.033   0.472  25.055  0.00  0.00    +0.042 C 
ATOM     10  C   UNL     1      -5.084   1.275  24.875  0.00  0.00    +0.184 C 
ATOM     11  O   UNL     1      -5.767   1.738  24.914  0.00  0.00    -0.220 OA
ATOM     12  C   UNL     1      -4.335   1.535  24.649  0.00  0.00    +0.202 C 
ATOM     13  O   UNL     1      -4.135   2.304  24.423  0.00  0.00    -0.219 OA
ATOM     14  C   UNL     1      -3.819   0.893  24.689  0.00  0.00    +0.132 C 
ENDROOT
BRANCH   8   7
ATOM      1  C   UNL     1      -4.377  -0.891  23.741  0.00  0.00    +0.031 C 
ATOM      2  C   UNL     1      -4.016  -1.088  24.456  0.00  0.00    -0.026 A 
ATOM      3  C   UNL     1      -3.717  -1.849  24.572  0.00  0.00    -0.005 A 
ATOM      4  C   UNL     1      -3.356  -2.046  25.286  0.00  0.00    -0.000 A 
ATOM      5  C   UNL     1      -3.293  -1.483  25.885  0.00  0.00    -0.000 A 
ATOM      6  C   UNL     1      -3.592  -0.722  25.770  0.00  0.00    -0.005 A 
ATOM      7  C   UNL     1      -3.953  -0.525  25.055  0.00  0.00    -0.025 A 
ENDBRANCH   8   7
BRANCH  14  15
ATOM     15  N   UNL     1      -3.015   0.905  24.511  0.00  0.00    -0.200 NA
ATOM     16  C   UNL     1      -2.535   1.505  24.810  0.00  0.00    +0.265 C 
ATOM     17  O   UNL     1      -2.859   2.093  25.289  0.00  0.00    -0.268 OA
BRANCH  16  18
ATOM     18  C   UNL     1      -1.729   1.517  24.632  0.00  0.00    +0.055 A 
ATOM     19  C   UNL     1      -1.480   1.480  23.846  0.00  0.00    +0.005 A 
ATOM     20  C   UNL     1      -0.675   1.493  23.667  0.00  0.00    +0.010 A 
ATOM     21  C   UNL     1      -0.118   1.541  24.274  0.00  0.00    +0.068 A 
ATOM     22  C   UNL     1      -0.367   1.578  25.060  0.00  0.00    +0.010 A 
ATOM     23  C   UNL     1      -1.173   1.566  25.239  0.00  0.00    +0.005 A 
BRANCH  21  24
ATOM     24  C   UNL     1       0.687   1.554  24.096  0.00  0.00    +0.100 C 
ATOM     25  N   UNL     1       1.492   1.566  23.917  0.00  0.00    -0.191 NA
ENDBRANCH  21  24
ENDBRANCH  16  18
ENDBRANCH  14  15
TORSDOF 4
ENDMDL
MODEL 3
REMARK VINA RESULT:     -11.5      1.493      2.414
REMARK  Name = 
REMARK  4 active torsions:
REMARK  status: ('A' for Active; 'I' for Inactive)
REMARK    1  A    between atoms: C_7  and  C_8
REMARK    2  A    between atoms: C_14  and  N_15
REMARK    3  A    between atoms: C_16  and  C_18
REMARK    4  A    between atoms: C_21  and  C_24
REMARK                            x       y       z     vdW  Elec       q    Type
REMARK                         _______ _______ _______ _____ _____    ______ ____
ROOT
ATOM      8  C   UNL     1      -4.396   2.493  24.353  0.00  0.00    +0.047 C 
ATOM      9  C   UNL     1      -4.149   3.220  24.051  0.00  0.00    +0.042 C 
ATOM     10  C   UNL     1      -3.525   3.081  23.531  0.00  0.00    +0.184 C 
ATOM     11  O   UNL     1      -3.112   3.655  23.105  0.00  0.00    -0.220 OA
ATOM     12  C   UNL     1      -3.385   2.268  23.511  0.00  0.00    +0.202 C 
ATOM     13  O   UNL     1      -2.808   1.886  23.061  0.00  0.00    -0.219 OA
ATOM     14  C   UNL     1      -3.923   1.905  24.019  0.00  0.00    +0.132 C 
ENDROOT
BRANCH   8   7
ATOM      1  C   UNL     1      -4.347   3.232  25.828  0.00  0.00    +0.031 C 
ATOM      2  C   UNL     1      -4.983   2.744  25.631  0.00  0.00    -0.026 A 
ATOM      3  C   UNL     1      -5.595   2.626  26.172  0.00  0.00    -0.005 A 
ATOM      4  C   UNL     1      -6.231   2.138  25.976  0.00  0.00    -0.000 A 
ATOM      5  C   UNL     1      -6.255   1.769  25.239  0.00  0.00    -0.000 A 
ATOM      6  C   UNL     1      -5.643   1.888  24.698  0.00  0.00    -0.005 A 
ATOM      7  C   UNL     1      -5.007   2.375  24.894  0.00  0.00    -0.025 A 
ENDBRANCH   8   7
BRANCH  14  15
ATOM     15  N   UNL     1      -3.980   1.096  24.167  0.00  0.00    -0.200 NA
ATOM     16  C   UNL     1      -3.300   0.658  24.328  0.00  0.00    +0.265 C 
ATOM     17  O   UNL     1      -2.563   1.029  24.341  0.00  0.00    -0.268 OA
BRANCH  16  18
ATOM     18  C   UNL     1      -3.356  -0.152  24.476  0.00  0.00    +0.055 A 
ATOM     19  C   UNL     1      -3.078  -0.462  25.189  0.00  0.00    +0.005 A 
ATOM     20  C   UNL     1      -3.135  -1.272  25.337  0.00  0.00    +0.010 A 
ATOM     21  C   UNL     1      -3.469  -1.772  24.772  0.00  0.00    +0.068 A 
ATOM     22  C   UNL     1      -3.746  -1.462  24.060  0.00  0.00    +0.010 A 
ATOM     23  C   UNL     1      -3.690  -0.652  23.911  0.00  0.00    +0.005 A 
BRANCH  21  24
ATOM     24  C   UNL     1      -3.525  -2.582  24.921  0.00  0.00    +0.100 C 
ATOM     25  N   UNL     1      -3.581  -3.391  25.069  0.00  0.00    -0.191 NA
ENDBRANCH  21  24
ENDBRANCH  16  18
ENDBRANCH  14  15
TORSDOF 4
ENDMDL
MODEL 4
REMARK VINA RESULT:     -11.5      2.532      4.939
REMARK  Name = 
REMARK  4 active torsions:
REMARK  status: ('A' for Active; 'I' for Inactive)
REMARK    1  A    between atoms: C_7  and  C_8
REMARK    2  A    between atoms: C_14  and  N_15
REMARK    3  A    between atoms: C_16  and  C_18
REMARK    4  A    between atoms: C_21  and  C_24
REMARK                            x       y       z     vdW  Elec       q    Type
REMARK                         _______ _______ _______ _____ _____    ______ ____
ROOT
ATOM      8  C   UNL     1      -2.222  -0.518  24.703  0.00  0.00    +0.047 C 
ATOM      9  C   UNL     1      -1.942  -1.293  24.721  0.00  0.00    +0.042 C 
ATOM     10  C   UNL     1      -1.118  -1.267  24.710  0.00  0.00    +0.184 C 
ATOM     11  O   UNL     1      -0.611  -1.919  24.722  0.00  0.00    -0.220 OA
ATOM     12  C   UNL     1      -0.888  -0.475  24.686  0.00  0.00    +0.202 C 
ATOM     13  O   UNL     1      -0.111  -0.196  24.668  0.00  0.00    -0.219 OA
ATOM     14  C   UNL     1      -1.570  -0.012  24.681  0.00  0.00    +0.132 C 
ENDROOT
BRANCH   8   7
ATOM      1  C   UNL     1      -3.199  -0.946  25.962  0.00  0.00    +0.031 C 
ATOM      2  C   UNL     1      -3.502  -0.502  25.336  0.00  0.00    -0.026 A 
ATOM      3  C   UNL     1      -4.295  -0.271  25.339  0.00  0.00    -0.005 A 
ATOM      4  C   UNL     1      -4.599   0.172  24.714  0.00  0.00    -0.000 A 
ATOM      5  C   UNL     1      -4.110   0.386  24.085  0.00  0.00    -0.000 A 
ATOM      6  C   UNL     1      -3.317   0.156  24.082  0.00  0.00    -0.005 A 
ATOM      7  C   UNL     1      -3.014  -0.288  24.707  0.00  0.00    -0.025 A 
ENDBRANCH   8   7
BRANCH  14  15
ATOM     15  N   UNL     1      -1.596   0.812  24.659  0.00  0.00    -0.200 NA
ATOM     16  C   UNL     1      -1.128   1.253  25.175  0.00  0.00    +0.265 C 
ATOM     17  O   UNL     1      -0.633   0.871  25.713  0.00  0.00    -0.268 OA
BRANCH  16  18
ATOM     18  C   UNL     1      -1.154   2.078  25.153  0.00  0.00    +0.055 A 
ATOM     19  C   UNL     1      -1.448   2.499  25.799  0.00  0.00    +0.005 A 
ATOM     20  C   UNL     1      -1.474   3.323  25.777  0.00  0.00    +0.010 A 
ATOM     21  C   UNL     1      -1.206   3.726  25.109  0.00  0.00    +0.068 A 
ATOM     22  C   UNL     1      -0.912   3.306  24.463  0.00  0.00    +0.010 A 
ATOM     23  C   UNL     1      -0.886   2.481  24.485  0.00  0.00    +0.005 A 
BRANCH  21  24
ATOM     24  C   UNL     1      -1.233   4.551  25.087  0.00  0.00    +0.100 C 
ATOM     25  N   UNL     1      -1.259   5.375  25.065  0.00  0.00    -0.191 NA
ENDBRANCH  21  24
ENDBRANCH  16  18
ENDBRANCH  14  15
TORSDOF 4
ENDMDL
MODEL 5
REMARK VINA RESULT:     -11.5      2.122      4.400
REMARK  Name = 
REMARK  4 active torsions:
REMARK  status: ('A' for Active; 'I' for Inactive)
REMARK    1  A    between atoms: C_7  and  C_8
REMARK    2  A    between atoms: C_14  and  N_15
REMARK    3  A    between atoms: C_16  and  C_18
REMARK    4  A    between atoms: C_21  and  C_24
REMARK                            x       y       z     vdW  Elec       q    Type
REMARK                         _______ _______ _______ _____ _____    ______ ____
ROOT
ATOM      8  C   UNL     1      -1.845  -0.080  24.530  0.00  0.00    +0.047 C 
ATOM      9  C   UNL     1      -1.123  -0.317  24.210  0.00  0.00    +0.042 C 
ATOM     10  C   UNL     1      -0.696   0.361  24.016  0.00  0.00    +0.184 C 
ATOM     11  O   UNL     1       0.058   0.379  23.680  0.00  0.00    -0.220 OA
ATOM     12  C   UNL     1      -1.153   1.017  24.216  0.00  0.00    +0.202 C 
ATOM     13  O   UNL     1      -0.938   1.808  24.116  0.00  0.00    -0.219 OA
ATOM     14  C   UNL     1      -1.864   0.745  24.534  0.00  0.00    +0.132 C 
ENDROOT
BRANCH   8   7
ATOM      1  C   UNL     1      -1.782  -0.692  26.062  0.00  0.00    +0.031 C 
ATOM      2  C   UNL     1      -2.412  -0.885  25.565  0.00  0.00    -0.026 A 
ATOM      3  C   UNL     1      -3.011  -1.386  25.835  0.00  0.00    -0.005 A 
ATOM      4  C   UNL     1      -3.641  -1.579  25.339  0.00  0.00    -0.000 A 
ATOM      5  C   UNL     1      -3.672  -1.274  24.574  0.00  0.00    -0.000 A 
ATOM      6  C   UNL     1      -3.073  -0.773  24.304  0.00  0.00    -0.005 A 
ATOM      7  C   UNL     1      -2.443  -0.580  24.800  0.00  0.00    -0.025 A 
ENDBRANCH   8   7
BRANCH  14  15
ATOM     15  N   UNL     1      -2.484   1.214  24.808  0.00  0.00    -0.200 NA
ATOM     16  C   UNL     1      -2.773   1.829  24.340  0.00  0.00    +0.265 C 
ATOM     17  O   UNL     1      -2.442   1.974  23.598  0.00  0.00    -0.268 OA
BRANCH  16  18
ATOM     18  C   UNL     1      -3.394   2.299  24.613  0.00  0.00    +0.055 A 
ATOM     19  C   UNL     1      -4.138   2.246  24.261  0.00  0.00    +0.005 A 
ATOM     20  C   UNL     1      -4.759   2.716  24.535  0.00  0.00    +0.010 A 
ATOM     21  C   UNL     1      -4.635   3.239  25.161  0.00  0.00    +0.068 A 
ATOM     22  C   UNL     1      -3.890   3.292  25.513  0.00  0.00    +0.010 A 
ATOM     23  C   UNL     1      -3.270   2.822  25.239  0.00  0.00    +0.005 A 
BRANCH  21  24
ATOM     24  C   UNL     1      -5.255   3.709  25.434  0.00  0.00    +0.100 C 
ATOM     25  N   UNL     1      -5.875   4.179  25.708  0.00  0.00    -0.191 NA
ENDBRANCH  21  24
ENDBRANCH  16  18
ENDBRANCH  14  15
TORSDOF 4
ENDMDL
MODEL 6
REMARK VINA RESULT:     -11.2      2.472      3.155
REMARK  Name = 
REMARK  4 active torsions:
REMARK  status: ('A' for Active; 'I' for Inactive)
REMARK    1  A    between atoms: C_7  and  C_8
REMARK    2  A    between atoms: C_14  and  N_15
REMARK    3  A    between atoms: C_16  and  C_18
REMARK    4  A    between atoms: C_21  and  C_24
REMARK                            x       y       z     vdW  Elec       q    Type
REMARK                         _______ _______ _______ _____ _____    ______ ____
ROOT
ATOM      8  C   UNL     1      -2.336   3.646  24.927  0.00  0.00    +0.047 C 
ATOM      9  C   UNL     1      -2.085   4.425  25.024  0.00  0.00    +0.042 C 
ATOM     10  C   UNL     1      -1.260   4.426  25.042  0.00  0.00    +0.184 C 
ATOM     11  O   UNL     1      -0.778   5.090  25.131  0.00  0.00    -0.220 OA
ATOM     12  C   UNL     1      -1.002   3.648  24.956  0.00  0.00    +0.202 C 
ATOM     13  O   UNL     1      -0.216   3.396  24.944  0.00  0.00    -0.219 OA
ATOM     14  C   UNL     1      -1.667   3.165  24.885  0.00  0.00    +0.132 C 
ENDROOT
BRANCH   8   7
ATOM      1  C   UNL     1      -3.357   3.878  26.202  0.00  0.00    +0.031 C 
ATOM      2  C   UNL     1      -3.629   3.507  25.517  0.00  0.00    -0.026 A 
ATOM      3  C   UNL     1      -4.414   3.252  25.470  0.00  0.00    -0.005 A 
ATOM      4  C   UNL     1      -4.686   2.882  24.786  0.00  0.00    -0.000 A 
ATOM      5  C   UNL     1      -4.176   2.766  24.149  0.00  0.00    -0.000 A 
ATOM      6  C   UNL     1      -3.392   3.021  24.196  0.00  0.00    -0.005 A 
ATOM      7  C   UNL     1      -3.120   3.391  24.880  0.00  0.00    -0.025 A 
ENDBRANCH   8   7
BRANCH  14  15
ATOM     15  N   UNL     1      -1.663   2.346  24.789  0.00  0.00    -0.200 NA
ATOM     16  C   UNL     1      -1.167   1.878  25.253  0.00  0.00    +0.265 C 
ATOM     17  O   UNL     1      -0.675   2.230  25.814  0.00  0.00    -0.268 OA
BRANCH  16  18
ATOM     18  C   UNL     1      -1.164   1.059  25.157  0.00  0.00    +0.055 A 
ATOM     19  C   UNL     1      -0.874   0.727  24.459  0.00  0.00    +0.005 A 
ATOM     20  C   UNL     1      -0.870  -0.093  24.363  0.00  0.00    +0.010 A 
ATOM     21  C   UNL     1      -1.156  -0.580  24.964  0.00  0.00    +0.068 A 
ATOM     22  C   UNL     1      -1.446  -0.248  25.662  0.00  0.00    +0.010 A 
ATOM     23  C   UNL     1      -1.450   0.572  25.758  0.00  0.00    +0.005 A 
BRANCH  21  24
ATOM     24  C   UNL     1      -1.153  -1.400  24.868  0.00  0.00    +0.100 C 
ATOM     25  N   UNL     1      -1.149  -2.218  24.772  0.00  0.00    -0.191 NA
ENDBRANCH  21  24
ENDBRANCH  16  18
ENDBRANCH  14  15
TORSDOF 4
ENDMDL
