MODEL 1
REMARK VINA RESULT:      -9.6      0.000      0.000
REMARK  Name = 
REMARK  9 active torsions:
REMARK  status: ('A' for Active; 'I' for Inactive)
REMARK    1  A    between atoms: O_2  and  C_3
REMARK    2  A    between atoms: C_5  and  N_6
REMARK    3  A    between atoms: N_9  and  C_10
REMARK    4  A    between atoms: C_14  and  C_15
REMARK    5  A    between atoms: N_17  and  C_18
REMARK    6  A    between atoms: C_18  and  C_19
REMARK    7  A    between atoms: C_18  and  C_25
REMARK    8  A    between atoms: C_19  and  C_20
REMARK    9  A    between atoms: C_28  and  C_30
REMARK                            x       y       z     vdW  Elec       q    Type
REMARK                         _______ _______ _______ _____ _____    ______ ____
ROOT
ATOM     10  C   UNL     1      -0.280  -0.046  24.086  0.00  0.00    +0.126 C 
ATOM     11  C   UNL     1      -0.277  -0.833  23.840  0.00  0.00    +0.045 C 
ATOM     12  C   UNL     1      -0.924  -1.211  24.184  0.00  0.00    +0.096 C 
ATOM     13  N   UNL     1      -1.328  -0.656  24.643  0.00  0.00    -0.268 N 
ATOM     14  C   UNL     1      -0.929   0.064  24.582  0.00  0.00    +0.174 C 
ATOM     28  C   UNL     1      -2.010  -0.796  25.085  0.00  0.00    +0.249 C 
ATOM     29  O   UNL     1      -2.353  -0.185  25.519  0.00  0.00    -0.270 OA
ENDROOT
BRANCH  10   9
ATOM      6  N   UNL     1       1.526   0.888  23.293  0.00  0.00    -0.161 NA
ATOM      7  C   UNL     1       0.976   0.311  23.506  0.00  0.00    +0.344 C 
ATOM      8  O   UNL     1       1.133  -0.485  23.353  0.00  0.00    -0.249 OA
ATOM      9  N   UNL     1       0.271   0.531  23.872  0.00  0.00    -0.186 NA
BRANCH   6   5
ATOM      3  C   UNL     1       3.661   0.680  22.890  0.00  0.00    +0.140 A 
ATOM      4  C   UNL     1       2.955   0.898  23.256  0.00  0.00    +0.054 A 
ATOM      5  C   UNL     1       2.234   0.669  22.927  0.00  0.00    +0.078 A 
ATOM     34  C   UNL     1       2.219   0.223  22.233  0.00  0.00    +0.017 A 
ATOM     35  C   UNL     1       2.926   0.005  21.868  0.00  0.00    +0.004 A 
ATOM     36  C   UNL     1       3.647   0.233  22.196  0.00  0.00    +0.037 A 
BRANCH   3   2
ATOM      1  C   UNL     1       4.986   0.354  23.318  0.00  0.00    +0.252 C 
ATOM      2  O   UNL     1       4.383   0.909  23.218  0.00  0.00    -0.471 OA
ENDBRANCH   3   2
ENDBRANCH   6   5
ENDBRANCH  10   9
BRANCH  28  30
ATOM     30  C   UNL     1      -2.348  -1.549  25.093  0.00  0.00    +0.049 C 
ATOM     31  C   UNL     1      -3.124  -1.650  25.356  0.00  0.00    -0.039 C 
ATOM     32  C   UNL     1      -3.462  -2.402  25.364  0.00  0.00    +0.027 C 
ATOM     33  C   UNL     1      -3.561  -0.998  25.612  0.00  0.00    +0.027 C 
ENDBRANCH  28  30
BRANCH  14  15
ATOM     15  C   UNL     1      -1.143   0.769  24.952  0.00  0.00    +0.262 C 
ATOM     16  O   UNL     1      -1.047   0.853  25.767  0.00  0.00    -0.271 OA
ATOM     17  N   UNL     1      -1.452   1.392  24.507  0.00  0.00    -0.196 NA
BRANCH  17  18
ATOM     18  C   UNL     1      -1.665   2.097  24.877  0.00  0.00    +0.179 C 
BRANCH  18  25
ATOM     25  C   UNL     1      -1.098   2.679  25.015  0.00  0.00    +0.281 C 
ATOM     26  N   UNL     1      -0.920   2.909  25.787  0.00  0.00    -0.086 NA
ATOM     27  O   UNL     1      -0.708   3.034  24.379  0.00  0.00    -0.270 OA
ENDBRANCH  18  25
BRANCH  18  19
ATOM     19  C   UNL     1      -2.447   2.220  25.111  0.00  0.00    +0.064 C 
BRANCH  19  20
ATOM     20  C   UNL     1      -2.984   2.568  24.590  0.00  0.00    +0.010 A 
ATOM     21  C   UNL     1      -3.092   2.365  23.798  0.00  0.00    +0.003 A 
ATOM     22  C   UNL     1      -3.682   2.852  23.490  0.00  0.00    +0.007 A 
ATOM     23  C   UNL     1      -3.939   3.355  24.091  0.00  0.00    +0.035 A 
ATOM     24  S   UNL     1      -3.508   3.180  24.772  0.00  0.00    -0.091 S 
ENDBRANCH  19  20
ENDBRANCH  18  19
ENDBRANCH  17  18
ENDBRANCH  14  15
TORSDOF 9
ENDMDL
MODEL 2
REMARK VINA RESULT:      -9.5      1.425      3.115
REMARK  Name = 
REMARK  9 active torsions:
REMARK  status: ('A' for Active; 'I' for Inactive)
REMARK    1  A    between atoms: O_2  and  C_3
REMARK    2  A    between atoms: C_5  and  N_6
REMARK    3  A    between atoms: N_9  and  C_10
REMARK    4  A    between atoms: C_14  and  C_15
REMARK    5  A    between atoms: N_17  and  C_18
REMARK    6  A    between atoms: C_18  and  C_19
REMARK    7  A    between atoms: C_18  and  C_25
REMARK    8  A    between atoms: C_19  and  C_20
REMARK    9  A    between atoms: C_28  and  C_30
REMARK                            x       y       z     vdW  Elec       q    Type
REMARK                         _______ _______ _______ _____ _____    ______ ____
ROOT
ATOM     10  C   UNL     1      -1.023   1.021  23.841  0.00  0.00    +0.126 C 
ATOM     11  C   UNL     1      -1.033   1.687  23.354  0.00  0.00    +0.045 C 
ATOM     12  C   UNL     1      -1.714   2.119  23.528  0.00  0.00    +0.096 C 
ATOM     13  N   UNL     1      -2.124   1.720  24.123  0.00  0.00    -0.268 N 
ATOM     14  C   UNL     1      -1.697   1.041  24.316  0.00  0.00    +0.174 C 
ATOM     28  C   UNL     1      -2.836   1.958  24.465  0.00  0.00    +0.249 C 
ATOM     29  O   UNL     1      -3.182   1.500  25.057  0.00  0.00    -0.270 OA
ENDROOT
BRANCH  10   9
ATOM      6  N   UNL     1       0.823  -0.058  23.403  0.00  0.00    -0.161 NA
ATOM      7  C   UNL     1       0.241   0.526  23.394  0.00  0.00    +0.344 C 
ATOM      8  O   UNL     1       0.341   1.200  22.927  0.00  0.00    -0.249 OA
ATOM      9  N   UNL     1      -0.440   0.436  23.850  0.00  0.00    -0.186 NA
BRANCH   6   5
ATOM      3  C   UNL     1       2.833   0.535  22.793  0.00  0.00    +0.140 A 
ATOM      4  C   UNL     1       2.152   0.446  23.249  0.00  0.00    +0.054 A 
ATOM      5  C   UNL     1       1.506   0.031  22.947  0.00  0.00    +0.078 A 
ATOM     34  C   UNL     1       1.541  -0.294  22.189  0.00  0.00    +0.017 A 
ATOM     35  C   UNL     1       2.223  -0.205  21.734  0.00  0.00    +0.004 A 
ATOM     36  C   UNL     1       2.870   0.210  22.035  0.00  0.00    +0.037 A 
BRANCH   3   2
ATOM      1  C   UNL     1       4.245   0.667  22.973  0.00  0.00    +0.252 C 
ATOM      2  O   UNL     1       3.480   0.949  23.095  0.00  0.00    -0.471 OA
ENDBRANCH   3   2
ENDBRANCH   6   5
ENDBRANCH  10   9
BRANCH  28  30
ATOM     30  C   UNL     1      -3.201   2.654  24.214  0.00  0.00    +0.049 C 
ATOM     31  C   UNL     1      -3.955   2.846  24.489  0.00  0.00    -0.039 C 
ATOM     32  C   UNL     1      -4.321   3.542  24.238  0.00  0.00    +0.027 C 
ATOM     33  C   UNL     1      -4.344   2.343  25.014  0.00  0.00    +0.027 C 
ENDBRANCH  28  30
BRANCH  14  15
ATOM     15  C   UNL     1      -1.906   0.482  24.884  0.00  0.00    +0.262 C 
ATOM     16  O   UNL     1      -1.884   0.678  25.685  0.00  0.00    -0.271 OA
ATOM     17  N   UNL     1      -2.138  -0.276  24.651  0.00  0.00    -0.196 NA
BRANCH  17  18
ATOM     18  C   UNL     1      -2.348  -0.836  25.220  0.00  0.00    +0.179 C 
BRANCH  18  25
ATOM     25  C   UNL     1      -1.765  -1.196  25.679  0.00  0.00    +0.281 C 
ATOM     26  N   UNL     1      -1.752  -1.078  26.496  0.00  0.00    -0.086 NA
ATOM     27  O   UNL     1      -1.195  -1.675  25.322  0.00  0.00    -0.270 OA
ENDBRANCH  18  25
BRANCH  18  19
ATOM     19  C   UNL     1      -3.141  -1.035  25.329  0.00  0.00    +0.064 C 
BRANCH  19  20
ATOM     20  C   UNL     1      -3.511  -1.556  24.807  0.00  0.00    +0.010 A 
ATOM     21  C   UNL     1      -4.031  -1.349  24.203  0.00  0.00    +0.003 A 
ATOM     22  C   UNL     1      -4.267  -2.041  23.821  0.00  0.00    +0.007 A 
ATOM     23  C   UNL     1      -3.893  -2.677  24.190  0.00  0.00    +0.035 A 
ATOM     24  S   UNL     1      -3.425  -2.377  24.800  0.00  0.00    -0.091 S 
ENDBRANCH  19  20
ENDBRANCH  18  19
ENDBRANCH  17  18
ENDBRANCH  14  15
TORSDOF 9
ENDMDL
MODEL 3
REMARK VINA RESULT:      -9.0      3.088      5.071
REMARK  Name = 
REMARK  9 active torsions:
REMARK  status: ('A' for Active; 'I' for Inactive)
REMARK    1  A    between atoms: O_2  and  C_3
REMARK    2  A    between atoms: C_5  and  N_6
REMARK    3  A    between atoms: N_9  and  C_10
REMARK    4  A    between atoms: C_14  and  C_15
REMARK    5  A    between atoms: N_17  and  C_18
REMARK    6  A    between atoms: C_18  and  C_19
REMARK    7  A    between atoms: C_18  and  C_25
REMARK    8  A    between atoms: C_19  and  C_20
REMARK    9  A    between atoms: C_28  and  C_30
REMARK                            x       y       z     vdW  Elec       q    Type
REMARK                         _______ _______ _______ _____ _____    ______ ____
ROOT
ATOM     10  C   UNL     1      -2.413   1.726  24.286  0.00  0.00    +0.126 C 
ATOM     11  C   UNL     1      -1.596   1.612  24.284  0.00  0.00    +0.045 C 
ATOM     12  C   UNL     1      -1.237   2.342  24.418  0.00  0.00    +0.096 C 
ATOM     13  N   UNL     1      -1.832   2.908  24.503  0.00  0.00    -0.268 N 
ATOM     14  C   UNL     1      -2.559   2.526  24.422  0.00  0.00    +0.174 C 
ATOM     28  C   UNL     1      -1.720   3.712  24.645  0.00  0.00    +0.249 C 
ATOM     29  O   UNL     1      -2.372   4.212  24.717  0.00  0.00    -0.270 OA
ENDROOT
BRANCH  10   9
ATOM      6  N   UNL     1      -3.441  -0.198  24.373  0.00  0.00    -0.161 NA
ATOM      7  C   UNL     1      -2.870   0.387  24.487  0.00  0.00    +0.344 C 
ATOM      8  O   UNL     1      -2.185   0.216  24.915  0.00  0.00    -0.249 OA
ATOM      9  N   UNL     1      -2.984   1.140  24.173  0.00  0.00    -0.186 NA
BRANCH   6   5
ATOM      3  C   UNL     1      -2.830  -2.285  24.555  0.00  0.00    +0.140 A 
ATOM      4  C   UNL     1      -2.943  -1.531  24.241  0.00  0.00    +0.054 A 
ATOM      5  C   UNL     1      -3.328  -0.953  24.687  0.00  0.00    +0.078 A 
ATOM     34  C   UNL     1      -3.599  -1.130  25.446  0.00  0.00    +0.017 A 
ATOM     35  C   UNL     1      -3.485  -1.885  25.759  0.00  0.00    +0.004 A 
ATOM     36  C   UNL     1      -3.101  -2.463  25.314  0.00  0.00    +0.037 A 
BRANCH   3   2
ATOM      1  C   UNL     1      -1.629  -2.962  24.177  0.00  0.00    +0.252 C 
ATOM      2  O   UNL     1      -2.445  -2.863  24.109  0.00  0.00    -0.471 OA
ENDBRANCH   3   2
ENDBRANCH   6   5
ENDBRANCH  10   9
BRANCH  28  30
ATOM     30  C   UNL     1      -0.956   4.016  24.714  0.00  0.00    +0.049 C 
ATOM     31  C   UNL     1      -0.844   4.813  24.894  0.00  0.00    -0.039 C 
ATOM     32  C   UNL     1      -0.080   5.117  24.963  0.00  0.00    +0.027 C 
ATOM     33  C   UNL     1      -1.496   5.307  25.006  0.00  0.00    +0.027 C 
ENDBRANCH  28  30
BRANCH  14  15
ATOM     15  C   UNL     1      -3.301   2.882  24.467  0.00  0.00    +0.262 C 
ATOM     16  O   UNL     1      -3.590   3.320  23.830  0.00  0.00    -0.271 OA
ATOM     17  N   UNL     1      -3.756   2.801  25.152  0.00  0.00    -0.196 NA
BRANCH  17  18
ATOM     18  C   UNL     1      -4.499   3.158  25.197  0.00  0.00    +0.179 C 
BRANCH  18  25
ATOM     25  C   UNL     1      -4.607   3.829  25.664  0.00  0.00    +0.281 C 
ATOM     26  N   UNL     1      -5.021   4.478  25.366  0.00  0.00    -0.086 NA
ATOM     27  O   UNL     1      -4.302   3.851  26.431  0.00  0.00    -0.270 OA
ENDBRANCH  18  25
BRANCH  18  19
ATOM     19  C   UNL     1      -5.134   2.843  24.774  0.00  0.00    +0.064 C 
BRANCH  19  20
ATOM     20  C   UNL     1      -5.649   2.311  25.138  0.00  0.00    +0.010 A 
ATOM     21  C   UNL     1      -5.653   2.109  25.938  0.00  0.00    +0.003 A 
ATOM     22  C   UNL     1      -6.257   1.561  26.059  0.00  0.00    +0.007 A 
ATOM     23  C   UNL     1      -6.627   1.424  25.334  0.00  0.00    +0.035 A 
ATOM     24  S   UNL     1      -6.251   1.887  24.765  0.00  0.00    -0.091 S 
ENDBRANCH  19  20
ENDBRANCH  18  19
ENDBRANCH  17  18
ENDBRANCH  14  15
TORSDOF 9
ENDMDL
MODEL 4
REMARK VINA RESULT:      -8.5      3.082      5.056
REMARK  Name = 
REMARK  9 active torsions:
REMARK  status: ('A' for Active; 'I' for Inactive)
REMARK    1  A    between atoms: O_2  and  C_3
REMARK    2  A    between atoms: C_5  and  N_6
REMARK    3  A    between atoms: N_9  and  C_10
REMARK    4  A    between atoms: C_14  and  C_15
REMARK    5  A    between atoms: N_17  and  C_18
REMARK    6  A    between atoms: C_18  and  C_19
REMARK    7  A    between atoms: C_18  and  C_25
REMARK    8  A    between atoms: C_19  and  C_20
REMARK    9  A    between atoms: C_28  and  C_30
REMARK                            x       y       z     vdW  Elec       q    Type
REMARK                         _______ _______ _______ _____ _____    ______ ____
ROOT
ATOM     10  C   UNL     1      -4.347   1.001  24.301  0.00  0.00    +0.126 C 
ATOM     11  C   UNL     1      -5.053   0.870  24.706  0.00  0.00    +0.045 C 
ATOM     12  C   UNL     1      -5.306   1.590  25.018  0.00  0.00    +0.096 C 
ATOM     13  N   UNL     1      -4.755   2.168  24.806  0.00  0.00    -0.268 N 
ATOM     14  C   UNL     1      -4.162   1.802  24.363  0.00  0.00    +0.174 C 
ATOM     28  C   UNL     1      -4.790   2.967  25.002  0.00  0.00    +0.249 C 
ATOM     29  O   UNL     1      -4.196   3.480  24.749  0.00  0.00    -0.270 OA
ENDROOT
BRANCH  10   9
ATOM      6  N   UNL     1      -3.408  -0.907  23.809  0.00  0.00    -0.161 NA
ATOM      7  C   UNL     1      -3.852  -0.336  24.206  0.00  0.00    +0.344 C 
ATOM      8  O   UNL     1      -4.244  -0.532  24.906  0.00  0.00    -0.249 OA
ATOM      9  N   UNL     1      -3.903   0.429  23.904  0.00  0.00    -0.186 NA
BRANCH   6   5
ATOM      3  C   UNL     1      -2.617  -2.685  24.797  0.00  0.00    +0.140 A 
ATOM      4  C   UNL     1      -2.669  -1.919  24.496  0.00  0.00    +0.054 A 
ATOM      5  C   UNL     1      -3.356  -1.674  24.111  0.00  0.00    +0.078 A 
ATOM     34  C   UNL     1      -3.991  -2.194  24.028  0.00  0.00    +0.017 A 
ATOM     35  C   UNL     1      -3.938  -2.961  24.329  0.00  0.00    +0.004 A 
ATOM     36  C   UNL     1      -3.251  -3.206  24.714  0.00  0.00    +0.037 A 
BRANCH   3   2
ATOM      1  C   UNL     1      -1.207  -2.570  25.009  0.00  0.00    +0.252 C 
ATOM      2  O   UNL     1      -1.929  -2.931  25.182  0.00  0.00    -0.471 OA
ENDBRANCH   3   2
ENDBRANCH   6   5
ENDBRANCH  10   9
BRANCH  28  30
ATOM     30  C   UNL     1      -5.420   3.254  25.451  0.00  0.00    +0.049 C 
ATOM     31  C   UNL     1      -5.491   4.064  25.592  0.00  0.00    -0.039 C 
ATOM     32  C   UNL     1      -6.121   4.351  26.041  0.00  0.00    +0.027 C 
ATOM     33  C   UNL     1      -4.932   4.587  25.284  0.00  0.00    +0.027 C 
ENDBRANCH  28  30
BRANCH  14  15
ATOM     15  C   UNL     1      -3.501   2.173  24.038  0.00  0.00    +0.262 C 
ATOM     16  O   UNL     1      -3.587   2.679  23.392  0.00  0.00    -0.271 OA
ATOM     17  N   UNL     1      -2.753   2.039  24.360  0.00  0.00    -0.196 NA
BRANCH  17  18
ATOM     18  C   UNL     1      -2.092   2.410  24.035  0.00  0.00    +0.179 C 
BRANCH  18  25
ATOM     25  C   UNL     1      -1.749   2.114  23.346  0.00  0.00    +0.281 C 
ATOM     26  N   UNL     1      -1.801   2.541  22.642  0.00  0.00    -0.086 NA
ATOM     27  O   UNL     1      -1.352   1.390  23.361  0.00  0.00    -0.270 OA
ENDBRANCH  18  25
BRANCH  18  19
ATOM     19  C   UNL     1      -1.774   3.078  24.400  0.00  0.00    +0.064 C 
BRANCH  19  20
ATOM     20  C   UNL     1      -1.212   2.995  24.998  0.00  0.00    +0.010 A 
ATOM     21  C   UNL     1      -1.284   2.518  25.667  0.00  0.00    +0.003 A 
ATOM     22  C   UNL     1      -0.596   2.602  26.114  0.00  0.00    +0.007 A 
ATOM     23  C   UNL     1      -0.099   3.132  25.722  0.00  0.00    +0.035 A 
ATOM     24  S   UNL     1      -0.480   3.374  25.032  0.00  0.00    -0.091 S 
ENDBRANCH  19  20
ENDBRANCH  18  19
ENDBRANCH  17  18
ENDBRANCH  14  15
TORSDOF 9
ENDMDL
MODEL 5
REMARK VINA RESULT:      -8.4      1.523      5.395
REMARK  Name = 
REMARK  9 active torsions:
REMARK  status: ('A' for Active; 'I' for Inactive)
REMARK    1  A    between atoms: O_2  and  C_3
REMARK    2  A    between atoms: C_5  and  N_6
REMARK    3  A    between atoms: N_9  and  C_10
REMARK    4  A    between atoms: C_14  and  C_15
REMARK    5  A    between atoms: N_17  and  C_18
REMARK    6  A    between atoms: C_18  and  C_19
REMARK    7  A    between atoms: C_18  and  C_25
REMARK    8  A    between atoms: C_19  and  C_20
REMARK    9  A    between atoms: C_28  and  C_30
REMARK                            x       y       z     vdW  Elec       q    Type
REMARK                         _______ _______ _______ _____ _____    ______ ____
ROOT
ATOM     10  C   UNL     1      -0.470   1.489  24.719  0.00  0.00    +0.126 C 
ATOM     11  C   UNL     1       0.127   2.058  24.688  0.00  0.00    +0.045 C 
ATOM     12  C   UNL     1       0.737   1.763  24.217  0.00  0.00    +0.096 C 
ATOM     13  N   UNL     1       0.517   1.011  23.957  0.00  0.00    -0.268 N 
ATOM     14  C   UNL     1      -0.229   0.842  24.268  0.00  0.00    +0.174 C 
ATOM     28  C   UNL     1       0.963   0.516  23.473  0.00  0.00    +0.249 C 
ATOM     29  O   UNL     1       0.670  -0.225  23.258  0.00  0.00    -0.270 OA
ENDROOT
BRANCH  10   9
ATOM      6  N   UNL     1      -2.295   2.343  25.556  0.00  0.00    -0.161 NA
ATOM      7  C   UNL     1      -1.583   2.277  25.145  0.00  0.00    +0.344 C 
ATOM      8  O   UNL     1      -1.274   2.931  24.748  0.00  0.00    -0.249 OA
ATOM      9  N   UNL     1      -1.182   1.557  25.130  0.00  0.00    -0.186 NA
BRANCH   6   5
ATOM      3  C   UNL     1      -3.853   3.842  25.251  0.00  0.00    +0.140 A 
ATOM      4  C   UNL     1      -3.450   3.122  25.236  0.00  0.00    +0.054 A 
ATOM      5  C   UNL     1      -2.698   3.064  25.571  0.00  0.00    +0.078 A 
ATOM     34  C   UNL     1      -2.349   3.725  25.920  0.00  0.00    +0.017 A 
ATOM     35  C   UNL     1      -2.753   4.445  25.934  0.00  0.00    +0.004 A 
ATOM     36  C   UNL     1      -3.504   4.504  25.600  0.00  0.00    +0.037 A 
BRANCH   3   2
ATOM      1  C   UNL     1      -5.272   3.715  25.365  0.00  0.00    +0.252 C 
ATOM      2  O   UNL     1      -4.605   3.900  24.917  0.00  0.00    -0.471 OA
ENDBRANCH   3   2
ENDBRANCH   6   5
ENDBRANCH  10   9
BRANCH  28  30
ATOM     30  C   UNL     1       1.704   0.760  23.203  0.00  0.00    +0.049 C 
ATOM     31  C   UNL     1       2.152   0.264  22.720  0.00  0.00    -0.039 C 
ATOM     32  C   UNL     1       2.892   0.509  22.451  0.00  0.00    +0.027 C 
ATOM     33  C   UNL     1       1.860  -0.478  22.507  0.00  0.00    +0.027 C 
ENDBRANCH  28  30
BRANCH  14  15
ATOM     15  C   UNL     1      -0.658   0.149  24.148  0.00  0.00    +0.262 C 
ATOM     16  O   UNL     1      -0.906  -0.058  23.389  0.00  0.00    -0.271 OA
ATOM     17  N   UNL     1      -0.840  -0.340  24.789  0.00  0.00    -0.196 NA
BRANCH  17  18
ATOM     18  C   UNL     1      -1.270  -1.034  24.669  0.00  0.00    +0.179 C 
BRANCH  18  25
ATOM     25  C   UNL     1      -0.924  -1.766  24.824  0.00  0.00    +0.281 C 
ATOM     26  N   UNL     1      -1.031  -2.393  24.299  0.00  0.00    -0.086 NA
ATOM     27  O   UNL     1      -0.470  -1.871  25.506  0.00  0.00    -0.270 OA
ENDBRANCH  18  25
BRANCH  18  19
ATOM     19  C   UNL     1      -2.047  -0.995  24.393  0.00  0.00    +0.064 C 
BRANCH  19  20
ATOM     20  C   UNL     1      -2.677  -1.068  24.921  0.00  0.00    +0.010 A 
ATOM     21  C   UNL     1      -2.617  -1.134  25.740  0.00  0.00    +0.003 A 
ATOM     22  C   UNL     1      -3.381  -1.195  26.046  0.00  0.00    +0.007 A 
ATOM     23  C   UNL     1      -3.912  -1.166  25.416  0.00  0.00    +0.035 A 
ATOM     24  S   UNL     1      -3.477  -1.088  24.720  0.00  0.00    -0.091 S 
ENDBRANCH  19  20
ENDBRANCH  18  19
ENDBRANCH  17  18
ENDBRANCH  14  15
TORSDOF 9
ENDMDL
MODEL 6
REMARK VINA RESULT:      -8.4      2.549      5.403
REMARK  Name = 
REMARK  9 active torsions:
REMARK  status: ('A' for Active; 'I' for Inactive)
REMARK    1  A    between atoms: O_2  and  C_3
REMARK    2  A    between atoms: C_5  and  N_6
REMARK    3  A    between atoms: N_9  and  C_10
REMARK    4  A    between atoms: C_14  and  C_15
REMARK    5  A    between atoms: N_17  and  C_18
REMARK    6  A    between atoms: C_18  and  C_19
REMARK    7  A    between atoms: C_18  and  C_25
REMARK    8  A    between atoms: C_19  and  C_20
REMARK    9  A    between atoms: C_28  and  C_30
REMARK                            x       y       z     vdW  Elec       q    Type
REMARK                         _______ _______ _______ _____ _____    ______ ____
ROOT
ATOM     10  C   UNL     1      -3.685   0.395  24.877  0.00  0.00    +0.126 C 
ATOM     11  C   UNL     1      -4.423   0.220  24.552  0.00  0.00    +0.045 C 
ATOM     12  C   UNL     1      -4.423  -0.576  24.334  0.00  0.00    +0.096 C 
ATOM     13  N   UNL     1      -3.685  -0.893  24.524  0.00  0.00    -0.268 N 
ATOM     14  C   UNL     1      -3.229  -0.292  24.860  0.00  0.00    +0.174 C 
ATOM     28  C   UNL     1      -3.445  -1.671  24.401  0.00  0.00    +0.249 C 
ATOM     29  O   UNL     1      -2.686  -1.909  24.621  0.00  0.00    -0.270 OA
ENDROOT
BRANCH  10   9
ATOM      6  N   UNL     1      -3.635   2.541  25.269  0.00  0.00    -0.161 NA
ATOM      7  C   UNL     1      -3.874   1.807  24.978  0.00  0.00    +0.344 C 
ATOM      8  O   UNL     1      -4.543   1.753  24.497  0.00  0.00    -0.249 OA
ATOM      9  N   UNL     1      -3.445   1.130  25.168  0.00  0.00    -0.186 NA
BRANCH   6   5
ATOM      3  C   UNL     1      -5.164   4.097  25.327  0.00  0.00    +0.140 A 
ATOM      4  C   UNL     1      -4.736   3.418  25.516  0.00  0.00    +0.054 A 
ATOM      5  C   UNL     1      -4.064   3.221  25.079  0.00  0.00    +0.078 A 
ATOM     34  C   UNL     1      -3.821   3.702  24.455  0.00  0.00    +0.017 A 
ATOM     35  C   UNL     1      -4.250   4.381  24.266  0.00  0.00    +0.004 A 
ATOM     36  C   UNL     1      -4.922   4.579  24.702  0.00  0.00    +0.037 A 
BRANCH   3   2
ATOM      1  C   UNL     1      -6.214   5.017  25.635  0.00  0.00    +0.252 C 
ATOM      2  O   UNL     1      -5.836   4.295  25.763  0.00  0.00    -0.471 OA
ENDBRANCH   3   2
ENDBRANCH   6   5
ENDBRANCH  10   9
BRANCH  28  30
ATOM     30  C   UNL     1      -3.964  -2.213  24.058  0.00  0.00    +0.049 C 
ATOM     31  C   UNL     1      -3.794  -3.020  24.084  0.00  0.00    -0.039 C 
ATOM     32  C   UNL     1      -4.313  -3.562  23.740  0.00  0.00    +0.027 C 
ATOM     33  C   UNL     1      -3.105  -3.286  24.452  0.00  0.00    +0.027 C 
ENDBRANCH  28  30
BRANCH  14  15
ATOM     15  C   UNL     1      -2.454  -0.365  25.130  0.00  0.00    +0.262 C 
ATOM     16  O   UNL     1      -2.299  -0.755  25.841  0.00  0.00    -0.271 OA
ATOM     17  N   UNL     1      -1.831  -0.049  24.689  0.00  0.00    -0.196 NA
BRANCH  17  18
ATOM     18  C   UNL     1      -1.055  -0.123  24.961  0.00  0.00    +0.179 C 
BRANCH  18  25
ATOM     25  C   UNL     1      -0.564  -0.710  24.654  0.00  0.00    +0.281 C 
ATOM     26  N   UNL     1      -0.204  -1.254  25.160  0.00  0.00    -0.086 NA
ATOM     27  O   UNL     1      -0.433  -0.755  23.840  0.00  0.00    -0.270 OA
ENDBRANCH  18  25
BRANCH  18  19
ATOM     19  C   UNL     1      -0.770   0.392  25.539  0.00  0.00    +0.064 C 
BRANCH  19  20
ATOM     20  C   UNL     1      -0.442   1.116  25.322  0.00  0.00    +0.010 A 
ATOM     21  C   UNL     1      -0.227   1.342  24.558  0.00  0.00    +0.003 A 
ATOM     22  C   UNL     1       0.077   2.108  24.596  0.00  0.00    +0.007 A 
ATOM     23  C   UNL     1       0.050   2.356  25.382  0.00  0.00    +0.035 A 
ATOM     24  S   UNL     1      -0.270   1.743  25.831  0.00  0.00    -0.091 S 
ENDBRANCH  19  20
ENDBRANCH  18  19
ENDBRANCH  17  18
ENDBRANCH  14  15
TORSDOF 9
ENDMDL
MODEL 7
REMARK VINA RESULT:      -7.9      2.233      5.193
REMARK  Name = 
REMARK  9 active torsions:
REMARK  status: ('A' for Active; 'I' for Inactive)
REMARK    1  A    between atoms: O_2  and  C_3
REMARK    2  A    between atoms: C_5  and  N_6
REMARK    3  A    between atoms: N_9  and  C_10
REMARK    4  A    between atoms: C_14  and  C_15
REMARK    5  A    between atoms: N_17  and  C_18
REMARK    6  A    between atoms: C_18  and  C_19
REMARK    7  A    between atoms: C_18  and  C_25
REMARK    8  A    between atoms: C_19  and  C_20
REMARK    9  A    between atoms: C_28  and  C_30
REMARK                            x       y       z     vdW  Elec       q    Type
REMARK                         _______ _______ _______ _____ _____    ______ ____
ROOT
ATOM     10  C   UNL     1      -3.424   1.437  24.319  0.00  0.00    +0.126 C 
ATOM     11  C   UNL     1      -4.143   1.606  24.688  0.00  0.00    +0.045 C 
ATOM     12  C   UNL     1      -4.059   2.317  25.098  0.00  0.00    +0.096 C 
ATOM     13  N   UNL     1      -3.288   2.588  24.982  0.00  0.00    -0.268 N 
ATOM     14  C   UNL     1      -2.896   2.044  24.501  0.00  0.00    +0.174 C 
ATOM     28  C   UNL     1      -2.966   3.280  25.292  0.00  0.00    +0.249 C 
ATOM     29  O   UNL     1      -2.182   3.481  25.128  0.00  0.00    -0.270 OA
ENDROOT
BRANCH  10   9
ATOM      6  N   UNL     1      -3.352  -0.630  23.624  0.00  0.00    -0.161 NA
ATOM      7  C   UNL     1      -3.513   0.029  24.093  0.00  0.00    +0.344 C 
ATOM      8  O   UNL     1      -3.924  -0.060  24.803  0.00  0.00    -0.249 OA
ATOM      9  N   UNL     1      -3.263   0.777  23.851  0.00  0.00    -0.186 NA
BRANCH   6   5
ATOM      3  C   UNL     1      -3.361  -2.591  24.582  0.00  0.00    +0.140 A 
ATOM      4  C   UNL     1      -3.112  -1.843  24.341  0.00  0.00    +0.054 A 
ATOM      5  C   UNL     1      -3.601  -1.380  23.865  0.00  0.00    +0.078 A 
ATOM     34  C   UNL     1      -4.339  -1.665  23.630  0.00  0.00    +0.017 A 
ATOM     35  C   UNL     1      -4.588  -2.413  23.871  0.00  0.00    +0.004 A 
ATOM     36  C   UNL     1      -4.099  -2.877  24.347  0.00  0.00    +0.037 A 
BRANCH   3   2
ATOM      1  C   UNL     1      -2.067  -3.116  24.888  0.00  0.00    +0.252 C 
ATOM      2  O   UNL     1      -2.872  -3.055  25.058  0.00  0.00    -0.471 OA
ENDBRANCH   3   2
ENDBRANCH   6   5
ENDBRANCH  10   9
BRANCH  28  30
ATOM     30  C   UNL     1      -3.427   3.773  25.767  0.00  0.00    +0.049 C 
ATOM     31  C   UNL     1      -3.107   4.470  26.072  0.00  0.00    -0.039 C 
ATOM     32  C   UNL     1      -3.568   4.963  26.547  0.00  0.00    +0.027 C 
ATOM     33  C   UNL     1      -2.326   4.675  25.902  0.00  0.00    +0.027 C 
ENDBRANCH  28  30
BRANCH  14  15
ATOM     15  C   UNL     1      -2.114   2.098  24.246  0.00  0.00    +0.262 C 
ATOM     16  O   UNL     1      -1.919   2.585  23.610  0.00  0.00    -0.271 OA
ATOM     17  N   UNL     1      -1.524   1.663  24.628  0.00  0.00    -0.196 NA
BRANCH  17  18
ATOM     18  C   UNL     1      -0.742   1.717  24.373  0.00  0.00    +0.179 C 
BRANCH  18  25
ATOM     25  C   UNL     1      -0.189   2.135  24.820  0.00  0.00    +0.281 C 
ATOM     26  N   UNL     1       0.263   2.729  24.468  0.00  0.00    -0.086 NA
ATOM     27  O   UNL     1      -0.088   1.959  25.620  0.00  0.00    -0.270 OA
ENDBRANCH  18  25
BRANCH  18  19
ATOM     19  C   UNL     1      -0.512   1.352  23.669  0.00  0.00    +0.064 C 
BRANCH  19  20
ATOM     20  C   UNL     1      -0.135   0.618  23.689  0.00  0.00    +0.010 A 
ATOM     21  C   UNL     1      -0.148   0.082  24.315  0.00  0.00    +0.003 A 
ATOM     22  C   UNL     1       0.300  -0.575  24.097  0.00  0.00    +0.007 A 
ATOM     23  C   UNL     1       0.591  -0.445  23.336  0.00  0.00    +0.035 A 
ATOM     24  S   UNL     1       0.322   0.293  23.083  0.00  0.00    -0.091 S 
ENDBRANCH  19  20
ENDBRANCH  18  19
ENDBRANCH  17  18
ENDBRANCH  14  15
TORSDOF 9
ENDMDL
MODEL 8
REMARK VINA RESULT:      -7.8      2.413      5.318
REMARK  Name = 
REMARK  9 active torsions:
REMARK  status: ('A' for Active; 'I' for Inactive)
REMARK    1  A    between atoms: O_2  and  C_3
REMARK    2  A    between atoms: C_5  and  N_6
REMARK    3  A    between atoms: N_9  and  C_10
REMARK    4  A    between atoms: C_14  and  C_15
REMARK    5  A    between atoms: N_17  and  C_18
REMARK    6  A    between atoms: C_18  and  C_19
REMARK    7  A    between atoms: C_18  and  C_25
REMARK    8  A    between atoms: C_19  and  C_20
REMARK    9  A    between atoms: C_28  and  C_30
REMARK                            x       y       z     vdW  Elec       q    Type
REMARK                         _______ _______ _______ _____ _____    ______ ____
ROOT
ATOM     10  C   UNL     1      -2.799   0.477  24.479  0.00  0.00    +0.126 C 
ATOM     11  C   UNL     1      -3.139  -0.244  24.692  0.00  0.00    +0.045 C 
ATOM     12  C   UNL     1      -2.529  -0.769  24.876  0.00  0.00    +0.096 C 
ATOM     13  N   UNL     1      -1.812  -0.372  24.777  0.00  0.00    -0.268 N 
ATOM     14  C   UNL     1      -1.980   0.399  24.532  0.00  0.00    +0.174 C 
ATOM     28  C   UNL     1      -1.061  -0.687  24.902  0.00  0.00    +0.249 C 
ATOM     29  O   UNL     1      -0.392  -0.221  24.780  0.00  0.00    -0.270 OA
ENDROOT
BRANCH  10   9
ATOM      6  N   UNL     1      -4.319   2.042  24.408  0.00  0.00    -0.161 NA
ATOM      7  C   UNL     1      -3.910   1.362  24.635  0.00  0.00    +0.344 C 
ATOM      8  O   UNL     1      -4.204   0.888  25.243  0.00  0.00    -0.249 OA
ATOM      9  N   UNL     1      -3.209   1.157  24.253  0.00  0.00    -0.186 NA
BRANCH   6   5
ATOM      3  C   UNL     1      -5.767   3.158  25.600  0.00  0.00    +0.140 A 
ATOM      4  C   UNL     1      -5.065   2.952  25.218  0.00  0.00    +0.054 A 
ATOM      5  C   UNL     1      -5.021   2.248  24.790  0.00  0.00    +0.078 A 
ATOM     34  C   UNL     1      -5.678   1.751  24.743  0.00  0.00    +0.017 A 
ATOM     35  C   UNL     1      -6.380   1.958  25.125  0.00  0.00    +0.004 A 
ATOM     36  C   UNL     1      -6.425   2.662  25.553  0.00  0.00    +0.037 A 
BRANCH   3   2
ATOM      1  C   UNL     1      -5.808   4.587  25.634  0.00  0.00    +0.252 C 
ATOM      2  O   UNL     1      -5.811   3.862  26.028  0.00  0.00    -0.471 OA
ENDBRANCH   3   2
ENDBRANCH   6   5
ENDBRANCH  10   9
BRANCH  28  30
ATOM     30  C   UNL     1      -0.979  -1.471  25.148  0.00  0.00    +0.049 C 
ATOM     31  C   UNL     1      -0.264  -1.866  25.036  0.00  0.00    -0.039 C 
ATOM     32  C   UNL     1      -0.182  -2.649  25.283  0.00  0.00    +0.027 C 
ATOM     33  C   UNL     1       0.370  -1.478  24.678  0.00  0.00    +0.027 C 
ENDBRANCH  28  30
BRANCH  14  15
ATOM     15  C   UNL     1      -1.426   0.986  24.368  0.00  0.00    +0.262 C 
ATOM     16  O   UNL     1      -1.052   1.009  23.633  0.00  0.00    -0.271 OA
ATOM     17  N   UNL     1      -1.244   1.553  24.941  0.00  0.00    -0.196 NA
BRANCH  17  18
ATOM     18  C   UNL     1      -0.689   2.141  24.777  0.00  0.00    +0.179 C 
BRANCH  18  25
ATOM     25  C   UNL     1       0.084   2.069  25.053  0.00  0.00    +0.281 C 
ATOM     26  N   UNL     1       0.716   2.087  24.523  0.00  0.00    -0.086 NA
ATOM     27  O   UNL     1       0.227   1.977  25.861  0.00  0.00    -0.270 OA
ENDBRANCH  18  25
BRANCH  18  19
ATOM     19  C   UNL     1      -0.908   2.803  24.335  0.00  0.00    +0.064 C 
BRANCH  19  20
ATOM     20  C   UNL     1      -1.113   3.505  24.717  0.00  0.00    +0.010 A 
ATOM     21  C   UNL     1      -1.495   3.567  25.446  0.00  0.00    +0.003 A 
ATOM     22  C   UNL     1      -1.589   4.369  25.615  0.00  0.00    +0.007 A 
ATOM     23  C   UNL     1      -1.267   4.802  24.992  0.00  0.00    +0.035 A 
ATOM     24  S   UNL     1      -0.972   4.268  24.436  0.00  0.00    -0.091 S 
ENDBRANCH  19  20
ENDBRANCH  18  19
ENDBRANCH  17  18
ENDBRANCH  14  15
TORSDOF 9
ENDMDL
