REMARK  Name = 
REMARK  3 active torsions:
REMARK  status: ('A' for Active; 'I' for Inactive)
REMARK    1  A    between atoms: N_9  and  S_11
REMARK    2  A    between atoms: S_11  and  C_14
REMARK    3  A    between atoms: C_22  and  C_23
REMARK                            x       y       z     vdW  Elec       q    Type
REMARK                         _______ _______ _______ _____ _____    ______ ____
ROOT
ATOM      1  O   UNL     1       0.679  -3.514   0.000  0.00  0.00    -0.267 OA
ATOM      2  C   UNL     1       1.157  -2.841   0.000  0.00  0.00    +0.261 A 
ATOM      3  N   UNL     1       0.813  -2.091   0.000  0.00  0.00    -0.299 N 
ATOM      4  C   UNL     1       1.629  -1.912   0.000  0.00  0.00    +0.110 C 
ATOM      5  C   UNL     1       1.582  -0.925   0.000  0.00  0.00    +0.041 C 
ATOM      6  C   UNL     1       1.713  -0.121   0.000  0.00  0.00    +0.011 C 
ATOM      7  C   UNL     1       1.163  -0.557   0.000  0.00  0.00    +0.056 C 
ATOM      8  C   UNL     1       0.244  -0.558   0.000  0.00  0.00    +0.102 C 
ATOM      9  N   UNL     1       0.117  -1.360   0.000  0.00  0.00    -0.155 NA
ATOM     10  C   UNL     1       0.622  -0.936   0.000  0.00  0.00    +0.098 C 
ATOM     19  C   UNL     1       1.290  -1.419   0.000  0.00  0.00    +0.041 A 
ATOM     20  C   UNL     1       2.111  -1.496   0.000  0.00  0.00    +0.013 A 
ATOM     21  C   UNL     1       2.455  -2.245   0.000  0.00  0.00    +0.006 A 
ATOM     22  C   UNL     1       1.978  -2.918   0.000  0.00  0.00    +0.058 A 
ENDROOT
BRANCH  22  23
ATOM     23  C   UNL     1       2.322  -3.668   0.000  0.00  0.00    +0.024 A 
ATOM     24  C   UNL     1       3.144  -3.745   0.000  0.00  0.00    +0.003 A 
ATOM     25  C   UNL     1       3.488  -4.495   0.000  0.00  0.00    +0.021 A 
ATOM     26  C   UNL     1       3.010  -5.168   0.000  0.00  0.00    +0.099 A 
ATOM     27  N   UNL     1       2.189  -5.091   0.000  0.00  0.00    -0.242 NA
ATOM     28  C   UNL     1       1.845  -4.341   0.000  0.00  0.00    +0.099 A 
ENDBRANCH  22  23
BRANCH   9  11
ATOM     11  S   UNL     1      -0.288  -2.078   0.000  0.00  0.00    +0.069 S 
ATOM     12  O   UNL     1       0.430  -2.484   0.000  0.00  0.00    -0.152 OA
ATOM     13  O   UNL     1      -1.007  -1.673   0.000  0.00  0.00    -0.152 OA
BRANCH  11  14
ATOM     14  C   UNL     1      -0.694  -2.797   0.000  0.00  0.00    +0.152 A 
ATOM     15  C   UNL     1      -0.351  -3.547   0.000  0.00  0.00    +0.027 A 
ATOM     16  C   UNL     1      -0.959  -4.105   0.000  0.00  0.00    +0.009 A 
ATOM     17  C   UNL     1      -1.678  -3.699   0.000  0.00  0.00    +0.037 A 
ATOM     18  S   UNL     1      -1.514  -2.890   0.000  0.00  0.00    -0.067 S 
ENDBRANCH  11  14
ENDBRANCH   9  11
TORSDOF 3
