MODEL 1
REMARK VINA RESULT:      -9.8      0.000      0.000
REMARK  Name = 
REMARK  6 active torsions:
REMARK  status: ('A' for Active; 'I' for Inactive)
REMARK    1  A    between atoms: N_5  and  C_8
REMARK    2  A    between atoms: C_11  and  C_14
REMARK    3  A    between atoms: C_17  and  C_19
REMARK    4  A    between atoms: N_23  and  C_24
REMARK    5  A    between atoms: C_24  and  C_25
REMARK    6  A    between atoms: C_28  and  C_31
REMARK                            x       y       z     vdW  Elec       q    Type
REMARK                         _______ _______ _______ _____ _____    ______ ____
ROOT
ATOM     14  C   UNL     1      -1.293  -0.071  24.534  0.00  0.00    +0.205 A 
ATOM     15  N   UNL     1      -1.425  -0.306  25.314  0.00  0.00    -0.056 NA
ATOM     16  O   UNL     1      -2.240  -0.316  25.443  0.00  0.00    -0.336 OA
ATOM     17  C   UNL     1      -2.612  -0.088  24.743  0.00  0.00    +0.251 A 
ATOM     18  N   UNL     1      -2.026   0.064  24.181  0.00  0.00    -0.190 NA
ENDROOT
BRANCH  14  11
ATOM      8  C   UNL     1       0.915   0.183  23.445  0.00  0.00    +0.132 A 
ATOM      9  C   UNL     1       0.486   0.851  23.671  0.00  0.00    +0.034 A 
ATOM     10  C   UNL     1      -0.250   0.766  24.034  0.00  0.00    +0.008 A 
ATOM     11  C   UNL     1      -0.557   0.014  24.171  0.00  0.00    +0.058 A 
ATOM     12  C   UNL     1      -0.130  -0.655  23.945  0.00  0.00    +0.103 A 
ATOM     13  N   UNL     1       0.606  -0.570  23.582  0.00  0.00    -0.229 NA
BRANCH   8   5
ATOM      1  C   UNL     1       3.858   0.523  21.993  0.00  0.00    +0.090 C 
ATOM      2  N   UNL     1       3.122   0.438  22.356  0.00  0.00    -0.269 NA
ATOM      3  C   UNL     1       2.947   0.867  23.038  0.00  0.00    +0.094 C 
ATOM      4  C   UNL     1       2.211   0.782  23.401  0.00  0.00    +0.109 C 
ATOM      5  N   UNL     1       1.650   0.268  23.082  0.00  0.00    -0.290 N 
ATOM      6  C   UNL     1       1.825  -0.161  22.399  0.00  0.00    +0.109 C 
ATOM      7  C   UNL     1       2.561  -0.077  22.036  0.00  0.00    +0.094 C 
ENDBRANCH   8   5
ENDBRANCH  14  11
BRANCH  17  19
ATOM     19  C   UNL     1      -3.425  -0.022  24.625  0.00  0.00    +0.138 C 
ATOM     20  C   UNL     1      -3.935  -0.635  24.411  0.00  0.00    +0.027 C 
ATOM     21  C   UNL     1      -4.697  -0.324  24.354  0.00  0.00    +0.019 C 
ATOM     22  C   UNL     1      -4.659   0.481  24.532  0.00  0.00    +0.073 C 
ATOM     23  N   UNL     1      -3.873   0.667  24.700  0.00  0.00    -0.263 NA
BRANCH  23  24
ATOM     24  C   UNL     1      -3.585   1.412  24.907  0.00  0.00    +0.099 C 
BRANCH  24  25
ATOM     25  C   UNL     1      -4.109   2.035  25.039  0.00  0.00    -0.006 A 
ATOM     26  C   UNL     1      -4.192   2.631  24.476  0.00  0.00    -0.003 A 
ATOM     27  C   UNL     1      -4.716   3.255  24.609  0.00  0.00    +0.004 A 
ATOM     28  C   UNL     1      -5.157   3.281  25.306  0.00  0.00    +0.071 A 
ATOM     29  C   UNL     1      -5.074   2.684  25.869  0.00  0.00    +0.004 A 
ATOM     30  C   UNL     1      -4.550   2.061  25.736  0.00  0.00    -0.003 A 
BRANCH  28  31
ATOM     31  C   UNL     1      -5.682   3.904  25.439  0.00  0.00    +0.419 C 
ATOM     32  F   UNL     1      -6.206   4.527  25.572  0.00  0.00    -0.166 F 
ATOM     33  F   UNL     1      -6.312   3.372  25.449  0.00  0.00    -0.166 F 
ATOM     34  F   UNL     1      -5.051   4.437  25.429  0.00  0.00    -0.166 F 
ENDBRANCH  28  31
ENDBRANCH  24  25
ENDBRANCH  23  24
ENDBRANCH  17  19
TORSDOF 6
ENDMDL
MODEL 2
REMARK VINA RESULT:      -9.2      3.567      4.652
REMARK  Name = 
REMARK  6 active torsions:
REMARK  status: ('A' for Active; 'I' for Inactive)
REMARK    1  A    between atoms: N_5  and  C_8
REMARK    2  A    between atoms: C_11  and  C_14
REMARK    3  A    between atoms: C_17  and  C_19
REMARK    4  A    between atoms: N_23  and  C_24
REMARK    5  A    between atoms: C_24  and  C_25
REMARK    6  A    between atoms: C_28  and  C_31
REMARK                            x       y       z     vdW  Elec       q    Type
REMARK                         _______ _______ _______ _____ _____    ______ ____
ROOT
ATOM     14  C   UNL     1      -4.836   1.001  25.292  0.00  0.00    +0.205 A 
ATOM     15  N   UNL     1      -5.564   1.046  25.679  0.00  0.00    -0.056 NA
ATOM     16  O   UNL     1      -5.754   1.843  25.774  0.00  0.00    -0.336 OA
ATOM     17  C   UNL     1      -5.144   2.291  25.446  0.00  0.00    +0.251 A 
ATOM     18  N   UNL     1      -4.577   1.771  25.148  0.00  0.00    -0.190 NA
ENDROOT
BRANCH  14  11
ATOM      8  C   UNL     1      -3.642  -1.076  24.672  0.00  0.00    +0.132 A 
ATOM      9  C   UNL     1      -3.986  -0.607  24.087  0.00  0.00    +0.034 A 
ATOM     10  C   UNL     1      -4.384   0.085  24.294  0.00  0.00    +0.008 A 
ATOM     11  C   UNL     1      -4.438   0.309  25.085  0.00  0.00    +0.058 A 
ATOM     12  C   UNL     1      -4.094  -0.159  25.671  0.00  0.00    +0.103 A 
ATOM     13  N   UNL     1      -3.696  -0.852  25.465  0.00  0.00    -0.229 NA
BRANCH   8   5
ATOM      1  C   UNL     1      -2.051  -3.846  23.846  0.00  0.00    +0.090 C 
ATOM      2  N   UNL     1      -2.449  -3.154  24.052  0.00  0.00    -0.269 NA
ATOM      3  C   UNL     1      -2.022  -2.480  24.263  0.00  0.00    +0.094 C 
ATOM      4  C   UNL     1      -2.420  -1.787  24.470  0.00  0.00    +0.109 C 
ATOM      5  N   UNL     1      -3.244  -1.769  24.465  0.00  0.00    -0.290 N 
ATOM      6  C   UNL     1      -3.672  -2.442  24.255  0.00  0.00    +0.109 C 
ATOM      7  C   UNL     1      -3.274  -3.135  24.048  0.00  0.00    +0.094 C 
ENDBRANCH   8   5
ENDBRANCH  14  11
BRANCH  17  19
ATOM     19  C   UNL     1      -5.107   3.115  25.420  0.00  0.00    +0.138 C 
ATOM     20  C   UNL     1      -5.739   3.624  25.273  0.00  0.00    +0.027 C 
ATOM     21  C   UNL     1      -5.455   4.398  25.298  0.00  0.00    +0.019 C 
ATOM     22  C   UNL     1      -4.647   4.368  25.462  0.00  0.00    +0.073 C 
ATOM     23  N   UNL     1      -4.432   3.574  25.537  0.00  0.00    -0.263 NA
BRANCH  23  24
ATOM     24  C   UNL     1      -3.675   3.291  25.700  0.00  0.00    +0.099 C 
BRANCH  24  25
ATOM     25  C   UNL     1      -3.015   3.756  25.533  0.00  0.00    -0.006 A 
ATOM     26  C   UNL     1      -2.718   4.272  26.104  0.00  0.00    -0.003 A 
ATOM     27  C   UNL     1      -2.057   4.738  25.937  0.00  0.00    +0.004 A 
ATOM     28  C   UNL     1      -1.694   4.687  25.198  0.00  0.00    +0.071 A 
ATOM     29  C   UNL     1      -1.991   4.172  24.627  0.00  0.00    +0.004 A 
ATOM     30  C   UNL     1      -2.651   3.706  24.794  0.00  0.00    -0.003 A 
BRANCH  28  31
ATOM     31  C   UNL     1      -1.034   5.153  25.031  0.00  0.00    +0.419 C 
ATOM     32  F   UNL     1      -0.374   5.618  24.864  0.00  0.00    -0.166 F 
ATOM     33  F   UNL     1      -0.561   4.478  25.019  0.00  0.00    -0.166 F 
ATOM     34  F   UNL     1      -1.507   5.829  25.043  0.00  0.00    -0.166 F 
ENDBRANCH  28  31
ENDBRANCH  24  25
ENDBRANCH  23  24
ENDBRANCH  17  19
TORSDOF 6
ENDMDL
MODEL 3
REMARK VINA RESULT:      -8.9      2.331      3.354
REMARK  Name = 
REMARK  6 active torsions:
REMARK  status: ('A' for Active; 'I' for Inactive)
REMARK    1  A    between atoms: N_5  and  C_8
REMARK    2  A    between atoms: C_11  and  C_14
REMARK    3  A    between atoms: C_17  and  C_19
REMARK    4  A    between atoms: N_23  and  C_24
REMARK    5  A    between atoms: C_24  and  C_25
REMARK    6  A    between atoms: C_28  and  C_31
REMARK                            x       y       z     vdW  Elec       q    Type
REMARK                         _______ _______ _______ _____ _____    ______ ____
ROOT
ATOM     14  C   UNL     1      -0.888   1.543  24.569  0.00  0.00    +0.205 A 
ATOM     15  N   UNL     1      -0.994   1.963  25.271  0.00  0.00    -0.056 NA
ATOM     16  O   UNL     1      -1.805   2.016  25.416  0.00  0.00    -0.336 OA
ATOM     17  C   UNL     1      -2.199   1.629  24.803  0.00  0.00    +0.251 A 
ATOM     18  N   UNL     1      -1.632   1.337  24.279  0.00  0.00    -0.190 NA
ENDROOT
BRANCH  14  11
ATOM      8  C   UNL     1       1.285   0.999  23.515  0.00  0.00    +0.132 A 
ATOM      9  C   UNL     1       0.656   0.469  23.462  0.00  0.00    +0.034 A 
ATOM     10  C   UNL     1      -0.069   0.650  23.813  0.00  0.00    +0.008 A 
ATOM     11  C   UNL     1      -0.163   1.362  24.218  0.00  0.00    +0.058 A 
ATOM     12  C   UNL     1       0.465   1.893  24.272  0.00  0.00    +0.103 A 
ATOM     13  N   UNL     1       1.190   1.712  23.921  0.00  0.00    -0.229 NA
BRANCH   8   5
ATOM      1  C   UNL     1       4.182   0.274  22.111  0.00  0.00    +0.090 C 
ATOM      2  N   UNL     1       3.458   0.455  22.462  0.00  0.00    -0.269 NA
ATOM      3  C   UNL     1       2.804  -0.033  22.337  0.00  0.00    +0.094 C 
ATOM      4  C   UNL     1       2.080   0.148  22.689  0.00  0.00    +0.109 C 
ATOM      5  N   UNL     1       2.009   0.818  23.164  0.00  0.00    -0.290 N 
ATOM      6  C   UNL     1       2.662   1.307  23.290  0.00  0.00    +0.109 C 
ATOM      7  C   UNL     1       3.386   1.126  22.939  0.00  0.00    +0.094 C 
ENDBRANCH   8   5
ENDBRANCH  14  11
BRANCH  17  19
ATOM     19  C   UNL     1      -3.016   1.548  24.727  0.00  0.00    +0.138 C 
ATOM     20  C   UNL     1      -3.538   2.128  24.454  0.00  0.00    +0.027 C 
ATOM     21  C   UNL     1      -4.299   1.812  24.468  0.00  0.00    +0.019 C 
ATOM     22  C   UNL     1      -4.250   1.038  24.749  0.00  0.00    +0.073 C 
ATOM     23  N   UNL     1      -3.457   0.875  24.909  0.00  0.00    -0.263 NA
BRANCH  23  24
ATOM     24  C   UNL     1      -3.157   0.164  25.199  0.00  0.00    +0.099 C 
BRANCH  24  25
ATOM     25  C   UNL     1      -3.434  -0.553  24.901  0.00  0.00    -0.006 A 
ATOM     26  C   UNL     1      -3.537  -0.650  24.088  0.00  0.00    -0.003 A 
ATOM     27  C   UNL     1      -3.815  -1.368  23.790  0.00  0.00    +0.004 A 
ATOM     28  C   UNL     1      -3.988  -1.989  24.305  0.00  0.00    +0.071 A 
ATOM     29  C   UNL     1      -3.884  -1.892  25.117  0.00  0.00    +0.004 A 
ATOM     30  C   UNL     1      -3.607  -1.175  25.415  0.00  0.00    -0.003 A 
BRANCH  28  31
ATOM     31  C   UNL     1      -4.265  -2.707  24.006  0.00  0.00    +0.419 C 
ATOM     32  F   UNL     1      -4.542  -3.424  23.707  0.00  0.00    -0.166 F 
ATOM     33  F   UNL     1      -4.869  -2.308  23.610  0.00  0.00    -0.166 F 
ATOM     34  F   UNL     1      -3.661  -3.105  24.402  0.00  0.00    -0.166 F 
ENDBRANCH  28  31
ENDBRANCH  24  25
ENDBRANCH  23  24
ENDBRANCH  17  19
TORSDOF 6
ENDMDL
MODEL 4
REMARK VINA RESULT:      -8.3      3.871      7.382
REMARK  Name = 
REMARK  6 active torsions:
REMARK  status: ('A' for Active; 'I' for Inactive)
REMARK    1  A    between atoms: N_5  and  C_8
REMARK    2  A    between atoms: C_11  and  C_14
REMARK    3  A    between atoms: C_17  and  C_19
REMARK    4  A    between atoms: N_23  and  C_24
REMARK    5  A    between atoms: C_24  and  C_25
REMARK    6  A    between atoms: C_28  and  C_31
REMARK                            x       y       z     vdW  Elec       q    Type
REMARK                         _______ _______ _______ _____ _____    ______ ____
ROOT
ATOM     14  C   UNL     1      -0.374   0.459  23.817  0.00  0.00    +0.205 A 
ATOM     15  N   UNL     1      -0.057  -0.182  24.229  0.00  0.00    -0.056 NA
ATOM     16  O   UNL     1       0.557  -0.497  23.776  0.00  0.00    -0.336 OA
ATOM     17  C   UNL     1       0.619  -0.052  23.085  0.00  0.00    +0.251 A 
ATOM     18  N   UNL     1       0.043   0.539  23.110  0.00  0.00    -0.190 NA
ENDROOT
BRANCH  14  11
ATOM      8  C   UNL     1      -2.249   1.889  24.570  0.00  0.00    +0.132 A 
ATOM      9  C   UNL     1      -2.129   1.756  23.765  0.00  0.00    +0.034 A 
ATOM     10  C   UNL     1      -1.504   1.279  23.514  0.00  0.00    +0.008 A 
ATOM     11  C   UNL     1      -0.999   0.936  24.068  0.00  0.00    +0.058 A 
ATOM     12  C   UNL     1      -1.118   1.068  24.873  0.00  0.00    +0.103 A 
ATOM     13  N   UNL     1      -1.743   1.545  25.124  0.00  0.00    -0.229 NA
BRANCH   8   5
ATOM      1  C   UNL     1      -4.748   3.795  25.574  0.00  0.00    +0.090 C 
ATOM      2  N   UNL     1      -4.123   3.319  25.323  0.00  0.00    -0.269 NA
ATOM      3  C   UNL     1      -3.365   3.635  25.254  0.00  0.00    +0.094 C 
ATOM      4  C   UNL     1      -2.740   3.158  25.003  0.00  0.00    +0.109 C 
ATOM      5  N   UNL     1      -2.874   2.366  24.821  0.00  0.00    -0.290 N 
ATOM      6  C   UNL     1      -3.632   2.048  24.890  0.00  0.00    +0.109 C 
ATOM      7  C   UNL     1      -4.257   2.525  25.141  0.00  0.00    +0.094 C 
ENDBRANCH   8   5
ENDBRANCH  14  11
BRANCH  17  19
ATOM     19  C   UNL     1       1.160  -0.175  22.475  0.00  0.00    +0.138 C 
ATOM     20  C   UNL     1       0.994  -0.509  21.739  0.00  0.00    +0.027 C 
ATOM     21  C   UNL     1       1.694  -0.527  21.303  0.00  0.00    +0.019 C 
ATOM     22  C   UNL     1       2.293  -0.204  21.769  0.00  0.00    +0.073 C 
ATOM     23  N   UNL     1       1.963   0.013  22.494  0.00  0.00    -0.263 NA
BRANCH  23  24
ATOM     24  C   UNL     1       2.366   0.358  23.126  0.00  0.00    +0.099 C 
BRANCH  24  25
ATOM     25  C   UNL     1       3.187   0.300  23.174  0.00  0.00    -0.006 A 
ATOM     26  C   UNL     1       3.534  -0.380  23.485  0.00  0.00    -0.003 A 
ATOM     27  C   UNL     1       4.356  -0.439  23.533  0.00  0.00    +0.004 A 
ATOM     28  C   UNL     1       4.830   0.183  23.269  0.00  0.00    +0.071 A 
ATOM     29  C   UNL     1       4.482   0.863  22.958  0.00  0.00    +0.004 A 
ATOM     30  C   UNL     1       3.661   0.921  22.910  0.00  0.00    -0.003 A 
BRANCH  28  31
ATOM     31  C   UNL     1       5.652   0.124  23.317  0.00  0.00    +0.419 C 
ATOM     32  F   UNL     1       6.473   0.065  23.365  0.00  0.00    -0.166 F 
ATOM     33  F   UNL     1       5.694   0.047  22.497  0.00  0.00    -0.166 F 
ATOM     34  F   UNL     1       5.610   0.201  24.138  0.00  0.00    -0.166 F 
ENDBRANCH  28  31
ENDBRANCH  24  25
ENDBRANCH  23  24
ENDBRANCH  17  19
TORSDOF 6
ENDMDL
MODEL 5
REMARK VINA RESULT:      -8.0      1.743      2.538
REMARK  Name = 
REMARK  6 active torsions:
REMARK  status: ('A' for Active; 'I' for Inactive)
REMARK    1  A    between atoms: N_5  and  C_8
REMARK    2  A    between atoms: C_11  and  C_14
REMARK    3  A    between atoms: C_17  and  C_19
REMARK    4  A    between atoms: N_23  and  C_24
REMARK    5  A    between atoms: C_24  and  C_25
REMARK    6  A    between atoms: C_28  and  C_31
REMARK                            x       y       z     vdW  Elec       q    Type
REMARK                         _______ _______ _______ _____ _____    ______ ____
ROOT
ATOM     14  C   UNL     1      -0.607   2.369  25.221  0.00  0.00    +0.205 A 
ATOM     15  N   UNL     1      -0.587   2.387  26.046  0.00  0.00    -0.056 NA
ATOM     16  O   UNL     1      -1.227   2.839  26.306  0.00  0.00    -0.336 OA
ATOM     17  C   UNL     1      -1.642   3.099  25.643  0.00  0.00    +0.251 A 
ATOM     18  N   UNL     1      -1.258   2.808  24.972  0.00  0.00    -0.190 NA
ENDROOT
BRANCH  14  11
ATOM      8  C   UNL     1       1.007   1.199  23.754  0.00  0.00    +0.132 A 
ATOM      9  C   UNL     1       0.323   0.813  24.006  0.00  0.00    +0.034 A 
ATOM     10  C   UNL     1      -0.215   1.203  24.496  0.00  0.00    +0.008 A 
ATOM     11  C   UNL     1      -0.069   1.979  24.732  0.00  0.00    +0.058 A 
ATOM     12  C   UNL     1       0.615   2.366  24.480  0.00  0.00    +0.103 A 
ATOM     13  N   UNL     1       1.153   1.976  23.991  0.00  0.00    -0.229 NA
BRANCH   8   5
ATOM      1  C   UNL     1       3.158  -0.362  21.797  0.00  0.00    +0.090 C 
ATOM      2  N   UNL     1       2.620   0.029  22.286  0.00  0.00    -0.269 NA
ATOM      3  C   UNL     1       1.824  -0.188  22.280  0.00  0.00    +0.094 C 
ATOM      4  C   UNL     1       1.286   0.202  22.769  0.00  0.00    +0.109 C 
ATOM      5  N   UNL     1       1.545   0.809  23.264  0.00  0.00    -0.290 N 
ATOM      6  C   UNL     1       2.341   1.026  23.271  0.00  0.00    +0.109 C 
ATOM      7  C   UNL     1       2.878   0.636  22.782  0.00  0.00    +0.094 C 
ENDBRANCH   8   5
ENDBRANCH  14  11
BRANCH  17  19
ATOM     19  C   UNL     1      -2.320   3.567  25.648  0.00  0.00    +0.138 C 
ATOM     20  C   UNL     1      -2.349   4.378  25.802  0.00  0.00    +0.027 C 
ATOM     21  C   UNL     1      -3.136   4.620  25.749  0.00  0.00    +0.019 C 
ATOM     22  C   UNL     1      -3.594   3.959  25.563  0.00  0.00    +0.073 C 
ATOM     23  N   UNL     1      -3.090   3.309  25.500  0.00  0.00    -0.263 NA
BRANCH  23  24
ATOM     24  C   UNL     1      -3.315   2.536  25.322  0.00  0.00    +0.099 C 
BRANCH  24  25
ATOM     25  C   UNL     1      -4.109   2.359  25.181  0.00  0.00    -0.006 A 
ATOM     26  C   UNL     1      -4.611   2.188  25.813  0.00  0.00    -0.003 A 
ATOM     27  C   UNL     1      -5.405   2.012  25.672  0.00  0.00    +0.004 A 
ATOM     28  C   UNL     1      -5.696   2.007  24.900  0.00  0.00    +0.071 A 
ATOM     29  C   UNL     1      -5.193   2.178  24.269  0.00  0.00    +0.004 A 
ATOM     30  C   UNL     1      -4.400   2.354  24.409  0.00  0.00    -0.003 A 
BRANCH  28  31
ATOM     31  C   UNL     1      -6.490   1.830  24.760  0.00  0.00    +0.419 C 
ATOM     32  F   UNL     1      -7.283   1.654  24.620  0.00  0.00    -0.166 F 
ATOM     33  F   UNL     1      -6.280   1.066  24.531  0.00  0.00    -0.166 F 
ATOM     34  F   UNL     1      -6.700   2.595  24.989  0.00  0.00    -0.166 F 
ENDBRANCH  28  31
ENDBRANCH  24  25
ENDBRANCH  23  24
ENDBRANCH  17  19
TORSDOF 6
ENDMDL
MODEL 6
REMARK VINA RESULT:      -7.7      2.511      4.017
REMARK  Name = 
REMARK  6 active torsions:
REMARK  status: ('A' for Active; 'I' for Inactive)
REMARK    1  A    between atoms: N_5  and  C_8
REMARK    2  A    between atoms: C_11  and  C_14
REMARK    3  A    between atoms: C_17  and  C_19
REMARK    4  A    between atoms: N_23  and  C_24
REMARK    5  A    between atoms: C_24  and  C_25
REMARK    6  A    between atoms: C_28  and  C_31
REMARK                            x       y       z     vdW  Elec       q    Type
REMARK                         _______ _______ _______ _____ _____    ______ ____
ROOT
ATOM     14  C   UNL     1      -0.954   1.497  25.058  0.00  0.00    +0.205 A 
ATOM     15  N   UNL     1      -0.168   1.668  25.243  0.00  0.00    -0.056 NA
ATOM     16  O   UNL     1      -0.089   2.489  25.280  0.00  0.00    -0.336 OA
ATOM     17  C   UNL     1      -0.825   2.824  25.119  0.00  0.00    +0.251 A 
ATOM     18  N   UNL     1      -1.360   2.211  24.982  0.00  0.00    -0.190 NA
ENDROOT
BRANCH  14  11
ATOM      8  C   UNL     1      -1.923  -0.764  24.781  0.00  0.00    +0.132 A 
ATOM      9  C   UNL     1      -1.629  -0.528  25.515  0.00  0.00    +0.034 A 
ATOM     10  C   UNL     1      -1.306   0.226  25.607  0.00  0.00    +0.008 A 
ATOM     11  C   UNL     1      -1.277   0.743  24.966  0.00  0.00    +0.058 A 
ATOM     12  C   UNL     1      -1.572   0.508  24.232  0.00  0.00    +0.103 A 
ATOM     13  N   UNL     1      -1.895  -0.246  24.139  0.00  0.00    -0.229 NA
BRANCH   8   5
ATOM      1  C   UNL     1      -3.215  -3.778  24.413  0.00  0.00    +0.090 C 
ATOM      2  N   UNL     1      -2.892  -3.025  24.505  0.00  0.00    -0.269 NA
ATOM      3  C   UNL     1      -2.089  -2.900  24.366  0.00  0.00    +0.094 C 
ATOM      4  C   UNL     1      -1.766  -2.146  24.458  0.00  0.00    +0.109 C 
ATOM      5  N   UNL     1      -2.246  -1.517  24.689  0.00  0.00    -0.290 N 
ATOM      6  C   UNL     1      -3.050  -1.641  24.829  0.00  0.00    +0.109 C 
ATOM      7  C   UNL     1      -3.373  -2.395  24.736  0.00  0.00    +0.094 C 
ENDBRANCH   8   5
ENDBRANCH  14  11
BRANCH  17  19
ATOM     19  C   UNL     1      -0.997   3.630  25.099  0.00  0.00    +0.138 C 
ATOM     20  C   UNL     1      -0.577   4.205  24.680  0.00  0.00    +0.027 C 
ATOM     21  C   UNL     1      -0.939   4.934  24.816  0.00  0.00    +0.019 C 
ATOM     22  C   UNL     1      -1.582   4.810  25.318  0.00  0.00    +0.073 C 
ATOM     23  N   UNL     1      -1.618   4.004  25.493  0.00  0.00    -0.263 NA
BRANCH  23  24
ATOM     24  C   UNL     1      -2.176   3.638  25.977  0.00  0.00    +0.099 C 
BRANCH  24  25
ATOM     25  C   UNL     1      -2.979   3.792  25.871  0.00  0.00    -0.006 A 
ATOM     26  C   UNL     1      -3.402   4.196  26.452  0.00  0.00    -0.003 A 
ATOM     27  C   UNL     1      -4.206   4.350  26.346  0.00  0.00    +0.004 A 
ATOM     28  C   UNL     1      -4.586   4.100  25.658  0.00  0.00    +0.071 A 
ATOM     29  C   UNL     1      -4.163   3.696  25.077  0.00  0.00    +0.004 A 
ATOM     30  C   UNL     1      -3.360   3.541  25.183  0.00  0.00    -0.003 A 
BRANCH  28  31
ATOM     31  C   UNL     1      -5.390   4.254  25.552  0.00  0.00    +0.419 C 
ATOM     32  F   UNL     1      -6.193   4.408  25.446  0.00  0.00    -0.166 F 
ATOM     33  F   UNL     1      -5.205   4.981  25.210  0.00  0.00    -0.166 F 
ATOM     34  F   UNL     1      -5.575   3.526  25.894  0.00  0.00    -0.166 F 
ENDBRANCH  28  31
ENDBRANCH  24  25
ENDBRANCH  23  24
ENDBRANCH  17  19
TORSDOF 6
ENDMDL
MODEL 7
REMARK VINA RESULT:      -7.6      3.000      6.614
REMARK  Name = 
REMARK  6 active torsions:
REMARK  status: ('A' for Active; 'I' for Inactive)
REMARK    1  A    between atoms: N_5  and  C_8
REMARK    2  A    between atoms: C_11  and  C_14
REMARK    3  A    between atoms: C_17  and  C_19
REMARK    4  A    between atoms: N_23  and  C_24
REMARK    5  A    between atoms: C_24  and  C_25
REMARK    6  A    between atoms: C_28  and  C_31
REMARK                            x       y       z     vdW  Elec       q    Type
REMARK                         _______ _______ _______ _____ _____    ______ ____
ROOT
ATOM     14  C   UNL     1      -2.912   0.091  24.594  0.00  0.00    +0.205 A 
ATOM     15  N   UNL     1      -3.133  -0.563  24.141  0.00  0.00    -0.056 NA
ATOM     16  O   UNL     1      -2.496  -1.087  24.121  0.00  0.00    -0.336 OA
ATOM     17  C   UNL     1      -1.881  -0.757  24.562  0.00  0.00    +0.251 A 
ATOM     18  N   UNL     1      -2.139  -0.030  24.854  0.00  0.00    -0.190 NA
ENDROOT
BRANCH  14  11
ATOM      8  C   UNL     1      -4.323   2.064  25.086  0.00  0.00    +0.132 A 
ATOM      9  C   UNL     1      -4.671   1.325  24.976  0.00  0.00    +0.034 A 
ATOM     10  C   UNL     1      -4.201   0.667  24.812  0.00  0.00    +0.008 A 
ATOM     11  C   UNL     1      -3.382   0.749  24.758  0.00  0.00    +0.058 A 
ATOM     12  C   UNL     1      -3.032   1.488  24.868  0.00  0.00    +0.103 A 
ATOM     13  N   UNL     1      -3.503   2.146  25.032  0.00  0.00    -0.229 NA
BRANCH   8   5
ATOM      1  C   UNL     1      -6.203   4.695  25.741  0.00  0.00    +0.090 C 
ATOM      2  N   UNL     1      -5.733   4.038  25.577  0.00  0.00    -0.269 NA
ATOM      3  C   UNL     1      -6.006   3.280  25.757  0.00  0.00    +0.094 C 
ATOM      4  C   UNL     1      -5.535   2.622  25.593  0.00  0.00    +0.109 C 
ATOM      5  N   UNL     1      -4.793   2.722  25.250  0.00  0.00    -0.290 N 
ATOM      6  C   UNL     1      -4.519   3.479  25.070  0.00  0.00    +0.109 C 
ATOM      7  C   UNL     1      -4.989   4.137  25.234  0.00  0.00    +0.094 C 
ENDBRANCH   8   5
ENDBRANCH  14  11
BRANCH  17  19
ATOM     19  C   UNL     1      -1.140  -1.096  24.689  0.00  0.00    +0.138 C 
ATOM     20  C   UNL     1      -0.968  -1.702  25.222  0.00  0.00    +0.027 C 
ATOM     21  C   UNL     1      -0.163  -1.869  25.168  0.00  0.00    +0.019 C 
ATOM     22  C   UNL     1       0.165  -1.366  24.601  0.00  0.00    +0.073 C 
ATOM     23  N   UNL     1      -0.440  -0.888  24.305  0.00  0.00    -0.263 NA
BRANCH  23  24
ATOM     24  C   UNL     1      -0.358  -0.306  23.727  0.00  0.00    +0.099 C 
BRANCH  24  25
ATOM     25  C   UNL     1       0.392  -0.090  23.461  0.00  0.00    -0.006 A 
ATOM     26  C   UNL     1       0.801   0.523  23.831  0.00  0.00    -0.003 A 
ATOM     27  C   UNL     1       1.552   0.739  23.565  0.00  0.00    +0.004 A 
ATOM     28  C   UNL     1       1.894   0.340  22.929  0.00  0.00    +0.071 A 
ATOM     29  C   UNL     1       1.485  -0.274  22.559  0.00  0.00    +0.004 A 
ATOM     30  C   UNL     1       0.735  -0.489  22.825  0.00  0.00    -0.003 A 
BRANCH  28  31
ATOM     31  C   UNL     1       2.645   0.555  22.663  0.00  0.00    +0.419 C 
ATOM     32  F   UNL     1       3.395   0.771  22.398  0.00  0.00    -0.166 F 
ATOM     33  F   UNL     1       2.609   1.241  23.119  0.00  0.00    -0.166 F 
ATOM     34  F   UNL     1       2.680  -0.131  22.207  0.00  0.00    -0.166 F 
ENDBRANCH  28  31
ENDBRANCH  24  25
ENDBRANCH  23  24
ENDBRANCH  17  19
TORSDOF 6
ENDMDL
MODEL 8
REMARK VINA RESULT:      -7.3      2.840      6.081
REMARK  Name = 
REMARK  6 active torsions:
REMARK  status: ('A' for Active; 'I' for Inactive)
REMARK    1  A    between atoms: N_5  and  C_8
REMARK    2  A    between atoms: C_11  and  C_14
REMARK    3  A    between atoms: C_17  and  C_19
REMARK    4  A    between atoms: N_23  and  C_24
REMARK    5  A    between atoms: C_24  and  C_25
REMARK    6  A    between atoms: C_28  and  C_31
REMARK                            x       y       z     vdW  Elec       q    Type
REMARK                         _______ _______ _______ _____ _____    ______ ____
ROOT
ATOM     14  C   UNL     1      -1.480   1.859  24.884  0.00  0.00    +0.205 A 
ATOM     15  N   UNL     1      -0.732   2.076  25.157  0.00  0.00    -0.056 NA
ATOM     16  O   UNL     1      -0.196   1.494  24.922  0.00  0.00    -0.336 OA
ATOM     17  C   UNL     1      -0.613   0.918  24.503  0.00  0.00    +0.251 A 
ATOM     18  N   UNL     1      -1.407   1.144  24.480  0.00  0.00    -0.190 NA
ENDROOT
BRANCH  14  11
ATOM      8  C   UNL     1      -3.575   3.134  25.218  0.00  0.00    +0.132 A 
ATOM      9  C   UNL     1      -3.516   2.591  24.600  0.00  0.00    +0.034 A 
ATOM     10  C   UNL     1      -2.818   2.167  24.488  0.00  0.00    +0.008 A 
ATOM     11  C   UNL     1      -2.179   2.284  24.995  0.00  0.00    +0.058 A 
ATOM     12  C   UNL     1      -2.237   2.826  25.615  0.00  0.00    +0.103 A 
ATOM     13  N   UNL     1      -2.935   3.251  25.726  0.00  0.00    -0.229 NA
BRANCH   8   5
ATOM      1  C   UNL     1      -6.369   4.832  25.665  0.00  0.00    +0.090 C 
ATOM      2  N   UNL     1      -5.671   4.408  25.553  0.00  0.00    -0.269 NA
ATOM      3  C   UNL     1      -4.985   4.797  25.312  0.00  0.00    +0.094 C 
ATOM      4  C   UNL     1      -4.286   4.372  25.201  0.00  0.00    +0.109 C 
ATOM      5  N   UNL     1      -4.274   3.558  25.330  0.00  0.00    -0.290 N 
ATOM      6  C   UNL     1      -4.960   3.168  25.571  0.00  0.00    +0.109 C 
ATOM      7  C   UNL     1      -5.658   3.592  25.682  0.00  0.00    +0.094 C 
ENDBRANCH   8   5
ENDBRANCH  14  11
BRANCH  17  19
ATOM     19  C   UNL     1      -0.294   0.236  24.167  0.00  0.00    +0.138 C 
ATOM     20  C   UNL     1       0.224   0.209  23.525  0.00  0.00    +0.027 C 
ATOM     21  C   UNL     1       0.402  -0.582  23.374  0.00  0.00    +0.019 C 
ATOM     22  C   UNL     1      -0.005  -1.045  23.924  0.00  0.00    +0.073 C 
ATOM     23  N   UNL     1      -0.435  -0.538  24.414  0.00  0.00    -0.263 NA
BRANCH  23  24
ATOM     24  C   UNL     1      -0.921  -0.767  25.040  0.00  0.00    +0.099 C 
BRANCH  24  25
ATOM     25  C   UNL     1      -1.505  -1.336  24.922  0.00  0.00    -0.006 A 
ATOM     26  C   UNL     1      -1.298  -2.097  24.680  0.00  0.00    -0.003 A 
ATOM     27  C   UNL     1      -1.884  -2.667  24.562  0.00  0.00    +0.004 A 
ATOM     28  C   UNL     1      -2.676  -2.475  24.686  0.00  0.00    +0.071 A 
ATOM     29  C   UNL     1      -2.883  -1.714  24.928  0.00  0.00    +0.004 A 
ATOM     30  C   UNL     1      -2.299  -1.145  25.046  0.00  0.00    -0.003 A 
BRANCH  28  31
ATOM     31  C   UNL     1      -3.262  -3.045  24.568  0.00  0.00    +0.419 C 
ATOM     32  F   UNL     1      -3.846  -3.614  24.450  0.00  0.00    -0.166 F 
ATOM     33  F   UNL     1      -3.528  -2.931  25.340  0.00  0.00    -0.166 F 
ATOM     34  F   UNL     1      -2.995  -3.159  23.795  0.00  0.00    -0.166 F 
ENDBRANCH  28  31
ENDBRANCH  24  25
ENDBRANCH  23  24
ENDBRANCH  17  19
TORSDOF 6
ENDMDL
MODEL 9
REMARK VINA RESULT:      -7.0     15.196     16.926
REMARK  Name = 
REMARK  6 active torsions:
REMARK  status: ('A' for Active; 'I' for Inactive)
REMARK    1  A    between atoms: N_5  and  C_8
REMARK    2  A    between atoms: C_11  and  C_14
REMARK    3  A    between atoms: C_17  and  C_19
REMARK    4  A    between atoms: N_23  and  C_24
REMARK    5  A    between atoms: C_24  and  C_25
REMARK    6  A    between atoms: C_28  and  C_31
REMARK                            x       y       z     vdW  Elec       q    Type
REMARK                         _______ _______ _______ _____ _____    ______ ____
ROOT
ATOM     14  C   UNL     1      -5.974 -10.114  13.155  0.00  0.00    +0.205 A 
ATOM     15  N   UNL     1      -6.171 -10.707  12.616  0.00  0.00    -0.056 NA
ATOM     16  O   UNL     1      -5.944 -10.453  11.864  0.00  0.00    -0.336 OA
ATOM     17  C   UNL     1      -5.607  -9.704  11.939  0.00  0.00    +0.251 A 
ATOM     18  N   UNL     1      -5.625  -9.495  12.737  0.00  0.00    -0.190 NA
ENDROOT
BRANCH  14  11
ATOM      8  C   UNL     1      -6.360 -10.184  15.599  0.00  0.00    +0.132 A 
ATOM      9  C   UNL     1      -5.591 -10.208  15.302  0.00  0.00    +0.034 A 
ATOM     10  C   UNL     1      -5.462 -10.184  14.487  0.00  0.00    +0.008 A 
ATOM     11  C   UNL     1      -6.103 -10.137  13.970  0.00  0.00    +0.058 A 
ATOM     12  C   UNL     1      -6.872 -10.114  14.266  0.00  0.00    +0.103 A 
ATOM     13  N   UNL     1      -7.001 -10.137  15.081  0.00  0.00    -0.229 NA
BRANCH   8   5
ATOM      1  C   UNL     1      -6.876 -10.278  18.857  0.00  0.00    +0.090 C 
ATOM      2  N   UNL     1      -6.747 -10.254  18.043  0.00  0.00    -0.269 NA
ATOM      3  C   UNL     1      -6.213 -10.777  17.694  0.00  0.00    +0.094 C 
ATOM      4  C   UNL     1      -6.084 -10.754  16.879  0.00  0.00    +0.109 C 
ATOM      5  N   UNL     1      -6.489 -10.208  16.414  0.00  0.00    -0.290 N 
ATOM      6  C   UNL     1      -7.024  -9.684  16.761  0.00  0.00    +0.109 C 
ATOM      7  C   UNL     1      -7.153  -9.707  17.576  0.00  0.00    +0.094 C 
ENDBRANCH   8   5
ENDBRANCH  14  11
BRANCH  17  19
ATOM     19  C   UNL     1      -5.304  -9.245  11.324  0.00  0.00    +0.138 C 
ATOM     20  C   UNL     1      -5.680  -8.602  10.969  0.00  0.00    +0.027 C 
ATOM     21  C   UNL     1      -5.182  -8.307  10.382  0.00  0.00    +0.019 C 
ATOM     22  C   UNL     1      -4.496  -8.767  10.375  0.00  0.00    +0.073 C 
ATOM     23  N   UNL     1      -4.572  -9.347  10.957  0.00  0.00    -0.263 NA
BRANCH  23  24
ATOM     24  C   UNL     1      -4.015  -9.926  11.140  0.00  0.00    +0.099 C 
BRANCH  24  25
ATOM     25  C   UNL     1      -3.211  -9.742  11.132  0.00  0.00    -0.006 A 
ATOM     26  C   UNL     1      -2.748  -9.885  11.799  0.00  0.00    -0.003 A 
ATOM     27  C   UNL     1      -1.943  -9.701  11.791  0.00  0.00    +0.004 A 
ATOM     28  C   UNL     1      -1.602  -9.374  11.115  0.00  0.00    +0.071 A 
ATOM     29  C   UNL     1      -2.065  -9.232  10.447  0.00  0.00    +0.004 A 
ATOM     30  C   UNL     1      -2.869  -9.415  10.456  0.00  0.00    -0.003 A 
BRANCH  28  31
ATOM     31  C   UNL     1      -0.798  -9.191  11.107  0.00  0.00    +0.419 C 
ATOM     32  F   UNL     1       0.006  -9.007  11.098  0.00  0.00    -0.166 F 
ATOM     33  F   UNL     1      -0.635  -9.885  11.521  0.00  0.00    -0.166 F 
ATOM     34  F   UNL     1      -0.961  -8.496  10.692  0.00  0.00    -0.166 F 
ENDBRANCH  28  31
ENDBRANCH  24  25
ENDBRANCH  23  24
ENDBRANCH  17  19
TORSDOF 6
ENDMDL
MODEL 10
REMARK VINA RESULT:      -6.6     14.510     15.734
REMARK  Name = 
REMARK  6 active torsions:
REMARK  status: ('A' for Active; 'I' for Inactive)
REMARK    1  A    between atoms: N_5  and  C_8
REMARK    2  A    between atoms: C_11  and  C_14
REMARK    3  A    between atoms: C_17  and  C_19
REMARK    4  A    between atoms: N_23  and  C_24
REMARK    5  A    between atoms: C_24  and  C_25
REMARK    6  A    between atoms: C_28  and  C_31
REMARK                            x       y       z     vdW  Elec       q    Type
REMARK                         _______ _______ _______ _____ _____    ______ ____
ROOT
ATOM     14  C   UNL     1      -7.575  -9.969  13.761  0.00  0.00    +0.205 A 
ATOM     15  N   UNL     1      -8.074 -10.621  13.847  0.00  0.00    -0.056 NA
ATOM     16  O   UNL     1      -8.477 -10.541  14.562  0.00  0.00    -0.336 OA
ATOM     17  C   UNL     1      -8.228  -9.839  14.918  0.00  0.00    +0.251 A 
ATOM     18  N   UNL     1      -7.671  -9.486  14.422  0.00  0.00    -0.190 NA
ENDROOT
BRANCH  14  11
ATOM      8  C   UNL     1      -6.061  -9.538  11.851  0.00  0.00    +0.132 A 
ATOM      9  C   UNL     1      -5.779  -9.475  12.623  0.00  0.00    +0.034 A 
ATOM     10  C   UNL     1      -6.284  -9.619  13.260  0.00  0.00    +0.008 A 
ATOM     11  C   UNL     1      -7.071  -9.825  13.124  0.00  0.00    +0.058 A 
ATOM     12  C   UNL     1      -7.354  -9.888  12.351  0.00  0.00    +0.103 A 
ATOM     13  N   UNL     1      -6.849  -9.744  11.715  0.00  0.00    -0.229 NA
BRANCH   8   5
ATOM      1  C   UNL     1      -4.042  -8.963   9.304  0.00  0.00    +0.090 C 
ATOM      2  N   UNL     1      -4.547  -9.107   9.941  0.00  0.00    -0.269 NA
ATOM      3  C   UNL     1      -5.043  -8.509  10.218  0.00  0.00    +0.094 C 
ATOM      4  C   UNL     1      -5.547  -8.652  10.855  0.00  0.00    +0.109 C 
ATOM      5  N   UNL     1      -5.556  -9.394  11.214  0.00  0.00    -0.290 N 
ATOM      6  C   UNL     1      -5.061  -9.994  10.938  0.00  0.00    +0.109 C 
ATOM      7  C   UNL     1      -4.557  -9.850  10.301  0.00  0.00    +0.094 C 
ENDBRANCH   8   5
ENDBRANCH  14  11
BRANCH  17  19
ATOM     19  C   UNL     1      -8.489  -9.543  15.642  0.00  0.00    +0.138 C 
ATOM     20  C   UNL     1      -9.069  -8.965  15.749  0.00  0.00    +0.027 C 
ATOM     21  C   UNL     1      -9.156  -8.837  16.559  0.00  0.00    +0.019 C 
ATOM     22  C   UNL     1      -8.630  -9.336  16.954  0.00  0.00    +0.073 C 
ATOM     23  N   UNL     1      -8.218  -9.772  16.387  0.00  0.00    -0.263 NA
BRANCH  23  24
ATOM     24  C   UNL     1      -7.637 -10.338  16.538  0.00  0.00    +0.099 C 
BRANCH  24  25
ATOM     25  C   UNL     1      -7.293 -10.386  17.286  0.00  0.00    -0.006 A 
ATOM     26  C   UNL     1      -6.535 -10.087  17.412  0.00  0.00    -0.003 A 
ATOM     27  C   UNL     1      -6.190 -10.135  18.160  0.00  0.00    +0.004 A 
ATOM     28  C   UNL     1      -6.605 -10.482  18.783  0.00  0.00    +0.071 A 
ATOM     29  C   UNL     1      -7.363 -10.781  18.657  0.00  0.00    +0.004 A 
ATOM     30  C   UNL     1      -7.708 -10.733  17.910  0.00  0.00    -0.003 A 
BRANCH  28  31
ATOM     31  C   UNL     1      -6.261 -10.530  19.531  0.00  0.00    +0.419 C 
ATOM     32  F   UNL     1      -5.917 -10.578  20.279  0.00  0.00    -0.166 F 
ATOM     33  F   UNL     1      -6.987 -10.351  19.877  0.00  0.00    -0.166 F 
ATOM     34  F   UNL     1      -5.533 -10.709  19.185  0.00  0.00    -0.166 F 
ENDBRANCH  28  31
ENDBRANCH  24  25
ENDBRANCH  23  24
ENDBRANCH  17  19
TORSDOF 6
ENDMDL
