REMARK  Name = 
REMARK  6 active torsions:
REMARK  status: ('A' for Active; 'I' for Inactive)
REMARK    1  A    between atoms: N_2  and  C_4
REMARK    2  A    between atoms: C_7  and  C_10
REMARK    3  A    between atoms: N_15  and  C_16
REMARK    4  A    between atoms: C_20  and  N_24
REMARK    5  A    between atoms: N_24  and  S_25
REMARK    6  A    between atoms: S_25  and  C_28
REMARK                            x       y       z     vdW  Elec       q    Type
REMARK                         _______ _______ _______ _____ _____    ______ ____
ROOT
ATOM     16  C   UNL     1      -1.694   3.875   0.000  0.00  0.00    +0.154 C 
ATOM     17  C   UNL     1      -0.940   4.210   0.000  0.00  0.00    +0.166 C 
ATOM     18  O   UNL     1      -0.388   3.598   0.000  0.00  0.00    -0.350 OA
ATOM     19  C   UNL     1      -0.801   2.883   0.000  0.00  0.00    +0.164 C 
ATOM     20  C   UNL     1      -0.715   2.062   0.000  0.00  0.00    +0.157 C 
ATOM     21  C   UNL     1      -1.468   1.727   0.000  0.00  0.00    +0.164 C 
ATOM     22  O   UNL     1      -2.020   2.340   0.000  0.00  0.00    -0.350 OA
ATOM     23  C   UNL     1      -1.608   3.054   0.000  0.00  0.00    +0.166 C 
ENDROOT
BRANCH  16  15
ATOM     10  C   UNL     1      -3.123   6.350   0.000  0.00  0.00    +0.086 A 
ATOM     11  C   UNL     1      -2.408   6.763   0.000  0.00  0.00    +0.040 A 
ATOM     12  C   UNL     1      -1.694   6.350   0.000  0.00  0.00    +0.103 A 
ATOM     13  N   UNL     1      -1.694   5.525   0.000  0.00  0.00    -0.211 NA
ATOM     14  C   UNL     1      -2.408   5.112   0.000  0.00  0.00    +0.237 A 
ATOM     15  N   UNL     1      -2.408   4.287   0.000  0.00  0.00    -0.200 NA
ATOM     38  N   UNL     1      -3.123   5.525   0.000  0.00  0.00    -0.212 NA
BRANCH  10   7
ATOM      4  C   UNL     1      -5.266   7.588   0.000  0.00  0.00    +0.048 A 
ATOM      5  C   UNL     1      -4.552   8.000   0.000  0.00  0.00    +0.015 A 
ATOM      6  C   UNL     1      -3.837   7.588   0.000  0.00  0.00    +0.003 A 
ATOM      7  C   UNL     1      -3.837   6.763   0.000  0.00  0.00    +0.018 A 
ATOM      8  C   UNL     1      -4.552   6.350   0.000  0.00  0.00    +0.003 A 
ATOM      9  C   UNL     1      -5.266   6.763   0.000  0.00  0.00    +0.015 A 
BRANCH   4   2
ATOM      1  C   UNL     1      -6.695   7.588   0.000  0.00  0.00    +0.112 C 
ATOM      2  N   UNL     1      -5.981   8.000   0.000  0.00  0.00    -0.304 N 
ATOM      3  C   UNL     1      -5.981   8.825   0.000  0.00  0.00    +0.112 C 
ENDBRANCH   4   2
ENDBRANCH  10   7
ENDBRANCH  16  15
BRANCH  20  24
ATOM     24  N   UNL     1       0.000   1.650   0.000  0.00  0.00    -0.074 NA
BRANCH  24  25
ATOM     25  S   UNL     1       0.000   0.825   0.000  0.00  0.00    +0.078 S 
ATOM     26  O   UNL     1      -0.825   0.825   0.000  0.00  0.00    -0.152 OA
ATOM     27  O   UNL     1       0.825   0.825   0.000  0.00  0.00    -0.152 OA
BRANCH  25  28
ATOM     28  C   UNL     1       0.000   0.000   0.000  0.00  0.00    +0.141 A 
ATOM     29  C   UNL     1      -0.715  -0.412   0.000  0.00  0.00    +0.022 A 
ATOM     30  C   UNL     1      -0.715  -1.238   0.000  0.00  0.00    +0.001 A 
ATOM     31  C   UNL     1       0.000  -1.650   0.000  0.00  0.00    +0.002 A 
ATOM     32  C   UNL     1       0.715  -1.238   0.000  0.00  0.00    +0.019 A 
ATOM     33  C   UNL     1       0.715  -0.412   0.000  0.00  0.00    +0.100 A 
ATOM     34  N   UNL     1       1.429   0.000   0.000  0.00  0.00    -0.242 NA
ATOM     35  C   UNL     1       2.143  -0.412   0.000  0.00  0.00    +0.099 A 
ATOM     36  C   UNL     1       2.143  -1.238   0.000  0.00  0.00    +0.021 A 
ATOM     37  C   UNL     1       1.429  -1.650   0.000  0.00  0.00    +0.003 A 
ENDBRANCH  25  28
ENDBRANCH  24  25
ENDBRANCH  20  24
TORSDOF 6
