MODEL 1
REMARK VINA RESULT:     -10.7      0.000      0.000
REMARK  Name = 
REMARK  4 active torsions:
REMARK  status: ('A' for Active; 'I' for Inactive)
REMARK    1  A    between atoms: C_2  and  S_3
REMARK    2  A    between atoms: S_3  and  C_6
REMARK    3  A    between atoms: C_11  and  C_13
REMARK    4  A    between atoms: N_16  and  C_18
REMARK                            x       y       z     vdW  Elec       q    Type
REMARK                         _______ _______ _______ _____ _____    ______ ____
ROOT
ATOM      6  C   UNL     1      -1.234   3.453  25.125  0.00  0.00    +0.107 A 
ATOM      7  C   UNL     1      -1.947   3.160  24.832  0.00  0.00    +0.041 A 
ATOM      8  C   UNL     1      -2.144   2.366  24.942  0.00  0.00    +0.120 A 
ATOM      9  C   UNL     1      -1.626   1.865  25.344  0.00  0.00    +0.164 A 
ATOM     10  O   UNL     1      -1.965   1.114  25.368  0.00  0.00    -0.438 OA
ATOM     11  C   UNL     1      -2.692   1.150  24.981  0.00  0.00    +0.207 A 
ATOM     12  N   UNL     1      -2.802   1.924  24.717  0.00  0.00    -0.212 NA
ATOM     24  C   UNL     1      -0.912   2.159  25.638  0.00  0.00    +0.040 A 
ATOM     25  C   UNL     1      -0.717   2.952  25.527  0.00  0.00    +0.022 A 
ENDROOT
BRANCH  11  13
ATOM     13  C   UNL     1      -3.217   0.522  24.875  0.00  0.00    +0.094 C 
ATOM     14  C   UNL     1      -4.040   0.570  24.894  0.00  0.00    +0.028 C 
ATOM     15  C   UNL     1      -4.343  -0.186  24.762  0.00  0.00    +0.073 C 
ATOM     16  N   UNL     1      -3.707  -0.701  24.662  0.00  0.00    -0.273 NA
ATOM     17  C   UNL     1      -3.011  -0.263  24.732  0.00  0.00    +0.081 C 
BRANCH  16  18
ATOM     18  C   UNL     1      -3.757  -1.512  24.518  0.00  0.00    +0.063 C 
ATOM     19  C   UNL     1      -4.164  -1.789  23.855  0.00  0.00    +0.048 C 
ATOM     20  C   UNL     1      -4.214  -2.599  23.711  0.00  0.00    +0.144 C 
ATOM     21  O   UNL     1      -3.858  -3.133  24.228  0.00  0.00    -0.354 OA
ATOM     22  C   UNL     1      -3.452  -2.858  24.891  0.00  0.00    +0.144 C 
ATOM     23  C   UNL     1      -3.401  -2.047  25.036  0.00  0.00    +0.048 C 
ENDBRANCH  16  18
ENDBRANCH  11  13
BRANCH   6   3
ATOM      3  S   UNL     1      -1.039   4.246  25.015  0.00  0.00    +0.009 S 
ATOM      4  O   UNL     1      -1.540   4.457  25.635  0.00  0.00    -0.169 OA
ATOM      5  O   UNL     1      -0.537   4.037  24.394  0.00  0.00    -0.169 OA
BRANCH   3   2
ATOM      1  C   UNL     1      -1.412   5.626  25.021  0.00  0.00    +0.028 C 
ATOM      2  C   UNL     1      -0.842   5.041  24.905  0.00  0.00    +0.156 C 
ENDBRANCH   3   2
ENDBRANCH   6   3
TORSDOF 4
ENDMDL
MODEL 2
REMARK VINA RESULT:     -10.6      1.812      5.632
REMARK  Name = 
REMARK  4 active torsions:
REMARK  status: ('A' for Active; 'I' for Inactive)
REMARK    1  A    between atoms: C_2  and  S_3
REMARK    2  A    between atoms: S_3  and  C_6
REMARK    3  A    between atoms: C_11  and  C_13
REMARK    4  A    between atoms: N_16  and  C_18
REMARK                            x       y       z     vdW  Elec       q    Type
REMARK                         _______ _______ _______ _____ _____    ______ ____
ROOT
ATOM      6  C   UNL     1      -2.426  -1.624  24.905  0.00  0.00    +0.107 A 
ATOM      7  C   UNL     1      -2.606  -0.820  24.948  0.00  0.00    +0.041 A 
ATOM      8  C   UNL     1      -2.013  -0.272  25.116  0.00  0.00    +0.120 A 
ATOM      9  C   UNL     1      -1.239  -0.528  25.241  0.00  0.00    +0.164 A 
ATOM     10  O   UNL     1      -0.773   0.134  25.395  0.00  0.00    -0.438 OA
ATOM     11  C   UNL     1      -1.258   0.800  25.365  0.00  0.00    +0.207 A 
ATOM     12  N   UNL     1      -2.024   0.548  25.192  0.00  0.00    -0.212 NA
ATOM     24  C   UNL     1      -1.058  -1.333  25.198  0.00  0.00    +0.040 A 
ATOM     25  C   UNL     1      -1.652  -1.880  25.030  0.00  0.00    +0.022 A 
ENDROOT
BRANCH  11  13
ATOM     13  C   UNL     1      -1.020   1.580  25.486  0.00  0.00    +0.094 C 
ATOM     14  C   UNL     1      -0.320   1.823  25.849  0.00  0.00    +0.028 C 
ATOM     15  C   UNL     1      -0.306   2.648  25.853  0.00  0.00    +0.073 C 
ATOM     16  N   UNL     1      -0.998   2.915  25.493  0.00  0.00    -0.273 NA
ATOM     17  C   UNL     1      -1.439   2.256  25.266  0.00  0.00    +0.081 C 
BRANCH  16  18
ATOM     18  C   UNL     1      -1.212   3.704  25.379  0.00  0.00    +0.063 C 
ATOM     19  C   UNL     1      -1.947   3.973  25.638  0.00  0.00    +0.048 C 
ATOM     20  C   UNL     1      -2.161   4.762  25.524  0.00  0.00    +0.144 C 
ATOM     21  O   UNL     1      -1.640   5.281  25.151  0.00  0.00    -0.354 OA
ATOM     22  C   UNL     1      -0.905   5.013  24.892  0.00  0.00    +0.144 C 
ATOM     23  C   UNL     1      -0.691   4.224  25.006  0.00  0.00    +0.048 C 
ENDBRANCH  16  18
ENDBRANCH  11  13
BRANCH   6   3
ATOM      3  S   UNL     1      -3.019  -2.171  24.738  0.00  0.00    +0.009 S 
ATOM      4  O   UNL     1      -2.708  -2.278  23.981  0.00  0.00    -0.169 OA
ATOM      5  O   UNL     1      -3.331  -2.065  25.494  0.00  0.00    -0.169 OA
BRANCH   3   2
ATOM      1  C   UNL     1      -4.148  -2.573  23.960  0.00  0.00    +0.028 C 
ATOM      2  C   UNL     1      -3.613  -2.720  24.571  0.00  0.00    +0.156 C 
ENDBRANCH   3   2
ENDBRANCH   6   3
TORSDOF 4
ENDMDL
MODEL 3
REMARK VINA RESULT:     -10.4      1.623      5.711
REMARK  Name = 
REMARK  4 active torsions:
REMARK  status: ('A' for Active; 'I' for Inactive)
REMARK    1  A    between atoms: C_2  and  S_3
REMARK    2  A    between atoms: S_3  and  C_6
REMARK    3  A    between atoms: C_11  and  C_13
REMARK    4  A    between atoms: N_16  and  C_18
REMARK                            x       y       z     vdW  Elec       q    Type
REMARK                         _______ _______ _______ _____ _____    ______ ____
ROOT
ATOM      6  C   UNL     1      -3.727  -1.070  24.462  0.00  0.00    +0.107 A 
ATOM      7  C   UNL     1      -2.967  -0.759  24.528  0.00  0.00    +0.041 A 
ATOM      8  C   UNL     1      -2.861   0.037  24.717  0.00  0.00    +0.120 A 
ATOM      9  C   UNL     1      -3.517   0.522  24.839  0.00  0.00    +0.164 A 
ATOM     10  O   UNL     1      -3.244   1.280  25.017  0.00  0.00    -0.438 OA
ATOM     11  C   UNL     1      -2.420   1.264  25.004  0.00  0.00    +0.207 A 
ATOM     12  N   UNL     1      -2.184   0.496  24.819  0.00  0.00    -0.212 NA
ATOM     24  C   UNL     1      -4.279   0.211  24.773  0.00  0.00    +0.040 A 
ATOM     25  C   UNL     1      -4.383  -0.585  24.585  0.00  0.00    +0.022 A 
ENDROOT
BRANCH  11  13
ATOM     13  C   UNL     1      -1.920   1.903  25.151  0.00  0.00    +0.094 C 
ATOM     14  C   UNL     1      -1.172   1.865  25.498  0.00  0.00    +0.028 C 
ATOM     15  C   UNL     1      -0.869   2.631  25.539  0.00  0.00    +0.073 C 
ATOM     16  N   UNL     1      -1.430   3.144  25.217  0.00  0.00    -0.273 NA
ATOM     17  C   UNL     1      -2.079   2.694  24.978  0.00  0.00    +0.081 C 
BRANCH  16  18
ATOM     18  C   UNL     1      -1.356   3.962  25.147  0.00  0.00    +0.063 C 
ATOM     19  C   UNL     1      -0.673   4.288  24.818  0.00  0.00    +0.048 C 
ATOM     20  C   UNL     1      -0.598   5.106  24.748  0.00  0.00    +0.144 C 
ATOM     21  O   UNL     1      -1.206   5.599  25.007  0.00  0.00    -0.354 OA
ATOM     22  C   UNL     1      -1.889   5.275  25.335  0.00  0.00    +0.144 C 
ATOM     23  C   UNL     1      -1.964   4.456  25.406  0.00  0.00    +0.048 C 
ENDBRANCH  16  18
ENDBRANCH  11  13
BRANCH   6   3
ATOM      3  S   UNL     1      -3.832  -1.866  24.274  0.00  0.00    +0.009 S 
ATOM      4  O   UNL     1      -3.558  -2.080  25.021  0.00  0.00    -0.169 OA
ATOM      5  O   UNL     1      -4.107  -1.653  23.525  0.00  0.00    -0.169 OA
BRANCH   3   2
ATOM      1  C   UNL     1      -3.522  -3.243  24.498  0.00  0.00    +0.028 C 
ATOM      2  C   UNL     1      -3.938  -2.663  24.085  0.00  0.00    +0.156 C 
ENDBRANCH   3   2
ENDBRANCH   6   3
TORSDOF 4
ENDMDL
MODEL 4
REMARK VINA RESULT:      -9.0      2.735      4.094
REMARK  Name = 
REMARK  4 active torsions:
REMARK  status: ('A' for Active; 'I' for Inactive)
REMARK    1  A    between atoms: C_2  and  S_3
REMARK    2  A    between atoms: S_3  and  C_6
REMARK    3  A    between atoms: C_11  and  C_13
REMARK    4  A    between atoms: N_16  and  C_18
REMARK                            x       y       z     vdW  Elec       q    Type
REMARK                         _______ _______ _______ _____ _____    ______ ____
ROOT
ATOM      6  C   UNL     1      -0.092   0.034  23.872  0.00  0.00    +0.107 A 
ATOM      7  C   UNL     1      -0.703   0.559  23.698  0.00  0.00    +0.041 A 
ATOM      8  C   UNL     1      -1.429   0.492  24.083  0.00  0.00    +0.120 A 
ATOM      9  C   UNL     1      -1.544  -0.103  24.644  0.00  0.00    +0.164 A 
ATOM     10  O   UNL     1      -2.313  -0.036  24.933  0.00  0.00    -0.438 OA
ATOM     11  C   UNL     1      -2.674   0.600  24.552  0.00  0.00    +0.207 A 
ATOM     12  N   UNL     1      -2.128   0.925  24.027  0.00  0.00    -0.212 NA
ATOM     24  C   UNL     1      -0.932  -0.629  24.819  0.00  0.00    +0.040 A 
ATOM     25  C   UNL     1      -0.207  -0.560  24.433  0.00  0.00    +0.022 A 
ENDROOT
BRANCH  11  13
ATOM     13  C   UNL     1      -3.446   0.864  24.674  0.00  0.00    +0.094 C 
ATOM     14  C   UNL     1      -4.135   0.445  24.501  0.00  0.00    +0.028 C 
ATOM     15  C   UNL     1      -4.780   0.915  24.710  0.00  0.00    +0.073 C 
ATOM     16  N   UNL     1      -4.490   1.625  25.012  0.00  0.00    -0.273 NA
ATOM     17  C   UNL     1      -3.665   1.594  24.990  0.00  0.00    +0.081 C 
BRANCH  16  18
ATOM     18  C   UNL     1      -4.943   2.257  25.289  0.00  0.00    +0.063 C 
ATOM     19  C   UNL     1      -4.690   3.032  25.164  0.00  0.00    +0.048 C 
ATOM     20  C   UNL     1      -5.143   3.663  25.441  0.00  0.00    +0.144 C 
ATOM     21  O   UNL     1      -5.849   3.520  25.841  0.00  0.00    -0.354 OA
ATOM     22  C   UNL     1      -6.103   2.745  25.966  0.00  0.00    +0.144 C 
ATOM     23  C   UNL     1      -5.650   2.113  25.690  0.00  0.00    +0.048 C 
ENDBRANCH  16  18
ENDBRANCH  11  13
BRANCH   6   3
ATOM      3  S   UNL     1       0.633   0.102  23.487  0.00  0.00    +0.009 S 
ATOM      4  O   UNL     1       0.742   0.848  23.822  0.00  0.00    -0.169 OA
ATOM      5  O   UNL     1       0.526  -0.644  23.151  0.00  0.00    -0.169 OA
BRANCH   3   2
ATOM      1  C   UNL     1       1.488  -0.229  22.390  0.00  0.00    +0.028 C 
ATOM      2  C   UNL     1       1.360   0.170  23.101  0.00  0.00    +0.156 C 
ENDBRANCH   3   2
ENDBRANCH   6   3
TORSDOF 4
ENDMDL
MODEL 5
REMARK VINA RESULT:      -7.1     15.317     17.976
REMARK  Name = 
REMARK  4 active torsions:
REMARK  status: ('A' for Active; 'I' for Inactive)
REMARK    1  A    between atoms: C_2  and  S_3
REMARK    2  A    between atoms: S_3  and  C_6
REMARK    3  A    between atoms: C_11  and  C_13
REMARK    4  A    between atoms: N_16  and  C_18
REMARK                            x       y       z     vdW  Elec       q    Type
REMARK                         _______ _______ _______ _____ _____    ______ ____
ROOT
ATOM      6  C   UNL     1      11.385   7.516  21.474  0.00  0.00    +0.107 A 
ATOM      7  C   UNL     1      11.607   7.990  20.837  0.00  0.00    +0.041 A 
ATOM      8  C   UNL     1      12.134   7.702  20.271  0.00  0.00    +0.120 A 
ATOM      9  C   UNL     1      12.440   6.939  20.344  0.00  0.00    +0.164 A 
ATOM     10  O   UNL     1      12.946   6.806  19.706  0.00  0.00    -0.438 OA
ATOM     11  C   UNL     1      12.953   7.486  19.239  0.00  0.00    +0.207 A 
ATOM     12  N   UNL     1      12.451   8.039  19.589  0.00  0.00    -0.212 NA
ATOM     24  C   UNL     1      12.219   6.464  20.982  0.00  0.00    +0.040 A 
ATOM     25  C   UNL     1      11.692   6.753  21.546  0.00  0.00    +0.022 A 
ENDROOT
BRANCH  11  13
ATOM     13  C   UNL     1      13.385   7.593  18.545  0.00  0.00    +0.094 C 
ATOM     14  C   UNL     1      14.127   7.273  18.381  0.00  0.00    +0.028 C 
ATOM     15  C   UNL     1      14.353   7.521  17.627  0.00  0.00    +0.073 C 
ATOM     16  N   UNL     1      13.749   7.996  17.325  0.00  0.00    -0.273 NA
ATOM     17  C   UNL     1      13.151   8.040  17.892  0.00  0.00    +0.081 C 
BRANCH  16  18
ATOM     18  C   UNL     1      13.744   8.361  16.586  0.00  0.00    +0.063 C 
ATOM     19  C   UNL     1      13.057   8.727  16.311  0.00  0.00    +0.048 C 
ATOM     20  C   UNL     1      13.052   9.093  15.572  0.00  0.00    +0.144 C 
ATOM     21  O   UNL     1      13.733   9.093  15.107  0.00  0.00    -0.354 OA
ATOM     22  C   UNL     1      14.420   8.729  15.381  0.00  0.00    +0.144 C 
ATOM     23  C   UNL     1      14.426   8.362  16.120  0.00  0.00    +0.048 C 
ENDBRANCH  16  18
ENDBRANCH  11  13
BRANCH   6   3
ATOM      3  S   UNL     1      10.858   7.804  22.039  0.00  0.00    +0.009 S 
ATOM      4  O   UNL     1      11.459   8.265  22.365  0.00  0.00    -0.169 OA
ATOM      5  O   UNL     1      10.257   7.342  21.713  0.00  0.00    -0.169 OA
BRANCH   3   2
ATOM      1  C   UNL     1      10.561   8.699  23.112  0.00  0.00    +0.028 C 
ATOM      2  C   UNL     1      10.330   8.092  22.604  0.00  0.00    +0.156 C 
ENDBRANCH   3   2
ENDBRANCH   6   3
TORSDOF 4
ENDMDL
