MODEL 1
REMARK VINA RESULT:     -13.0      0.000      0.000
REMARK  Name = 
REMARK  5 active torsions:
REMARK  status: ('A' for Active; 'I' for Inactive)
REMARK    1  A    between atoms: C_2  and  C_5
REMARK    2  A    between atoms: C_9  and  C_10
REMARK    3  A    between atoms: C_10  and  N_11
REMARK    4  A    between atoms: N_14  and  C_15
REMARK    5  A    between atoms: C_15  and  C_16
REMARK                            x       y       z     vdW  Elec       q    Type
REMARK                         _______ _______ _______ _____ _____    ______ ____
ROOT
ATOM     11  N   UNL     1      -1.775   0.559  24.728  0.00  0.00    -0.271 N 
ATOM     12  C   UNL     1      -2.219   1.254  24.712  0.00  0.00    +0.120 C 
ATOM     13  C   UNL     1      -2.927   1.449  24.336  0.00  0.00    +0.095 C 
ATOM     14  N   UNL     1      -3.108   2.232  24.522  0.00  0.00    -0.265 NA
ATOM     22  C   UNL     1      -2.512   2.521  25.013  0.00  0.00    +0.104 C 
ATOM     23  C   UNL     1      -1.962   1.916  25.131  0.00  0.00    +0.151 C 
ATOM     24  O   UNL     1      -1.261   1.884  25.566  0.00  0.00    -0.344 OA
ATOM     25  C   UNL     1      -0.818   1.188  25.581  0.00  0.00    +0.227 C 
ATOM     26  C   UNL     1      -1.075   0.526  25.162  0.00  0.00    +0.256 C 
ATOM     27  O   UNL     1      -0.631  -0.169  25.178  0.00  0.00    -0.272 OA
ENDROOT
BRANCH  11  10
ATOM     10  C   UNL     1      -2.032  -0.105  24.309  0.00  0.00    +0.120 C 
BRANCH  10   9
ATOM      5  C   UNL     1      -3.627  -1.574  24.555  0.00  0.00    +0.071 A 
ATOM      6  C   UNL     1      -3.589  -1.710  25.368  0.00  0.00    +0.004 A 
ATOM      7  C   UNL     1      -3.032  -1.310  25.828  0.00  0.00    -0.000 A 
ATOM      8  C   UNL     1      -2.513  -0.775  25.475  0.00  0.00    -0.003 A 
ATOM      9  C   UNL     1      -2.551  -0.640  24.662  0.00  0.00    -0.002 A 
ATOM     28  C   UNL     1      -3.107  -1.039  24.203  0.00  0.00    +0.001 A 
BRANCH   5   2
ATOM      1  F   UNL     1      -4.740  -2.373  23.636  0.00  0.00    -0.166 F 
ATOM      2  C   UNL     1      -4.183  -1.973  24.096  0.00  0.00    +0.419 C 
ATOM      3  F   UNL     1      -3.707  -2.647  24.104  0.00  0.00    -0.166 F 
ATOM      4  F   UNL     1      -4.660  -1.300  24.087  0.00  0.00    -0.166 F 
ENDBRANCH   5   2
ENDBRANCH  10   9
ENDBRANCH  11  10
BRANCH  14  15
ATOM     15  C   UNL     1      -3.769   2.652  24.262  0.00  0.00    +0.101 C 
BRANCH  15  16
ATOM     16  C   UNL     1      -4.464   2.644  24.707  0.00  0.00    +0.013 A 
ATOM     17  C   UNL     1      -5.027   2.054  24.581  0.00  0.00    +0.000 A 
ATOM     18  C   UNL     1      -5.721   2.045  25.026  0.00  0.00    +0.020 A 
ATOM     19  C   UNL     1      -5.853   2.626  25.597  0.00  0.00    +0.099 A 
ATOM     20  N   UNL     1      -5.290   3.216  25.723  0.00  0.00    -0.243 NA
ATOM     21  C   UNL     1      -4.595   3.224  25.278  0.00  0.00    +0.096 A 
ENDBRANCH  15  16
ENDBRANCH  14  15
TORSDOF 5
ENDMDL
MODEL 2
REMARK VINA RESULT:     -12.3      2.815      4.943
REMARK  Name = 
REMARK  5 active torsions:
REMARK  status: ('A' for Active; 'I' for Inactive)
REMARK    1  A    between atoms: C_2  and  C_5
REMARK    2  A    between atoms: C_9  and  C_10
REMARK    3  A    between atoms: C_10  and  N_11
REMARK    4  A    between atoms: N_14  and  C_15
REMARK    5  A    between atoms: C_15  and  C_16
REMARK                            x       y       z     vdW  Elec       q    Type
REMARK                         _______ _______ _______ _____ _____    ______ ____
ROOT
ATOM     11  N   UNL     1      -4.455   2.758  24.847  0.00  0.00    -0.271 N 
ATOM     12  C   UNL     1      -4.221   1.973  24.745  0.00  0.00    +0.120 C 
ATOM     13  C   UNL     1      -3.540   1.637  24.422  0.00  0.00    +0.095 C 
ATOM     14  N   UNL     1      -3.614   0.817  24.468  0.00  0.00    -0.265 NA
ATOM     22  C   UNL     1      -4.341   0.646  24.820  0.00  0.00    +0.104 C 
ATOM     23  C   UNL     1      -4.716   1.361  24.991  0.00  0.00    +0.151 C 
ATOM     24  O   UNL     1      -5.445   1.533  25.339  0.00  0.00    -0.344 OA
ATOM     25  C   UNL     1      -5.677   2.318  25.440  0.00  0.00    +0.227 C 
ATOM     26  C   UNL     1      -5.182   2.931  25.194  0.00  0.00    +0.256 C 
ATOM     27  O   UNL     1      -5.416   3.715  25.296  0.00  0.00    -0.272 OA
ENDROOT
BRANCH  11  10
ATOM     10  C   UNL     1      -3.959   3.371  24.601  0.00  0.00    +0.120 C 
BRANCH  10   9
ATOM      5  C   UNL     1      -2.121   4.248  25.384  0.00  0.00    +0.071 A 
ATOM      6  C   UNL     1      -2.322   4.348  26.178  0.00  0.00    +0.004 A 
ATOM      7  C   UNL     1      -3.070   4.122  26.446  0.00  0.00    -0.000 A 
ATOM      8  C   UNL     1      -3.615   3.796  25.920  0.00  0.00    -0.003 A 
ATOM      9  C   UNL     1      -3.414   3.697  25.126  0.00  0.00    -0.002 A 
ATOM     28  C   UNL     1      -2.667   3.922  24.859  0.00  0.00    +0.001 A 
BRANCH   5   2
ATOM      1  F   UNL     1      -0.627   4.699  24.849  0.00  0.00    -0.166 F 
ATOM      2  C   UNL     1      -1.374   4.473  25.117  0.00  0.00    +0.419 C 
ATOM      3  F   UNL     1      -1.643   5.247  25.019  0.00  0.00    -0.166 F 
ATOM      4  F   UNL     1      -1.105   3.700  25.214  0.00  0.00    -0.166 F 
ENDBRANCH   5   2
ENDBRANCH  10   9
ENDBRANCH  11  10
BRANCH  14  15
ATOM     15  C   UNL     1      -3.059   0.264  24.209  0.00  0.00    +0.101 C 
BRANCH  15  16
ATOM     16  C   UNL     1      -2.449   0.026  24.711  0.00  0.00    +0.013 A 
ATOM     17  C   UNL     1      -1.718   0.408  24.682  0.00  0.00    +0.000 A 
ATOM     18  C   UNL     1      -1.109   0.170  25.183  0.00  0.00    +0.020 A 
ATOM     19  C   UNL     1      -1.228  -0.449  25.715  0.00  0.00    +0.099 A 
ATOM     20  N   UNL     1      -1.959  -0.831  25.744  0.00  0.00    -0.243 NA
ATOM     21  C   UNL     1      -2.569  -0.593  25.242  0.00  0.00    +0.096 A 
ENDBRANCH  15  16
ENDBRANCH  14  15
TORSDOF 5
ENDMDL
MODEL 3
REMARK VINA RESULT:     -12.2      1.517      3.427
REMARK  Name = 
REMARK  5 active torsions:
REMARK  status: ('A' for Active; 'I' for Inactive)
REMARK    1  A    between atoms: C_2  and  C_5
REMARK    2  A    between atoms: C_9  and  C_10
REMARK    3  A    between atoms: C_10  and  N_11
REMARK    4  A    between atoms: N_14  and  C_15
REMARK    5  A    between atoms: C_15  and  C_16
REMARK                            x       y       z     vdW  Elec       q    Type
REMARK                         _______ _______ _______ _____ _____    ______ ____
ROOT
ATOM     11  N   UNL     1      -3.784   0.837  24.989  0.00  0.00    -0.271 N 
ATOM     12  C   UNL     1      -2.994   1.066  24.920  0.00  0.00    +0.120 C 
ATOM     13  C   UNL     1      -2.291   0.702  25.154  0.00  0.00    +0.095 C 
ATOM     14  N   UNL     1      -1.665   1.194  24.939  0.00  0.00    -0.265 NA
ATOM     22  C   UNL     1      -1.981   1.862  24.571  0.00  0.00    +0.104 C 
ATOM     23  C   UNL     1      -2.802   1.783  24.560  0.00  0.00    +0.151 C 
ATOM     24  O   UNL     1      -3.400   2.271  24.268  0.00  0.00    -0.344 OA
ATOM     25  C   UNL     1      -4.190   2.042  24.337  0.00  0.00    +0.227 C 
ATOM     26  C   UNL     1      -4.381   1.325  24.697  0.00  0.00    +0.256 C 
ATOM     27  O   UNL     1      -5.170   1.096  24.765  0.00  0.00    -0.272 OA
ENDROOT
BRANCH  11  10
ATOM     10  C   UNL     1      -3.976   0.119  25.349  0.00  0.00    +0.120 C 
BRANCH  10   9
ATOM      5  C   UNL     1      -3.646  -1.945  24.723  0.00  0.00    +0.071 A 
ATOM      6  C   UNL     1      -4.055  -1.957  24.006  0.00  0.00    +0.004 A 
ATOM      7  C   UNL     1      -4.438  -1.277  23.737  0.00  0.00    -0.000 A 
ATOM      8  C   UNL     1      -4.411  -0.585  24.186  0.00  0.00    -0.003 A 
ATOM      9  C   UNL     1      -4.002  -0.573  24.902  0.00  0.00    -0.002 A 
ATOM     28  C   UNL     1      -3.620  -1.252  25.170  0.00  0.00    +0.001 A 
BRANCH   5   2
ATOM      1  F   UNL     1      -2.881  -3.305  25.259  0.00  0.00    -0.166 F 
ATOM      2  C   UNL     1      -3.264  -2.624  24.991  0.00  0.00    +0.419 C 
ATOM      3  F   UNL     1      -2.764  -2.602  24.335  0.00  0.00    -0.166 F 
ATOM      4  F   UNL     1      -3.763  -2.647  25.647  0.00  0.00    -0.166 F 
ENDBRANCH   5   2
ENDBRANCH  10   9
ENDBRANCH  11  10
BRANCH  14  15
ATOM     15  C   UNL     1      -0.864   1.044  25.068  0.00  0.00    +0.101 C 
BRANCH  15  16
ATOM     16  C   UNL     1      -0.437   0.591  24.526  0.00  0.00    +0.013 A 
ATOM     17  C   UNL     1      -0.390  -0.228  24.621  0.00  0.00    +0.000 A 
ATOM     18  C   UNL     1       0.036  -0.681  24.080  0.00  0.00    +0.020 A 
ATOM     19  C   UNL     1       0.416  -0.317  23.445  0.00  0.00    +0.099 A 
ATOM     20  N   UNL     1       0.369   0.501  23.350  0.00  0.00    -0.243 NA
ATOM     21  C   UNL     1      -0.058   0.955  23.891  0.00  0.00    +0.096 A 
ENDBRANCH  15  16
ENDBRANCH  14  15
TORSDOF 5
ENDMDL
MODEL 4
REMARK VINA RESULT:     -12.2      1.634      3.683
REMARK  Name = 
REMARK  5 active torsions:
REMARK  status: ('A' for Active; 'I' for Inactive)
REMARK    1  A    between atoms: C_2  and  C_5
REMARK    2  A    between atoms: C_9  and  C_10
REMARK    3  A    between atoms: C_10  and  N_11
REMARK    4  A    between atoms: N_14  and  C_15
REMARK    5  A    between atoms: C_15  and  C_16
REMARK                            x       y       z     vdW  Elec       q    Type
REMARK                         _______ _______ _______ _____ _____    ______ ____
ROOT
ATOM     11  N   UNL     1      -2.555   2.893  24.835  0.00  0.00    -0.271 N 
ATOM     12  C   UNL     1      -2.238   2.131  24.835  0.00  0.00    +0.120 C 
ATOM     13  C   UNL     1      -2.496   1.425  24.494  0.00  0.00    +0.095 C 
ATOM     14  N   UNL     1      -1.948   0.837  24.680  0.00  0.00    -0.265 NA
ATOM     22  C   UNL     1      -1.352   1.179  25.137  0.00  0.00    +0.104 C 
ATOM     23  C   UNL     1      -1.531   1.979  25.232  0.00  0.00    +0.151 C 
ATOM     24  O   UNL     1      -1.142   2.589  25.629  0.00  0.00    -0.344 OA
ATOM     25  C   UNL     1      -1.460   3.350  25.629  0.00  0.00    +0.227 C 
ATOM     26  C   UNL     1      -2.167   3.502  25.231  0.00  0.00    +0.256 C 
ATOM     27  O   UNL     1      -2.484   4.263  25.231  0.00  0.00    -0.272 OA
ENDROOT
BRANCH  11  10
ATOM     10  C   UNL     1      -3.263   3.045  24.437  0.00  0.00    +0.120 C 
BRANCH  10   9
ATOM      5  C   UNL     1      -5.250   2.471  25.133  0.00  0.00    +0.071 A 
ATOM      6  C   UNL     1      -5.401   3.068  25.682  0.00  0.00    +0.004 A 
ATOM      7  C   UNL     1      -4.839   3.658  25.816  0.00  0.00    -0.000 A 
ATOM      8  C   UNL     1      -4.127   3.650  25.400  0.00  0.00    -0.003 A 
ATOM      9  C   UNL     1      -3.975   3.053  24.852  0.00  0.00    -0.002 A 
ATOM     28  C   UNL     1      -4.537   2.464  24.719  0.00  0.00    +0.001 A 
BRANCH   5   2
ATOM      1  F   UNL     1      -6.373   1.292  24.867  0.00  0.00    -0.166 F 
ATOM      2  C   UNL     1      -5.811   1.882  25.000  0.00  0.00    +0.419 C 
ATOM      3  F   UNL     1      -6.055   2.269  24.314  0.00  0.00    -0.166 F 
ATOM      4  F   UNL     1      -5.568   1.494  25.687  0.00  0.00    -0.166 F 
ENDBRANCH   5   2
ENDBRANCH  10   9
ENDBRANCH  11  10
BRANCH  14  15
ATOM     15  C   UNL     1      -1.989   0.046  24.451  0.00  0.00    +0.101 C 
BRANCH  15  16
ATOM     16  C   UNL     1      -2.574  -0.445  24.766  0.00  0.00    +0.013 A 
ATOM     17  C   UNL     1      -3.205  -0.688  24.294  0.00  0.00    +0.000 A 
ATOM     18  C   UNL     1      -3.789  -1.178  24.608  0.00  0.00    +0.020 A 
ATOM     19  C   UNL     1      -3.743  -1.425  25.394  0.00  0.00    +0.099 A 
ATOM     20  N   UNL     1      -3.112  -1.181  25.866  0.00  0.00    -0.243 NA
ATOM     21  C   UNL     1      -2.528  -0.691  25.551  0.00  0.00    +0.096 A 
ENDBRANCH  15  16
ENDBRANCH  14  15
TORSDOF 5
ENDMDL
MODEL 5
REMARK VINA RESULT:     -12.1      2.746      3.884
REMARK  Name = 
REMARK  5 active torsions:
REMARK  status: ('A' for Active; 'I' for Inactive)
REMARK    1  A    between atoms: C_2  and  C_5
REMARK    2  A    between atoms: C_9  and  C_10
REMARK    3  A    between atoms: C_10  and  N_11
REMARK    4  A    between atoms: N_14  and  C_15
REMARK    5  A    between atoms: C_15  and  C_16
REMARK                            x       y       z     vdW  Elec       q    Type
REMARK                         _______ _______ _______ _____ _____    ______ ____
ROOT
ATOM     11  N   UNL     1      -1.476   1.305  24.154  0.00  0.00    -0.271 N 
ATOM     12  C   UNL     1      -2.301   1.281  24.142  0.00  0.00    +0.120 C 
ATOM     13  C   UNL     1      -2.868   1.863  23.996  0.00  0.00    +0.095 C 
ATOM     14  N   UNL     1      -3.613   1.514  24.062  0.00  0.00    -0.265 NA
ATOM     22  C   UNL     1      -3.506   0.718  24.250  0.00  0.00    +0.104 C 
ATOM     23  C   UNL     1      -2.695   0.574  24.299  0.00  0.00    +0.151 C 
ATOM     24  O   UNL     1      -2.264  -0.110  24.467  0.00  0.00    -0.344 OA
ATOM     25  C   UNL     1      -1.440  -0.086  24.478  0.00  0.00    +0.227 C 
ATOM     26  C   UNL     1      -1.046   0.622  24.321  0.00  0.00    +0.256 C 
ATOM     27  O   UNL     1      -0.222   0.646  24.332  0.00  0.00    -0.272 OA
ENDROOT
BRANCH  11  10
ATOM     10  C   UNL     1      -1.081   2.013  23.997  0.00  0.00    +0.120 C 
BRANCH  10   9
ATOM      5  C   UNL     1      -0.911   3.824  25.202  0.00  0.00    +0.071 A 
ATOM      6  C   UNL     1      -0.494   3.539  25.854  0.00  0.00    +0.004 A 
ATOM      7  C   UNL     1      -0.272   2.744  25.887  0.00  0.00    -0.000 A 
ATOM      8  C   UNL     1      -0.468   2.236  25.267  0.00  0.00    -0.003 A 
ATOM      9  C   UNL     1      -0.885   2.522  24.615  0.00  0.00    -0.002 A 
ATOM     28  C   UNL     1      -1.106   3.315  24.583  0.00  0.00    +0.001 A 
BRANCH   5   2
ATOM      1  F   UNL     1      -1.353   5.413  25.136  0.00  0.00    -0.166 F 
ATOM      2  C   UNL     1      -1.132   4.618  25.169  0.00  0.00    +0.419 C 
ATOM      3  F   UNL     1      -0.504   4.772  24.656  0.00  0.00    -0.166 F 
ATOM      4  F   UNL     1      -1.759   4.465  25.682  0.00  0.00    -0.166 F 
ENDBRANCH   5   2
ENDBRANCH  10   9
ENDBRANCH  11  10
BRANCH  14  15
ATOM     15  C   UNL     1      -4.337   1.895  23.959  0.00  0.00    +0.101 C 
BRANCH  15  16
ATOM     16  C   UNL     1      -4.724   2.227  24.608  0.00  0.00    +0.013 A 
ATOM     17  C   UNL     1      -4.579   3.012  24.816  0.00  0.00    +0.000 A 
ATOM     18  C   UNL     1      -4.966   3.345  25.464  0.00  0.00    +0.020 A 
ATOM     19  C   UNL     1      -5.497   2.893  25.905  0.00  0.00    +0.099 A 
ATOM     20  N   UNL     1      -5.642   2.108  25.696  0.00  0.00    -0.243 NA
ATOM     21  C   UNL     1      -5.255   1.776  25.047  0.00  0.00    +0.096 A 
ENDBRANCH  15  16
ENDBRANCH  14  15
TORSDOF 5
ENDMDL
MODEL 6
REMARK VINA RESULT:     -12.0      1.219      1.693
REMARK  Name = 
REMARK  5 active torsions:
REMARK  status: ('A' for Active; 'I' for Inactive)
REMARK    1  A    between atoms: C_2  and  C_5
REMARK    2  A    between atoms: C_9  and  C_10
REMARK    3  A    between atoms: C_10  and  N_11
REMARK    4  A    between atoms: N_14  and  C_15
REMARK    5  A    between atoms: C_15  and  C_16
REMARK                            x       y       z     vdW  Elec       q    Type
REMARK                         _______ _______ _______ _____ _____    ______ ____
ROOT
ATOM     11  N   UNL     1      -1.128  -0.401  24.875  0.00  0.00    -0.271 N 
ATOM     12  C   UNL     1      -1.229   0.412  24.775  0.00  0.00    +0.120 C 
ATOM     13  C   UNL     1      -1.782   0.942  25.082  0.00  0.00    +0.095 C 
ATOM     14  N   UNL     1      -1.609   1.692  24.786  0.00  0.00    -0.265 NA
ATOM     22  C   UNL     1      -0.948   1.626  24.295  0.00  0.00    +0.104 C 
ATOM     23  C   UNL     1      -0.714   0.835  24.289  0.00  0.00    +0.151 C 
ATOM     24  O   UNL     1      -0.097   0.444  23.902  0.00  0.00    -0.344 OA
ATOM     25  C   UNL     1       0.003  -0.368  24.003  0.00  0.00    +0.227 C 
ATOM     26  C   UNL     1      -0.513  -0.791  24.489  0.00  0.00    +0.256 C 
ATOM     27  O   UNL     1      -0.412  -1.603  24.589  0.00  0.00    -0.272 OA
ENDROOT
BRANCH  11  10
ATOM     10  C   UNL     1      -1.644  -0.824  25.362  0.00  0.00    +0.120 C 
BRANCH  10   9
ATOM      5  C   UNL     1      -3.547  -1.419  24.475  0.00  0.00    +0.071 A 
ATOM      6  C   UNL     1      -3.419  -2.226  24.361  0.00  0.00    +0.004 A 
ATOM      7  C   UNL     1      -2.700  -2.566  24.581  0.00  0.00    -0.000 A 
ATOM      8  C   UNL     1      -2.108  -2.098  24.914  0.00  0.00    -0.003 A 
ATOM      9  C   UNL     1      -2.236  -1.291  25.028  0.00  0.00    -0.002 A 
ATOM     28  C   UNL     1      -2.954  -0.952  24.809  0.00  0.00    +0.001 A 
BRANCH   5   2
ATOM      1  F   UNL     1      -4.985  -0.741  24.035  0.00  0.00    -0.166 F 
ATOM      2  C   UNL     1      -4.265  -1.080  24.255  0.00  0.00    +0.419 C 
ATOM      3  F   UNL     1      -4.495  -1.052  25.047  0.00  0.00    -0.166 F 
ATOM      4  F   UNL     1      -4.037  -1.108  23.463  0.00  0.00    -0.166 F 
ENDBRANCH   5   2
ENDBRANCH  10   9
ENDBRANCH  11  10
BRANCH  14  15
ATOM     15  C   UNL     1      -2.022   2.387  24.951  0.00  0.00    +0.101 C 
BRANCH  15  16
ATOM     16  C   UNL     1      -2.777   2.501  24.638  0.00  0.00    +0.013 A 
ATOM     17  C   UNL     1      -3.438   2.462  25.131  0.00  0.00    +0.000 A 
ATOM     18  C   UNL     1      -4.192   2.576  24.819  0.00  0.00    +0.020 A 
ATOM     19  C   UNL     1      -4.287   2.729  24.014  0.00  0.00    +0.099 A 
ATOM     20  N   UNL     1      -3.627   2.767  23.521  0.00  0.00    -0.243 NA
ATOM     21  C   UNL     1      -2.872   2.653  23.833  0.00  0.00    +0.096 A 
ENDBRANCH  15  16
ENDBRANCH  14  15
TORSDOF 5
ENDMDL
MODEL 7
REMARK VINA RESULT:     -12.0      2.241      4.084
REMARK  Name = 
REMARK  5 active torsions:
REMARK  status: ('A' for Active; 'I' for Inactive)
REMARK    1  A    between atoms: C_2  and  C_5
REMARK    2  A    between atoms: C_9  and  C_10
REMARK    3  A    between atoms: C_10  and  N_11
REMARK    4  A    between atoms: N_14  and  C_15
REMARK    5  A    between atoms: C_15  and  C_16
REMARK                            x       y       z     vdW  Elec       q    Type
REMARK                         _______ _______ _______ _____ _____    ______ ____
ROOT
ATOM     11  N   UNL     1      -1.785   1.592  24.631  0.00  0.00    -0.271 N 
ATOM     12  C   UNL     1      -2.062   0.876  24.933  0.00  0.00    +0.120 C 
ATOM     13  C   UNL     1      -2.824   0.566  25.010  0.00  0.00    +0.095 C 
ATOM     14  N   UNL     1      -2.761  -0.182  25.353  0.00  0.00    -0.265 NA
ATOM     22  C   UNL     1      -1.961  -0.334  25.488  0.00  0.00    +0.104 C 
ATOM     23  C   UNL     1      -1.530   0.319  25.228  0.00  0.00    +0.151 C 
ATOM     24  O   UNL     1      -0.720   0.480  25.223  0.00  0.00    -0.344 OA
ATOM     25  C   UNL     1      -0.444   1.196  24.922  0.00  0.00    +0.227 C 
ATOM     26  C   UNL     1      -0.977   1.752  24.626  0.00  0.00    +0.256 C 
ATOM     27  O   UNL     1      -0.700   2.468  24.325  0.00  0.00    -0.272 OA
ENDROOT
BRANCH  11  10
ATOM     10  C   UNL     1      -2.319   2.149  24.335  0.00  0.00    +0.120 C 
BRANCH  10   9
ATOM      5  C   UNL     1      -3.725   3.463  25.364  0.00  0.00    +0.071 A 
ATOM      6  C   UNL     1      -3.209   3.919  25.818  0.00  0.00    +0.004 A 
ATOM      7  C   UNL     1      -2.395   3.785  25.777  0.00  0.00    -0.000 A 
ATOM      8  C   UNL     1      -2.099   3.195  25.283  0.00  0.00    -0.003 A 
ATOM      9  C   UNL     1      -2.615   2.738  24.829  0.00  0.00    -0.002 A 
ATOM     28  C   UNL     1      -3.428   2.872  24.870  0.00  0.00    +0.001 A 
BRANCH   5   2
ATOM      1  F   UNL     1      -5.351   3.731  25.445  0.00  0.00    -0.166 F 
ATOM      2  C   UNL     1      -4.538   3.597  25.404  0.00  0.00    +0.419 C 
ATOM      3  F   UNL     1      -4.577   3.153  26.099  0.00  0.00    -0.166 F 
ATOM      4  F   UNL     1      -4.500   4.040  24.710  0.00  0.00    -0.166 F 
ENDBRANCH   5   2
ENDBRANCH  10   9
ENDBRANCH  11  10
BRANCH  14  15
ATOM     15  C   UNL     1      -3.388  -0.688  25.530  0.00  0.00    +0.101 C 
BRANCH  15  16
ATOM     16  C   UNL     1      -3.583  -1.300  25.012  0.00  0.00    +0.013 A 
ATOM     17  C   UNL     1      -4.083  -1.154  24.372  0.00  0.00    +0.000 A 
ATOM     18  C   UNL     1      -4.277  -1.765  23.854  0.00  0.00    +0.020 A 
ATOM     19  C   UNL     1      -3.973  -2.522  23.974  0.00  0.00    +0.099 A 
ATOM     20  N   UNL     1      -3.473  -2.668  24.614  0.00  0.00    -0.243 NA
ATOM     21  C   UNL     1      -3.278  -2.056  25.133  0.00  0.00    +0.096 A 
ENDBRANCH  15  16
ENDBRANCH  14  15
TORSDOF 5
ENDMDL
MODEL 8
REMARK VINA RESULT:     -12.0      2.207      3.857
REMARK  Name = 
REMARK  5 active torsions:
REMARK  status: ('A' for Active; 'I' for Inactive)
REMARK    1  A    between atoms: C_2  and  C_5
REMARK    2  A    between atoms: C_9  and  C_10
REMARK    3  A    between atoms: C_10  and  N_11
REMARK    4  A    between atoms: N_14  and  C_15
REMARK    5  A    between atoms: C_15  and  C_16
REMARK                            x       y       z     vdW  Elec       q    Type
REMARK                         _______ _______ _______ _____ _____    ______ ____
ROOT
ATOM     11  N   UNL     1      -3.182  -0.119  24.648  0.00  0.00    -0.271 N 
ATOM     12  C   UNL     1      -2.398   0.041  24.850  0.00  0.00    +0.120 C 
ATOM     13  C   UNL     1      -1.870   0.624  24.600  0.00  0.00    +0.095 C 
ATOM     14  N   UNL     1      -1.156   0.509  24.997  0.00  0.00    -0.265 NA
ATOM     22  C   UNL     1      -1.242  -0.145  25.493  0.00  0.00    +0.104 C 
ATOM     23  C   UNL     1      -2.010  -0.434  25.402  0.00  0.00    +0.151 C 
ATOM     24  O   UNL     1      -2.406  -1.069  25.751  0.00  0.00    -0.344 OA
ATOM     25  C   UNL     1      -3.189  -1.228  25.548  0.00  0.00    +0.227 C 
ATOM     26  C   UNL     1      -3.577  -0.752  24.996  0.00  0.00    +0.256 C 
ATOM     27  O   UNL     1      -4.360  -0.912  24.793  0.00  0.00    -0.272 OA
ENDROOT
BRANCH  11  10
ATOM     10  C   UNL     1      -3.570   0.357  24.095  0.00  0.00    +0.120 C 
BRANCH  10   9
ATOM      5  C   UNL     1      -4.282   2.401  24.375  0.00  0.00    +0.071 A 
ATOM      6  C   UNL     1      -4.939   2.272  24.857  0.00  0.00    +0.004 A 
ATOM      7  C   UNL     1      -5.140   1.504  25.085  0.00  0.00    -0.000 A 
ATOM      8  C   UNL     1      -4.683   0.866  24.831  0.00  0.00    -0.003 A 
ATOM      9  C   UNL     1      -4.026   0.995  24.349  0.00  0.00    -0.002 A 
ATOM     28  C   UNL     1      -3.826   1.762  24.121  0.00  0.00    +0.001 A 
BRANCH   5   2
ATOM      1  F   UNL     1      -3.881   3.935  23.920  0.00  0.00    -0.166 F 
ATOM      2  C   UNL     1      -4.082   3.167  24.148  0.00  0.00    +0.419 C 
ATOM      3  F   UNL     1      -3.831   3.331  24.917  0.00  0.00    -0.166 F 
ATOM      4  F   UNL     1      -4.332   3.005  23.379  0.00  0.00    -0.166 F 
ENDBRANCH   5   2
ENDBRANCH  10   9
ENDBRANCH  11  10
BRANCH  14  15
ATOM     15  C   UNL     1      -0.475   0.968  24.913  0.00  0.00    +0.101 C 
BRANCH  15  16
ATOM     16  C   UNL     1      -0.483   1.762  25.135  0.00  0.00    +0.013 A 
ATOM     17  C   UNL     1      -0.463   2.351  24.557  0.00  0.00    +0.000 A 
ATOM     18  C   UNL     1      -0.471   3.146  24.778  0.00  0.00    +0.020 A 
ATOM     19  C   UNL     1      -0.500   3.352  25.577  0.00  0.00    +0.099 A 
ATOM     20  N   UNL     1      -0.521   2.763  26.154  0.00  0.00    -0.243 NA
ATOM     21  C   UNL     1      -0.512   1.968  25.932  0.00  0.00    +0.096 A 
ENDBRANCH  15  16
ENDBRANCH  14  15
TORSDOF 5
ENDMDL
MODEL 9
REMARK VINA RESULT:     -11.9      1.849      3.364
REMARK  Name = 
REMARK  5 active torsions:
REMARK  status: ('A' for Active; 'I' for Inactive)
REMARK    1  A    between atoms: C_2  and  C_5
REMARK    2  A    between atoms: C_9  and  C_10
REMARK    3  A    between atoms: C_10  and  N_11
REMARK    4  A    between atoms: N_14  and  C_15
REMARK    5  A    between atoms: C_15  and  C_16
REMARK                            x       y       z     vdW  Elec       q    Type
REMARK                         _______ _______ _______ _____ _____    ______ ____
ROOT
ATOM     11  N   UNL     1      -4.318   2.252  24.766  0.00  0.00    -0.271 N 
ATOM     12  C   UNL     1      -3.714   2.788  24.935  0.00  0.00    +0.120 C 
ATOM     13  C   UNL     1      -2.924   2.825  24.697  0.00  0.00    +0.095 C 
ATOM     14  N   UNL     1      -2.584   3.492  25.043  0.00  0.00    -0.265 NA
ATOM     22  C   UNL     1      -3.163   3.868  25.495  0.00  0.00    +0.104 C 
ATOM     23  C   UNL     1      -3.862   3.433  25.428  0.00  0.00    +0.151 C 
ATOM     24  O   UNL     1      -4.613   3.540  25.753  0.00  0.00    -0.344 OA
ATOM     25  C   UNL     1      -5.216   3.003  25.584  0.00  0.00    +0.227 C 
ATOM     26  C   UNL     1      -5.068   2.359  25.090  0.00  0.00    +0.256 C 
ATOM     27  O   UNL     1      -5.671   1.822  24.922  0.00  0.00    -0.272 OA
ENDROOT
BRANCH  11  10
ATOM     10  C   UNL     1      -4.170   1.606  24.272  0.00  0.00    +0.120 C 
BRANCH  10   9
ATOM      5  C   UNL     1      -3.047  -0.196  24.773  0.00  0.00    +0.071 A 
ATOM      6  C   UNL     1      -3.592  -0.592  25.249  0.00  0.00    +0.004 A 
ATOM      7  C   UNL     1      -4.330  -0.255  25.400  0.00  0.00    -0.000 A 
ATOM      8  C   UNL     1      -4.522   0.478  25.074  0.00  0.00    -0.003 A 
ATOM      9  C   UNL     1      -3.977   0.874  24.597  0.00  0.00    -0.002 A 
ATOM     28  C   UNL     1      -3.240   0.537  24.447  0.00  0.00    +0.001 A 
BRANCH   5   2
ATOM      1  F   UNL     1      -1.571  -0.871  24.472  0.00  0.00    -0.166 F 
ATOM      2  C   UNL     1      -2.309  -0.533  24.622  0.00  0.00    +0.419 C 
ATOM      3  F   UNL     1      -2.037  -0.264  25.353  0.00  0.00    -0.166 F 
ATOM      4  F   UNL     1      -2.581  -0.804  23.892  0.00  0.00    -0.166 F 
ENDBRANCH   5   2
ENDBRANCH  10   9
ENDBRANCH  11  10
BRANCH  14  15
ATOM     15  C   UNL     1      -1.803   3.740  24.953  0.00  0.00    +0.101 C 
BRANCH  15  16
ATOM     16  C   UNL     1      -1.184   3.241  25.175  0.00  0.00    +0.013 A 
ATOM     17  C   UNL     1      -1.037   3.097  25.974  0.00  0.00    +0.000 A 
ATOM     18  C   UNL     1      -0.419   2.599  26.197  0.00  0.00    +0.020 A 
ATOM     19  C   UNL     1       0.053   2.243  25.621  0.00  0.00    +0.099 A 
ATOM     20  N   UNL     1      -0.094   2.387  24.822  0.00  0.00    -0.243 NA
ATOM     21  C   UNL     1      -0.713   2.886  24.599  0.00  0.00    +0.096 A 
ENDBRANCH  15  16
ENDBRANCH  14  15
TORSDOF 5
ENDMDL
