MODEL 1
REMARK VINA RESULT:     -12.8      0.000      0.000
REMARK  Name = 
REMARK  8 active torsions:
REMARK  status: ('A' for Active; 'I' for Inactive)
REMARK    1  A    between atoms: N_2  and  C_3
REMARK    2  A    between atoms: C_3  and  C_4
REMARK    3  A    between atoms: C_10  and  C_12
REMARK    4  A    between atoms: C_12  and  C_13
REMARK    5  A    between atoms: C_18  and  C_19
REMARK    6  A    between atoms: C_19  and  C_20
REMARK    7  A    between atoms: C_23  and  C_24
REMARK    8  A    between atoms: C_24  and  C_25
REMARK                            x       y       z     vdW  Elec       q    Type
REMARK                         _______ _______ _______ _____ _____    ______ ____
ROOT
ATOM     13  C   UNL     1      -4.919   2.488  25.172  0.00  0.00    +0.012 C 
ATOM     14  C   UNL     1      -5.485   2.890  25.617  0.00  0.00    +0.019 C 
ATOM     15  C   UNL     1      -6.125   2.478  25.939  0.00  0.00    +0.089 C 
ATOM     16  N   UNL     1      -6.197   1.665  25.815  0.00  0.00    -0.218 NA
ATOM     17  C   UNL     1      -5.630   1.265  25.369  0.00  0.00    +0.089 C 
ATOM     18  C   UNL     1      -4.991   1.676  25.047  0.00  0.00    +0.024 C 
ENDROOT
BRANCH  13  12
ATOM     12  C   UNL     1      -4.280   2.900  24.850  0.00  0.00    +0.085 C 
BRANCH  12  10
ATOM      1  C   UNL     1      -3.021   3.746  24.200  0.00  0.00    +0.115 C 
ATOM      2  N   UNL     1      -3.194   3.815  25.004  0.00  0.00    -0.274 N 
ATOM     10  C   UNL     1      -3.823   3.392  25.329  0.00  0.00    +0.226 C 
ATOM     11  O   UNL     1      -3.996   3.461  26.133  0.00  0.00    -0.275 OA
BRANCH   2   3
ATOM      3  C   UNL     1      -2.737   4.307  25.483  0.00  0.00    +0.120 C 
BRANCH   3   4
ATOM      4  C   UNL     1      -1.944   4.443  25.298  0.00  0.00    -0.002 A 
ATOM      5  C   UNL     1      -1.702   5.192  25.049  0.00  0.00    -0.003 A 
ATOM      6  C   UNL     1      -0.909   5.328  24.864  0.00  0.00    -0.000 A 
ATOM      7  C   UNL     1      -0.359   4.716  24.929  0.00  0.00    -0.000 A 
ATOM      8  C   UNL     1      -0.603   3.968  25.178  0.00  0.00    -0.000 A 
ATOM      9  C   UNL     1      -1.395   3.831  25.362  0.00  0.00    -0.003 A 
ENDBRANCH   3   4
ENDBRANCH   2   3
ENDBRANCH  12  10
ENDBRANCH  13  12
BRANCH  18  19
ATOM     19  C   UNL     1      -4.424   1.275  24.601  0.00  0.00    +0.051 C 
BRANCH  19  20
ATOM     20  C   UNL     1      -4.348   0.457  24.672  0.00  0.00    +0.100 A 
ATOM     21  N   UNL     1      -4.760  -0.108  24.233  0.00  0.00    -0.082 NA
ATOM     22  O   UNL     1      -4.513  -0.855  24.483  0.00  0.00    -0.358 OA
ATOM     23  C   UNL     1      -3.948  -0.752  25.075  0.00  0.00    +0.154 A 
ATOM     31  C   UNL     1      -3.846   0.059  25.192  0.00  0.00    +0.054 A 
BRANCH  23  24
ATOM     24  C   UNL     1      -3.554  -1.352  25.480  0.00  0.00    +0.067 C 
BRANCH  24  25
ATOM     25  C   UNL     1      -2.933  -1.757  25.118  0.00  0.00    +0.008 C 
ATOM     26  C   UNL     1      -3.082  -2.458  24.708  0.00  0.00    +0.000 C 
ATOM     27  C   UNL     1      -2.461  -2.862  24.345  0.00  0.00    +0.000 C 
ATOM     28  C   UNL     1      -1.693  -2.567  24.391  0.00  0.00    +0.000 C 
ATOM     29  C   UNL     1      -1.545  -1.866  24.801  0.00  0.00    +0.000 C 
ATOM     30  C   UNL     1      -2.165  -1.460  25.164  0.00  0.00    +0.000 C 
ENDBRANCH  24  25
ENDBRANCH  23  24
ENDBRANCH  19  20
ENDBRANCH  18  19
TORSDOF 8
ENDMDL
MODEL 2
REMARK VINA RESULT:     -12.7      0.703      5.165
REMARK  Name = 
REMARK  8 active torsions:
REMARK  status: ('A' for Active; 'I' for Inactive)
REMARK    1  A    between atoms: N_2  and  C_3
REMARK    2  A    between atoms: C_3  and  C_4
REMARK    3  A    between atoms: C_10  and  C_12
REMARK    4  A    between atoms: C_12  and  C_13
REMARK    5  A    between atoms: C_18  and  C_19
REMARK    6  A    between atoms: C_19  and  C_20
REMARK    7  A    between atoms: C_23  and  C_24
REMARK    8  A    between atoms: C_24  and  C_25
REMARK                            x       y       z     vdW  Elec       q    Type
REMARK                         _______ _______ _______ _____ _____    ______ ____
ROOT
ATOM     13  C   UNL     1      -5.047   1.307  24.948  0.00  0.00    +0.012 C 
ATOM     14  C   UNL     1      -5.715   1.062  25.366  0.00  0.00    +0.019 C 
ATOM     15  C   UNL     1      -6.241   1.623  25.666  0.00  0.00    +0.089 C 
ATOM     16  N   UNL     1      -6.099   2.427  25.548  0.00  0.00    -0.218 NA
ATOM     17  C   UNL     1      -5.431   2.670  25.129  0.00  0.00    +0.089 C 
ATOM     18  C   UNL     1      -4.905   2.111  24.829  0.00  0.00    +0.024 C 
ENDROOT
BRANCH  13  12
ATOM     12  C   UNL     1      -4.521   0.746  24.648  0.00  0.00    +0.085 C 
BRANCH  12  10
ATOM      1  C   UNL     1      -3.892  -0.573  23.881  0.00  0.00    +0.115 C 
ATOM      2  N   UNL     1      -4.052  -0.603  24.690  0.00  0.00    -0.274 N 
ATOM     10  C   UNL     1      -4.366   0.056  25.073  0.00  0.00    +0.226 C 
ATOM     11  O   UNL     1      -4.525   0.027  25.883  0.00  0.00    -0.275 OA
BRANCH   2   3
ATOM      3  C   UNL     1      -3.897  -1.292  25.116  0.00  0.00    +0.120 C 
BRANCH   3   4
ATOM      4  C   UNL     1      -3.302  -1.808  24.865  0.00  0.00    -0.002 A 
ATOM      5  C   UNL     1      -2.510  -1.617  24.995  0.00  0.00    -0.003 A 
ATOM      6  C   UNL     1      -1.916  -2.133  24.744  0.00  0.00    -0.000 A 
ATOM      7  C   UNL     1      -2.114  -2.837  24.364  0.00  0.00    -0.000 A 
ATOM      8  C   UNL     1      -2.907  -3.027  24.234  0.00  0.00    -0.000 A 
ATOM      9  C   UNL     1      -3.501  -2.512  24.484  0.00  0.00    -0.003 A 
ENDBRANCH   3   4
ENDBRANCH   2   3
ENDBRANCH  12  10
ENDBRANCH  13  12
BRANCH  18  19
ATOM     19  C   UNL     1      -4.237   2.354  24.410  0.00  0.00    +0.051 C 
BRANCH  19  20
ATOM     20  C   UNL     1      -3.857   3.057  24.613  0.00  0.00    +0.100 A 
ATOM     21  N   UNL     1      -4.023   3.804  24.304  0.00  0.00    -0.082 NA
ATOM     22  O   UNL     1      -3.513   4.347  24.660  0.00  0.00    -0.358 OA
ATOM     23  C   UNL     1      -3.033   3.935  25.190  0.00  0.00    +0.154 A 
ATOM     31  C   UNL     1      -3.246   3.138  25.161  0.00  0.00    +0.054 A 
BRANCH  23  24
ATOM     24  C   UNL     1      -2.444   4.262  25.666  0.00  0.00    +0.067 C 
BRANCH  24  25
ATOM     25  C   UNL     1      -1.705   4.439  25.344  0.00  0.00    +0.008 C 
ATOM     26  C   UNL     1      -1.540   5.206  25.088  0.00  0.00    +0.000 C 
ATOM     27  C   UNL     1      -0.801   5.383  24.767  0.00  0.00    +0.000 C 
ATOM     28  C   UNL     1      -0.227   4.795  24.701  0.00  0.00    +0.000 C 
ATOM     29  C   UNL     1      -0.392   4.027  24.957  0.00  0.00    +0.000 C 
ATOM     30  C   UNL     1      -1.131   3.850  25.279  0.00  0.00    +0.000 C 
ENDBRANCH  24  25
ENDBRANCH  23  24
ENDBRANCH  19  20
ENDBRANCH  18  19
TORSDOF 8
ENDMDL
MODEL 3
REMARK VINA RESULT:     -12.2      2.445      3.631
REMARK  Name = 
REMARK  8 active torsions:
REMARK  status: ('A' for Active; 'I' for Inactive)
REMARK    1  A    between atoms: N_2  and  C_3
REMARK    2  A    between atoms: C_3  and  C_4
REMARK    3  A    between atoms: C_10  and  C_12
REMARK    4  A    between atoms: C_12  and  C_13
REMARK    5  A    between atoms: C_18  and  C_19
REMARK    6  A    between atoms: C_19  and  C_20
REMARK    7  A    between atoms: C_23  and  C_24
REMARK    8  A    between atoms: C_24  and  C_25
REMARK                            x       y       z     vdW  Elec       q    Type
REMARK                         _______ _______ _______ _____ _____    ______ ____
ROOT
ATOM     13  C   UNL     1      -0.044   0.804  24.385  0.00  0.00    +0.012 C 
ATOM     14  C   UNL     1       0.381   0.818  23.679  0.00  0.00    +0.019 C 
ATOM     15  C   UNL     1       0.508   0.117  23.260  0.00  0.00    +0.089 C 
ATOM     16  N   UNL     1       0.209  -0.596  23.549  0.00  0.00    -0.218 NA
ATOM     17  C   UNL     1      -0.216  -0.608  24.256  0.00  0.00    +0.089 C 
ATOM     18  C   UNL     1      -0.343   0.090  24.674  0.00  0.00    +0.024 C 
ENDROOT
BRANCH  13  12
ATOM     12  C   UNL     1      -0.171   1.504  24.804  0.00  0.00    +0.085 C 
BRANCH  12  10
ATOM      1  C   UNL     1      -0.245   2.941  25.611  0.00  0.00    +0.115 C 
ATOM      2  N   UNL     1      -0.421   2.910  24.805  0.00  0.00    -0.274 N 
ATOM     10  C   UNL     1      -0.384   2.192  24.402  0.00  0.00    +0.226 C 
ATOM     11  O   UNL     1      -0.561   2.161  23.597  0.00  0.00    -0.275 OA
BRANCH   2   3
ATOM      3  C   UNL     1      -0.634   3.598  24.403  0.00  0.00    +0.120 C 
BRANCH   3   4
ATOM      4  C   UNL     1      -1.137   4.147  24.761  0.00  0.00    -0.002 A 
ATOM      5  C   UNL     1      -0.914   4.939  24.811  0.00  0.00    -0.003 A 
ATOM      6  C   UNL     1      -1.417   5.487  25.169  0.00  0.00    -0.000 A 
ATOM      7  C   UNL     1      -2.142   5.243  25.477  0.00  0.00    -0.000 A 
ATOM      8  C   UNL     1      -2.364   4.450  25.426  0.00  0.00    -0.000 A 
ATOM      9  C   UNL     1      -1.863   3.902  25.069  0.00  0.00    -0.003 A 
ENDBRANCH   3   4
ENDBRANCH   2   3
ENDBRANCH  12  10
ENDBRANCH  13  12
BRANCH  18  19
ATOM     19  C   UNL     1      -0.768   0.078  25.381  0.00  0.00    +0.051 C 
BRANCH  19  20
ATOM     20  C   UNL     1      -1.308  -0.529  25.526  0.00  0.00    +0.100 A 
ATOM     21  N   UNL     1      -1.121  -1.299  25.758  0.00  0.00    -0.082 NA
ATOM     22  O   UNL     1      -1.827  -1.718  25.840  0.00  0.00    -0.358 OA
ATOM     23  C   UNL     1      -2.449  -1.208  25.660  0.00  0.00    +0.154 A 
ATOM     31  C   UNL     1      -2.128  -0.473  25.466  0.00  0.00    +0.054 A 
BRANCH  23  24
ATOM     24  C   UNL     1      -3.252  -1.398  25.671  0.00  0.00    +0.067 C 
BRANCH  24  25
ATOM     25  C   UNL     1      -3.605  -1.740  25.008  0.00  0.00    +0.008 C 
ATOM     26  C   UNL     1      -4.022  -1.269  24.475  0.00  0.00    +0.000 C 
ATOM     27  C   UNL     1      -4.375  -1.610  23.812  0.00  0.00    +0.000 C 
ATOM     28  C   UNL     1      -4.311  -2.422  23.682  0.00  0.00    +0.000 C 
ATOM     29  C   UNL     1      -3.893  -2.893  24.216  0.00  0.00    +0.000 C 
ATOM     30  C   UNL     1      -3.540  -2.552  24.879  0.00  0.00    +0.000 C 
ENDBRANCH  24  25
ENDBRANCH  23  24
ENDBRANCH  19  20
ENDBRANCH  18  19
TORSDOF 8
ENDMDL
MODEL 4
REMARK VINA RESULT:     -12.1      1.654      5.270
REMARK  Name = 
REMARK  8 active torsions:
REMARK  status: ('A' for Active; 'I' for Inactive)
REMARK    1  A    between atoms: N_2  and  C_3
REMARK    2  A    between atoms: C_3  and  C_4
REMARK    3  A    between atoms: C_10  and  C_12
REMARK    4  A    between atoms: C_12  and  C_13
REMARK    5  A    between atoms: C_18  and  C_19
REMARK    6  A    between atoms: C_19  and  C_20
REMARK    7  A    between atoms: C_23  and  C_24
REMARK    8  A    between atoms: C_24  and  C_25
REMARK                            x       y       z     vdW  Elec       q    Type
REMARK                         _______ _______ _______ _____ _____    ______ ____
ROOT
ATOM     13  C   UNL     1      -0.739   1.761  25.177  0.00  0.00    +0.012 C 
ATOM     14  C   UNL     1      -0.227   1.725  25.822  0.00  0.00    +0.019 C 
ATOM     15  C   UNL     1       0.012   2.419  26.199  0.00  0.00    +0.089 C 
ATOM     16  N   UNL     1      -0.261   3.150  25.929  0.00  0.00    -0.218 NA
ATOM     17  C   UNL     1      -0.773   3.185  25.283  0.00  0.00    +0.089 C 
ATOM     18  C   UNL     1      -1.012   2.492  24.907  0.00  0.00    +0.024 C 
ENDROOT
BRANCH  13  12
ATOM     12  C   UNL     1      -0.978   1.066  24.800  0.00  0.00    +0.085 C 
BRANCH  12  10
ATOM      1  C   UNL     1      -1.422  -0.332  24.045  0.00  0.00    +0.115 C 
ATOM      2  N   UNL     1      -1.362  -0.308  24.868  0.00  0.00    -0.274 N 
ATOM     10  C   UNL     1      -1.141   0.391  25.245  0.00  0.00    +0.226 C 
ATOM     11  O   UNL     1      -1.081   0.415  26.068  0.00  0.00    -0.275 OA
BRANCH   2   3
ATOM      3  C   UNL     1      -1.525  -0.983  25.313  0.00  0.00    +0.120 C 
BRANCH   3   4
ATOM      4  C   UNL     1      -2.188  -1.442  25.139  0.00  0.00    -0.002 A 
ATOM      5  C   UNL     1      -2.930  -1.218  25.421  0.00  0.00    -0.003 A 
ATOM      6  C   UNL     1      -3.594  -1.678  25.247  0.00  0.00    -0.000 A 
ATOM      7  C   UNL     1      -3.515  -2.360  24.791  0.00  0.00    -0.000 A 
ATOM      8  C   UNL     1      -2.772  -2.584  24.509  0.00  0.00    -0.000 A 
ATOM      9  C   UNL     1      -2.109  -2.125  24.682  0.00  0.00    -0.003 A 
ENDBRANCH   3   4
ENDBRANCH   2   3
ENDBRANCH  12  10
ENDBRANCH  13  12
BRANCH  18  19
ATOM     19  C   UNL     1      -1.525   2.527  24.261  0.00  0.00    +0.051 C 
BRANCH  19  20
ATOM     20  C   UNL     1      -2.240   2.932  24.325  0.00  0.00    +0.100 A 
ATOM     21  N   UNL     1      -2.337   3.705  24.599  0.00  0.00    -0.082 NA
ATOM     22  O   UNL     1      -3.142   3.887  24.570  0.00  0.00    -0.358 OA
ATOM     23  C   UNL     1      -3.542   3.227  24.278  0.00  0.00    +0.154 A 
ATOM     31  C   UNL     1      -2.984   2.637  24.127  0.00  0.00    +0.054 A 
BRANCH  23  24
ATOM     24  C   UNL     1      -4.355   3.166  24.157  0.00  0.00    +0.067 C 
BRANCH  24  25
ATOM     25  C   UNL     1      -4.825   2.768  24.706  0.00  0.00    +0.008 C 
ATOM     26  C   UNL     1      -4.990   1.966  24.603  0.00  0.00    +0.000 C 
ATOM     27  C   UNL     1      -5.460   1.568  25.152  0.00  0.00    +0.000 C 
ATOM     28  C   UNL     1      -5.765   1.970  25.803  0.00  0.00    +0.000 C 
ATOM     29  C   UNL     1      -5.600   2.772  25.907  0.00  0.00    +0.000 C 
ATOM     30  C   UNL     1      -5.130   3.171  25.358  0.00  0.00    +0.000 C 
ENDBRANCH  24  25
ENDBRANCH  23  24
ENDBRANCH  19  20
ENDBRANCH  18  19
TORSDOF 8
ENDMDL
MODEL 5
REMARK VINA RESULT:     -11.8      1.707      3.576
REMARK  Name = 
REMARK  8 active torsions:
REMARK  status: ('A' for Active; 'I' for Inactive)
REMARK    1  A    between atoms: N_2  and  C_3
REMARK    2  A    between atoms: C_3  and  C_4
REMARK    3  A    between atoms: C_10  and  C_12
REMARK    4  A    between atoms: C_12  and  C_13
REMARK    5  A    between atoms: C_18  and  C_19
REMARK    6  A    between atoms: C_19  and  C_20
REMARK    7  A    between atoms: C_23  and  C_24
REMARK    8  A    between atoms: C_24  and  C_25
REMARK                            x       y       z     vdW  Elec       q    Type
REMARK                         _______ _______ _______ _____ _____    ______ ____
ROOT
ATOM     13  C   UNL     1      -1.150   2.646  24.996  0.00  0.00    +0.012 C 
ATOM     14  C   UNL     1      -0.864   3.213  25.522  0.00  0.00    +0.019 C 
ATOM     15  C   UNL     1      -0.175   3.065  25.953  0.00  0.00    +0.089 C 
ATOM     16  N   UNL     1       0.226   2.351  25.857  0.00  0.00    -0.218 NA
ATOM     17  C   UNL     1      -0.061   1.784  25.331  0.00  0.00    +0.089 C 
ATOM     18  C   UNL     1      -0.748   1.931  24.900  0.00  0.00    +0.024 C 
ENDROOT
BRANCH  13  12
ATOM     12  C   UNL     1      -1.839   2.793  24.565  0.00  0.00    +0.085 C 
BRANCH  12  10
ATOM      1  C   UNL     1      -3.294   2.834  23.788  0.00  0.00    +0.115 C 
ATOM      2  N   UNL     1      -3.223   3.143  24.550  0.00  0.00    -0.274 N 
ATOM     10  C   UNL     1      -2.497   3.122  24.939  0.00  0.00    +0.226 C 
ATOM     11  O   UNL     1      -2.426   3.431  25.701  0.00  0.00    -0.275 OA
BRANCH   2   3
ATOM      3  C   UNL     1      -3.881   3.472  24.924  0.00  0.00    +0.120 C 
BRANCH   3   4
ATOM      4  C   UNL     1      -4.548   3.007  25.072  0.00  0.00    -0.002 A 
ATOM      5  C   UNL     1      -4.982   3.119  25.764  0.00  0.00    -0.003 A 
ATOM      6  C   UNL     1      -5.649   2.655  25.912  0.00  0.00    -0.000 A 
ATOM      7  C   UNL     1      -5.879   2.079  25.368  0.00  0.00    -0.000 A 
ATOM      8  C   UNL     1      -5.444   1.967  24.676  0.00  0.00    -0.000 A 
ATOM      9  C   UNL     1      -4.778   2.431  24.528  0.00  0.00    -0.003 A 
ENDBRANCH   3   4
ENDBRANCH   2   3
ENDBRANCH  12  10
ENDBRANCH  13  12
BRANCH  18  19
ATOM     19  C   UNL     1      -1.036   1.365  24.374  0.00  0.00    +0.051 C 
BRANCH  19  20
ATOM     20  C   UNL     1      -1.056   0.570  24.595  0.00  0.00    +0.100 A 
ATOM     21  N   UNL     1      -0.470   0.009  24.443  0.00  0.00    -0.082 NA
ATOM     22  O   UNL     1      -0.718  -0.711  24.760  0.00  0.00    -0.358 OA
ATOM     23  C   UNL     1      -1.457  -0.595  25.109  0.00  0.00    +0.154 A 
ATOM     31  C   UNL     1      -1.666   0.197  25.006  0.00  0.00    +0.054 A 
BRANCH  23  24
ATOM     24  C   UNL     1      -1.908  -1.170  25.492  0.00  0.00    +0.067 C 
BRANCH  24  25
ATOM     25  C   UNL     1      -2.556  -1.509  25.110  0.00  0.00    +0.008 C 
ATOM     26  C   UNL     1      -3.296  -1.147  25.154  0.00  0.00    +0.000 C 
ATOM     27  C   UNL     1      -3.944  -1.486  24.771  0.00  0.00    +0.000 C 
ATOM     28  C   UNL     1      -3.852  -2.186  24.346  0.00  0.00    +0.000 C 
ATOM     29  C   UNL     1      -3.112  -2.548  24.302  0.00  0.00    +0.000 C 
ATOM     30  C   UNL     1      -2.463  -2.209  24.684  0.00  0.00    +0.000 C 
ENDBRANCH  24  25
ENDBRANCH  23  24
ENDBRANCH  19  20
ENDBRANCH  18  19
TORSDOF 8
ENDMDL
MODEL 6
REMARK VINA RESULT:     -11.4      1.565      3.806
REMARK  Name = 
REMARK  8 active torsions:
REMARK  status: ('A' for Active; 'I' for Inactive)
REMARK    1  A    between atoms: N_2  and  C_3
REMARK    2  A    between atoms: C_3  and  C_4
REMARK    3  A    between atoms: C_10  and  C_12
REMARK    4  A    between atoms: C_12  and  C_13
REMARK    5  A    between atoms: C_18  and  C_19
REMARK    6  A    between atoms: C_19  and  C_20
REMARK    7  A    between atoms: C_23  and  C_24
REMARK    8  A    between atoms: C_24  and  C_25
REMARK                            x       y       z     vdW  Elec       q    Type
REMARK                         _______ _______ _______ _____ _____    ______ ____
ROOT
ATOM     13  C   UNL     1      -1.338   0.131  24.841  0.00  0.00    +0.012 C 
ATOM     14  C   UNL     1      -0.746  -0.211  25.303  0.00  0.00    +0.019 C 
ATOM     15  C   UNL     1      -0.844  -0.976  25.598  0.00  0.00    +0.089 C 
ATOM     16  N   UNL     1      -1.533  -1.398  25.431  0.00  0.00    -0.218 NA
ATOM     17  C   UNL     1      -2.124  -1.055  24.969  0.00  0.00    +0.089 C 
ATOM     18  C   UNL     1      -2.027  -0.291  24.674  0.00  0.00    +0.024 C 
ENDROOT
BRANCH  13  12
ATOM     12  C   UNL     1      -1.241   0.896  24.546  0.00  0.00    +0.085 C 
BRANCH  12  10
ATOM      1  C   UNL     1      -1.071   2.430  23.964  0.00  0.00    +0.115 C 
ATOM      2  N   UNL     1      -0.849   2.255  24.739  0.00  0.00    -0.274 N 
ATOM     10  C   UNL     1      -0.934   1.489  25.030  0.00  0.00    +0.226 C 
ATOM     11  O   UNL     1      -0.712   1.314  25.806  0.00  0.00    -0.275 OA
BRANCH   2   3
ATOM      3  C   UNL     1      -0.542   2.849  25.223  0.00  0.00    +0.120 C 
BRANCH   3   4
ATOM      4  C   UNL     1      -0.878   3.603  25.216  0.00  0.00    -0.002 A 
ATOM      5  C   UNL     1      -1.584   3.743  25.620  0.00  0.00    -0.003 A 
ATOM      6  C   UNL     1      -1.920   4.497  25.613  0.00  0.00    -0.000 A 
ATOM      7  C   UNL     1      -1.550   5.110  25.202  0.00  0.00    -0.000 A 
ATOM      8  C   UNL     1      -0.845   4.968  24.798  0.00  0.00    -0.000 A 
ATOM      9  C   UNL     1      -0.509   4.215  24.805  0.00  0.00    -0.003 A 
ENDBRANCH   3   4
ENDBRANCH   2   3
ENDBRANCH  12  10
ENDBRANCH  13  12
BRANCH  18  19
ATOM     19  C   UNL     1      -2.619   0.051  24.212  0.00  0.00    +0.051 C 
BRANCH  19  20
ATOM     20  C   UNL     1      -3.377   0.150  24.521  0.00  0.00    +0.100 A 
ATOM     21  N   UNL     1      -3.716  -0.295  25.128  0.00  0.00    -0.082 NA
ATOM     22  O   UNL     1      -4.479  -0.009  25.259  0.00  0.00    -0.358 OA
ATOM     23  C   UNL     1      -4.612   0.612  24.733  0.00  0.00    +0.154 A 
ATOM     31  C   UNL     1      -3.931   0.711  24.277  0.00  0.00    +0.054 A 
BRANCH  23  24
ATOM     24  C   UNL     1      -5.303   1.057  24.673  0.00  0.00    +0.067 C 
BRANCH  24  25
ATOM     25  C   UNL     1      -5.342   1.808  25.014  0.00  0.00    +0.008 C 
ATOM     26  C   UNL     1      -5.675   1.904  25.763  0.00  0.00    +0.000 C 
ATOM     27  C   UNL     1      -5.713   2.655  26.103  0.00  0.00    +0.000 C 
ATOM     28  C   UNL     1      -5.420   3.309  25.696  0.00  0.00    +0.000 C 
ATOM     29  C   UNL     1      -5.087   3.212  24.947  0.00  0.00    +0.000 C 
ATOM     30  C   UNL     1      -5.048   2.462  24.605  0.00  0.00    +0.000 C 
ENDBRANCH  24  25
ENDBRANCH  23  24
ENDBRANCH  19  20
ENDBRANCH  18  19
TORSDOF 8
ENDMDL
