MODEL 1
REMARK VINA RESULT:     -11.1      0.000      0.000
REMARK  Name = 
REMARK  3 active torsions:
REMARK  status: ('A' for Active; 'I' for Inactive)
REMARK    1  A    between atoms: C_7  and  C_8
REMARK    2  A    between atoms: C_15  and  O_17
REMARK    3  A    between atoms: O_17  and  C_18
REMARK                            x       y       z     vdW  Elec       q    Type
REMARK                         _______ _______ _______ _____ _____    ______ ____
ROOT
ATOM      8  C   UNL     1      -3.210   0.291  24.227  0.00  0.00    +0.267 C 
ATOM      9  O   UNL     1      -2.517   0.544  23.858  0.00  0.00    -0.268 OA
ATOM     10  N   UNL     1      -3.767   0.843  24.483  0.00  0.00    -0.268 N 
ATOM     11  C   UNL     1      -4.439   0.531  24.845  0.00  0.00    +0.126 C 
ATOM     12  C   UNL     1      -5.089   0.934  25.156  0.00  0.00    +0.164 C 
ATOM     13  O   UNL     1      -5.226   1.747  25.183  0.00  0.00    -0.348 OA
ATOM     14  C   UNL     1      -4.747   2.359  24.904  0.00  0.00    +0.187 C 
ATOM     15  C   UNL     1      -4.013   2.308  24.531  0.00  0.00    +0.217 C 
ATOM     16  C   UNL     1      -3.577   1.633  24.343  0.00  0.00    +0.140 C 
ENDROOT
BRANCH   8   7
ATOM      1  C   UNL     1      -2.370  -0.765  25.411  0.00  0.00    +0.154 C 
ATOM      2  N   UNL     1      -2.960  -1.000  24.884  0.00  0.00    -0.245 N 
ATOM      3  N   UNL     1      -3.267  -1.763  24.810  0.00  0.00    -0.173 NA
ATOM      4  C   UNL     1      -3.843  -1.748  24.219  0.00  0.00    +0.081 A 
ATOM      5  C   UNL     1      -4.292  -2.392  23.964  0.00  0.00    +0.054 C 
ATOM      6  C   UNL     1      -3.892  -0.978  23.929  0.00  0.00    +0.040 A 
ATOM      7  C   UNL     1      -3.346  -0.515  24.340  0.00  0.00    +0.132 A 
ENDBRANCH   8   7
BRANCH  15  17
ATOM     17  O   UNL     1      -3.671   3.027  24.316  0.00  0.00    -0.460 OA
BRANCH  17  18
ATOM     18  C   UNL     1      -3.203   3.439  24.857  0.00  0.00    +0.225 A 
ATOM     19  C   UNL     1      -3.554   3.815  25.503  0.00  0.00    +0.058 A 
ATOM     20  C   UNL     1      -3.087   4.227  26.043  0.00  0.00    +0.006 A 
ATOM     21  C   UNL     1      -2.269   4.264  25.938  0.00  0.00    +0.015 A 
ATOM     22  C   UNL     1      -1.919   3.888  25.292  0.00  0.00    +0.062 A 
ATOM     23  C   UNL     1      -1.101   3.925  25.187  0.00  0.00    +0.052 C 
ATOM     24  N   UNL     1      -2.386   3.476  24.752  0.00  0.00    -0.216 NA
ENDBRANCH  17  18
ENDBRANCH  15  17
TORSDOF 3
ENDMDL
MODEL 2
REMARK VINA RESULT:     -10.9      1.392      4.491
REMARK  Name = 
REMARK  3 active torsions:
REMARK  status: ('A' for Active; 'I' for Inactive)
REMARK    1  A    between atoms: C_7  and  C_8
REMARK    2  A    between atoms: C_15  and  O_17
REMARK    3  A    between atoms: O_17  and  C_18
REMARK                            x       y       z     vdW  Elec       q    Type
REMARK                         _______ _______ _______ _____ _____    ______ ____
ROOT
ATOM      8  C   UNL     1      -1.666   1.790  25.212  0.00  0.00    +0.267 C 
ATOM      9  O   UNL     1      -1.333   1.266  25.754  0.00  0.00    -0.268 OA
ATOM     10  N   UNL     1      -2.411   1.635  24.892  0.00  0.00    -0.268 N 
ATOM     11  C   UNL     1      -2.693   2.195  24.355  0.00  0.00    +0.126 C 
ATOM     12  C   UNL     1      -3.409   2.199  23.944  0.00  0.00    +0.164 C 
ATOM     13  O   UNL     1      -4.019   1.643  23.970  0.00  0.00    -0.348 OA
ATOM     14  C   UNL     1      -4.064   0.948  24.412  0.00  0.00    +0.187 C 
ATOM     15  C   UNL     1      -3.510   0.636  24.938  0.00  0.00    +0.217 C 
ATOM     16  C   UNL     1      -2.774   0.942  25.151  0.00  0.00    +0.140 C 
ENDROOT
BRANCH   8   7
ATOM      1  C   UNL     1      -0.194   1.844  24.187  0.00  0.00    +0.154 C 
ATOM      2  N   UNL     1      -0.578   2.494  24.518  0.00  0.00    -0.245 N 
ATOM      3  N   UNL     1      -0.353   3.284  24.436  0.00  0.00    -0.173 NA
ATOM      4  C   UNL     1      -0.891   3.748  24.856  0.00  0.00    +0.081 A 
ATOM      5  C   UNL     1      -0.874   4.570  24.923  0.00  0.00    +0.054 C 
ATOM      6  C   UNL     1      -1.448   3.245  25.198  0.00  0.00    +0.040 A 
ATOM      7  C   UNL     1      -1.255   2.470  24.989  0.00  0.00    +0.132 A 
ENDBRANCH   8   7
BRANCH  15  17
ATOM     17  O   UNL     1      -3.720  -0.076  25.297  0.00  0.00    -0.460 OA
BRANCH  17  18
ATOM     18  C   UNL     1      -3.674  -0.782  24.873  0.00  0.00    +0.225 A 
ATOM     19  C   UNL     1      -4.298  -1.009  24.382  0.00  0.00    +0.058 A 
ATOM     20  C   UNL     1      -4.253  -1.715  23.958  0.00  0.00    +0.006 A 
ATOM     21  C   UNL     1      -3.584  -2.194  24.024  0.00  0.00    +0.015 A 
ATOM     22  C   UNL     1      -2.961  -1.967  24.514  0.00  0.00    +0.062 A 
ATOM     23  C   UNL     1      -2.292  -2.446  24.580  0.00  0.00    +0.052 C 
ATOM     24  N   UNL     1      -3.006  -1.261  24.938  0.00  0.00    -0.216 NA
ENDBRANCH  17  18
ENDBRANCH  15  17
TORSDOF 3
ENDMDL
MODEL 3
REMARK VINA RESULT:     -10.8      1.012      4.639
REMARK  Name = 
REMARK  3 active torsions:
REMARK  status: ('A' for Active; 'I' for Inactive)
REMARK    1  A    between atoms: C_7  and  C_8
REMARK    2  A    between atoms: C_15  and  O_17
REMARK    3  A    between atoms: O_17  and  C_18
REMARK                            x       y       z     vdW  Elec       q    Type
REMARK                         _______ _______ _______ _____ _____    ______ ____
ROOT
ATOM      8  C   UNL     1      -3.374   2.596  25.087  0.00  0.00    +0.267 C 
ATOM      9  O   UNL     1      -3.930   2.482  25.685  0.00  0.00    -0.268 OA
ATOM     10  N   UNL     1      -3.273   2.023  24.502  0.00  0.00    -0.268 N 
ATOM     11  C   UNL     1      -2.703   2.192  23.930  0.00  0.00    +0.126 C 
ATOM     12  C   UNL     1      -2.474   1.736  23.282  0.00  0.00    +0.164 C 
ATOM     13  O   UNL     1      -2.759   0.998  23.045  0.00  0.00    -0.348 OA
ATOM     14  C   UNL     1      -3.342   0.535  23.399  0.00  0.00    +0.187 C 
ATOM     15  C   UNL     1      -3.785   0.694  24.077  0.00  0.00    +0.217 C 
ATOM     16  C   UNL     1      -3.754   1.356  24.568  0.00  0.00    +0.140 C 
ENDROOT
BRANCH   8   7
ATOM      1  C   UNL     1      -3.965   4.242  24.685  0.00  0.00    +0.154 C 
ATOM      2  N   UNL     1      -3.191   4.041  24.888  0.00  0.00    -0.245 N 
ATOM      3  N   UNL     1      -2.553   4.562  24.942  0.00  0.00    -0.173 NA
ATOM      4  C   UNL     1      -1.886   4.126  25.160  0.00  0.00    +0.081 A 
ATOM      5  C   UNL     1      -1.128   4.427  25.277  0.00  0.00    +0.054 C 
ATOM      6  C   UNL     1      -2.113   3.337  25.241  0.00  0.00    +0.040 A 
ATOM      7  C   UNL     1      -2.919   3.285  25.073  0.00  0.00    +0.132 A 
ENDBRANCH   8   7
BRANCH  15  17
ATOM     17  O   UNL     1      -4.331   0.115  24.292  0.00  0.00    -0.460 OA
BRANCH  17  18
ATOM     18  C   UNL     1      -4.071  -0.638  24.509  0.00  0.00    +0.225 A 
ATOM     19  C   UNL     1      -4.119  -1.262  23.971  0.00  0.00    +0.058 A 
ATOM     20  C   UNL     1      -3.859  -2.014  24.187  0.00  0.00    +0.006 A 
ATOM     21  C   UNL     1      -3.552  -2.142  24.943  0.00  0.00    +0.015 A 
ATOM     22  C   UNL     1      -3.505  -1.519  25.480  0.00  0.00    +0.062 A 
ATOM     23  C   UNL     1      -3.197  -1.647  26.235  0.00  0.00    +0.052 C 
ATOM     24  N   UNL     1      -3.764  -0.767  25.263  0.00  0.00    -0.216 NA
ENDBRANCH  17  18
ENDBRANCH  15  17
TORSDOF 3
ENDMDL
MODEL 4
REMARK VINA RESULT:     -10.4      1.279      2.143
REMARK  Name = 
REMARK  3 active torsions:
REMARK  status: ('A' for Active; 'I' for Inactive)
REMARK    1  A    between atoms: C_7  and  C_8
REMARK    2  A    between atoms: C_15  and  O_17
REMARK    3  A    between atoms: O_17  and  C_18
REMARK                            x       y       z     vdW  Elec       q    Type
REMARK                         _______ _______ _______ _____ _____    ______ ____
ROOT
ATOM      8  C   UNL     1      -3.041   0.214  24.253  0.00  0.00    +0.267 C 
ATOM      9  O   UNL     1      -3.506   0.664  23.741  0.00  0.00    -0.268 OA
ATOM     10  N   UNL     1      -2.320   0.510  24.523  0.00  0.00    -0.268 N 
ATOM     11  C   UNL     1      -1.899   0.016  25.033  0.00  0.00    +0.126 C 
ATOM     12  C   UNL     1      -1.169   0.150  25.393  0.00  0.00    +0.164 C 
ATOM     13  O   UNL     1      -0.680   0.813  25.332  0.00  0.00    -0.348 OA
ATOM     14  C   UNL     1      -0.800   1.503  24.897  0.00  0.00    +0.187 C 
ATOM     15  C   UNL     1      -1.438   1.702  24.414  0.00  0.00    +0.217 C 
ATOM     16  C   UNL     1      -2.115   1.260  24.248  0.00  0.00    +0.140 C 
ENDROOT
BRANCH   8   7
ATOM      1  C   UNL     1      -4.398  -0.120  25.378  0.00  0.00    +0.154 C 
ATOM      2  N   UNL     1      -3.922  -0.685  25.012  0.00  0.00    -0.245 N 
ATOM      3  N   UNL     1      -3.985  -1.504  25.099  0.00  0.00    -0.173 NA
ATOM      4  C   UNL     1      -3.400  -1.856  24.635  0.00  0.00    +0.081 A 
ATOM      5  C   UNL     1      -3.264  -2.666  24.559  0.00  0.00    +0.054 C 
ATOM      6  C   UNL     1      -2.975  -1.255  24.262  0.00  0.00    +0.040 A 
ATOM      7  C   UNL     1      -3.298  -0.532  24.495  0.00  0.00    +0.132 A 
ENDBRANCH   8   7
BRANCH  15  17
ATOM     17  O   UNL     1      -1.395   2.441  24.050  0.00  0.00    -0.460 OA
BRANCH  17  18
ATOM     18  C   UNL     1      -1.466   3.128  24.501  0.00  0.00    +0.225 A 
ATOM     19  C   UNL     1      -0.804   3.602  24.637  0.00  0.00    +0.058 A 
ATOM     20  C   UNL     1      -0.875   4.289  25.087  0.00  0.00    +0.006 A 
ATOM     21  C   UNL     1      -1.607   4.503  25.401  0.00  0.00    +0.015 A 
ATOM     22  C   UNL     1      -2.268   4.029  25.265  0.00  0.00    +0.062 A 
ATOM     23  C   UNL     1      -3.001   4.243  25.580  0.00  0.00    +0.052 C 
ATOM     24  N   UNL     1      -2.198   3.342  24.815  0.00  0.00    -0.216 NA
ENDBRANCH  17  18
ENDBRANCH  15  17
TORSDOF 3
ENDMDL
