REMARK  Name = 
REMARK  5 active torsions:
REMARK  status: ('A' for Active; 'I' for Inactive)
REMARK    1  A    between atoms: C_2  and  C_4
REMARK    2  A    between atoms: C_5  and  C_31
REMARK    3  A    between atoms: N_6  and  C_9
REMARK    4  A    between atoms: CA_18  and  CB_19
REMARK    5  A    between atoms: CB_19  and  CG_20
REMARK                            x       y       z     vdW  Elec       q    Type
REMARK                         _______ _______ _______ _____ _____    ______ ____
ROOT
ATOM      9  C   UNK A   1      -0.786   1.999   0.000  0.00  0.00    +0.111 C 
ATOM     10  C   UNK A   1      -0.531   1.215   0.000  0.00  0.00    +0.046 C 
ATOM     11  C   UNK A   1       0.276   1.043   0.000  0.00  0.00    +0.096 C 
ATOM     12  N   UNK A   1       0.828   1.656   0.000  0.00  0.00    -0.271 N 
ATOM     13  C   UNK A   1       0.573   2.441   0.000  0.00  0.00    +0.155 C 
ATOM     14  C   UNK A   1      -0.234   2.612   0.000  0.00  0.00    +0.054 C 
ATOM     15  C   UNK A   1       1.125   3.054   0.000  0.00  0.00    +0.260 C 
ATOM     16  O   UNK A   1       0.870   3.838   0.000  0.00  0.00    -0.272 OA
ATOM     17  N   TRP A   2       1.932   2.882   0.000  0.00  0.00    -0.196 NA
ATOM     18  CA  TRP A   2       2.187   2.098   0.000  0.00  0.00    +0.176 C 
ATOM     29  C   TRP A   2       1.635   1.485   0.000  0.00  0.00    +0.246 C 
ATOM     30  O   TRP A   2       1.890   0.700   0.000  0.00  0.00    -0.273 OA
ENDROOT
BRANCH   9   6
ATOM      4  C   UNK A   1      -2.749   2.838   0.000  0.00  0.00    +0.183 A 
ATOM      5  C   UNK A   1      -1.929   2.924   0.000  0.00  0.00    +0.160 A 
ATOM      6  N   UNK A   1      -1.593   2.171   0.000  0.00  0.00    -0.229 N 
ATOM      7  N   UNK A   1      -2.206   1.619   0.000  0.00  0.00    -0.064 NA
ATOM      8  N   UNK A   1      -2.921   2.031   0.000  0.00  0.00    -0.124 NA
BRANCH   4   2
ATOM      1  N   UNK A   1      -4.108   3.280   0.000  0.00  0.00    -0.082 NA
ATOM      2  C   UNK A   1      -3.301   3.451   0.000  0.00  0.00    +0.305 C 
ATOM      3  O   UNK A   1      -3.046   4.236   0.000  0.00  0.00    -0.265 OA
ENDBRANCH   4   2
BRANCH   5  31
ATOM     31  C   UNK A   1      -1.516   3.639   0.000  0.00  0.00    +0.303 C 
ATOM     32  N   UNK A   1      -0.691   3.639   0.000  0.00  0.00    -0.082 NA
ATOM     33  O   UNK A   1      -1.929   4.353   0.000  0.00  0.00    -0.265 OA
ENDBRANCH   5  31
ENDBRANCH   9   6
BRANCH  18  19
ATOM     19  CB  TRP A   2       2.994   1.926   0.000  0.00  0.00    +0.059 C 
BRANCH  19  20
ATOM     20  CG  TRP A   2       3.249   1.141   0.000  0.00  0.00    +0.001 A 
ATOM     21  CD1 TRP A   2       2.764   0.474   0.000  0.00  0.00    +0.095 A 
ATOM     22  NE1 TRP A   2       3.249  -0.193   0.000  0.00  0.00    -0.244 NA
ATOM     23  CE2 TRP A   2       4.033   0.062   0.000  0.00  0.00    +0.081 A 
ATOM     24  CD2 TRP A   2       4.033   0.887   0.000  0.00  0.00    +0.015 A 
ATOM     25  CE3 TRP A   2       4.748   1.299   0.000  0.00  0.00    +0.001 A 
ATOM     26  CZ3 TRP A   2       5.462   0.887   0.000  0.00  0.00    +0.000 A 
ATOM     27  CH2 TRP A   2       5.462   0.062   0.000  0.00  0.00    +0.002 A 
ATOM     28  CZ2 TRP A   2       4.748  -0.351   0.000  0.00  0.00    +0.019 A 
ENDBRANCH  19  20
ENDBRANCH  18  19
TORSDOF 5
