MODEL 1
REMARK VINA RESULT:      -9.0      0.000      0.000
REMARK  Name = 
REMARK  5 active torsions:
REMARK  status: ('A' for Active; 'I' for Inactive)
REMARK    1  A    between atoms: C_2  and  N_4
REMARK    2  A    between atoms: N_7  and  C_8
REMARK    3  A    between atoms: C_8  and  C_9
REMARK    4  A    between atoms: C_12  and  N_13
REMARK    5  A    between atoms: N_13  and  C_14
REMARK                            x       y       z     vdW  Elec       q    Type
REMARK                         _______ _______ _______ _____ _____    ______ ____
ROOT
ATOM      9  C   UNL     1      -3.366   1.739  24.470  0.00  0.00    +0.169 C 
ATOM     10  O   UNL     1      -2.878   1.234  24.037  0.00  0.00    -0.350 OA
ATOM     11  C   UNL     1      -3.217   0.482  24.048  0.00  0.00    +0.162 C 
ATOM     12  C   UNL     1      -3.914   0.523  24.489  0.00  0.00    +0.135 C 
ATOM     21  C   UNL     1      -4.006   1.300  24.750  0.00  0.00    +0.199 C 
ATOM     22  O   UNL     1      -4.628   1.587  25.209  0.00  0.00    -0.219 OA
ENDROOT
BRANCH   9   8
ATOM      8  C   UNL     1      -3.235   2.543  24.601  0.00  0.00    +0.149 C 
BRANCH   8   7
ATOM      4  N   UNL     1      -1.582   3.868  25.126  0.00  0.00    -0.189 NA
ATOM      5  C   UNL     1      -2.315   3.607  24.853  0.00  0.00    +0.339 C 
ATOM      6  O   UNL     1      -2.863   4.151  24.559  0.00  0.00    -0.249 OA
ATOM      7  N   UNL     1      -2.502   2.804  24.874  0.00  0.00    -0.185 NA
BRANCH   4   2
ATOM      1  C   UNL     1      -1.886   5.219  25.475  0.00  0.00    +0.023 C 
ATOM      2  C   UNL     1      -1.395   4.671  25.105  0.00  0.00    +0.097 C 
ATOM      3  C   UNL     1      -0.714   4.926  24.713  0.00  0.00    +0.023 C 
ENDBRANCH   4   2
ENDBRANCH   8   7
ENDBRANCH   9   8
BRANCH  12  13
ATOM     13  N   UNL     1      -4.429  -0.104  24.641  0.00  0.00    -0.216 NA
BRANCH  13  14
ATOM     14  C   UNL     1      -4.147  -0.880  24.637  0.00  0.00    +0.076 C 
ATOM     15  C   UNL     1      -4.263  -1.356  23.973  0.00  0.00    +0.035 C 
ATOM     16  C   UNL     1      -3.981  -2.132  23.969  0.00  0.00    +0.074 C 
ATOM     17  N   UNL     1      -3.584  -2.430  24.627  0.00  0.00    -0.271 NA
ATOM     18  C   UNL     1      -3.302  -3.205  24.622  0.00  0.00    +0.090 C 
ATOM     19  C   UNL     1      -3.468  -1.953  25.290  0.00  0.00    +0.074 C 
ATOM     20  C   UNL     1      -3.750  -1.178  25.295  0.00  0.00    +0.035 C 
ENDBRANCH  13  14
ENDBRANCH  12  13
TORSDOF 5
ENDMDL
MODEL 2
REMARK VINA RESULT:      -8.3      1.434      5.629
REMARK  Name = 
REMARK  5 active torsions:
REMARK  status: ('A' for Active; 'I' for Inactive)
REMARK    1  A    between atoms: C_2  and  N_4
REMARK    2  A    between atoms: N_7  and  C_8
REMARK    3  A    between atoms: C_8  and  C_9
REMARK    4  A    between atoms: C_12  and  N_13
REMARK    5  A    between atoms: N_13  and  C_14
REMARK                            x       y       z     vdW  Elec       q    Type
REMARK                         _______ _______ _______ _____ _____    ______ ____
ROOT
ATOM      9  C   UNL     1      -2.029   0.747  24.903  0.00  0.00    +0.169 C 
ATOM     10  O   UNL     1      -2.536   1.336  24.625  0.00  0.00    -0.350 OA
ATOM     11  C   UNL     1      -2.257   2.062  24.899  0.00  0.00    +0.162 C 
ATOM     12  C   UNL     1      -1.579   1.922  25.347  0.00  0.00    +0.135 C 
ATOM     21  C   UNL     1      -1.438   1.109  25.349  0.00  0.00    +0.199 C 
ATOM     22  O   UNL     1      -0.815   0.726  25.731  0.00  0.00    -0.219 OA
ENDROOT
BRANCH   9   8
ATOM      8  C   UNL     1      -2.102  -0.063  24.760  0.00  0.00    +0.149 C 
BRANCH   8   7
ATOM      4  N   UNL     1      -3.667  -1.581  24.663  0.00  0.00    -0.189 NA
ATOM      5  C   UNL     1      -2.933  -1.213  24.591  0.00  0.00    +0.339 C 
ATOM      6  O   UNL     1      -2.292  -1.629  24.275  0.00  0.00    -0.249 OA
ATOM      7  N   UNL     1      -2.837  -0.430  24.833  0.00  0.00    -0.185 NA
BRANCH   4   2
ATOM      1  C   UNL     1      -3.474  -2.979  24.888  0.00  0.00    +0.023 C 
ATOM      2  C   UNL     1      -3.763  -2.364  24.421  0.00  0.00    +0.097 C 
ATOM      3  C   UNL     1      -4.150  -2.531  23.711  0.00  0.00    +0.023 C 
ENDBRANCH   4   2
ENDBRANCH   8   7
ENDBRANCH   9   8
BRANCH  12  13
ATOM     13  N   UNL     1      -1.121   2.495  25.725  0.00  0.00    -0.216 NA
BRANCH  13  14
ATOM     14  C   UNL     1      -1.216   3.292  25.533  0.00  0.00    +0.076 C 
ATOM     15  C   UNL     1      -1.843   3.721  25.853  0.00  0.00    +0.035 C 
ATOM     16  C   UNL     1      -1.938   4.518  25.661  0.00  0.00    +0.074 C 
ATOM     17  N   UNL     1      -1.406   4.885  25.149  0.00  0.00    -0.271 NA
ATOM     18  C   UNL     1      -1.500   5.681  24.956  0.00  0.00    +0.090 C 
ATOM     19  C   UNL     1      -0.778   4.455  24.828  0.00  0.00    +0.074 C 
ATOM     20  C   UNL     1      -0.684   3.659  25.021  0.00  0.00    +0.035 C 
ENDBRANCH  13  14
ENDBRANCH  12  13
TORSDOF 5
ENDMDL
MODEL 3
REMARK VINA RESULT:      -8.0      0.994      5.332
REMARK  Name = 
REMARK  5 active torsions:
REMARK  status: ('A' for Active; 'I' for Inactive)
REMARK    1  A    between atoms: C_2  and  N_4
REMARK    2  A    between atoms: N_7  and  C_8
REMARK    3  A    between atoms: C_8  and  C_9
REMARK    4  A    between atoms: C_12  and  N_13
REMARK    5  A    between atoms: N_13  and  C_14
REMARK                            x       y       z     vdW  Elec       q    Type
REMARK                         _______ _______ _______ _____ _____    ______ ____
ROOT
ATOM      9  C   UNL     1      -3.946   1.093  24.336  0.00  0.00    +0.169 C 
ATOM     10  O   UNL     1      -3.408   1.400  23.791  0.00  0.00    -0.350 OA
ATOM     11  C   UNL     1      -3.328   2.208  23.939  0.00  0.00    +0.162 C 
ATOM     12  C   UNL     1      -3.816   2.399  24.576  0.00  0.00    +0.135 C 
ATOM     21  C   UNL     1      -4.199   1.711  24.821  0.00  0.00    +0.199 C 
ATOM     22  O   UNL     1      -4.738   1.651  25.443  0.00  0.00    -0.219 OA
ENDROOT
BRANCH   9   8
ATOM      8  C   UNL     1      -4.189   0.306  24.387  0.00  0.00    +0.149 C 
BRANCH   8   7
ATOM      4  N   UNL     1      -3.337  -1.697  24.234  0.00  0.00    -0.189 NA
ATOM      5  C   UNL     1      -3.882  -1.089  24.347  0.00  0.00    +0.339 C 
ATOM      6  O   UNL     1      -4.666  -1.267  24.535  0.00  0.00    -0.249 OA
ATOM      7  N   UNL     1      -3.644  -0.302  24.273  0.00  0.00    -0.185 NA
BRANCH   4   2
ATOM      1  C   UNL     1      -4.011  -2.842  23.707  0.00  0.00    +0.023 C 
ATOM      2  C   UNL     1      -3.575  -2.484  24.308  0.00  0.00    +0.097 C 
ATOM      3  C   UNL     1      -3.376  -2.913  24.985  0.00  0.00    +0.023 C 
ENDBRANCH   4   2
ENDBRANCH   8   7
ENDBRANCH   9   8
BRANCH  12  13
ATOM     13  N   UNL     1      -3.906   3.149  24.909  0.00  0.00    -0.216 NA
BRANCH  13  14
ATOM     14  C   UNL     1      -3.253   3.647  24.989  0.00  0.00    +0.076 C 
ATOM     15  C   UNL     1      -2.796   3.619  25.675  0.00  0.00    +0.035 C 
ATOM     16  C   UNL     1      -2.142   4.117  25.756  0.00  0.00    +0.074 C 
ATOM     17  N   UNL     1      -1.946   4.640  25.150  0.00  0.00    -0.271 NA
ATOM     18  C   UNL     1      -1.292   5.137  25.229  0.00  0.00    +0.090 C 
ATOM     19  C   UNL     1      -2.403   4.668  24.463  0.00  0.00    +0.074 C 
ATOM     20  C   UNL     1      -3.056   4.170  24.384  0.00  0.00    +0.035 C 
ENDBRANCH  13  14
ENDBRANCH  12  13
TORSDOF 5
ENDMDL
MODEL 4
REMARK VINA RESULT:      -8.0      1.791      2.050
REMARK  Name = 
REMARK  5 active torsions:
REMARK  status: ('A' for Active; 'I' for Inactive)
REMARK    1  A    between atoms: C_2  and  N_4
REMARK    2  A    between atoms: N_7  and  C_8
REMARK    3  A    between atoms: C_8  and  C_9
REMARK    4  A    between atoms: C_12  and  N_13
REMARK    5  A    between atoms: N_13  and  C_14
REMARK                            x       y       z     vdW  Elec       q    Type
REMARK                         _______ _______ _______ _____ _____    ______ ____
ROOT
ATOM      9  C   UNL     1      -1.044   1.006  25.012  0.00  0.00    +0.169 C 
ATOM     10  O   UNL     1      -1.245   0.751  24.253  0.00  0.00    -0.350 OA
ATOM     11  C   UNL     1      -1.388  -0.061  24.288  0.00  0.00    +0.162 C 
ATOM     12  C   UNL     1      -1.276  -0.306  25.068  0.00  0.00    +0.135 C 
ATOM     21  C   UNL     1      -1.063   0.353  25.515  0.00  0.00    +0.199 C 
ATOM     22  O   UNL     1      -0.899   0.358  26.324  0.00  0.00    -0.219 OA
ENDROOT
BRANCH   9   8
ATOM      8  C   UNL     1      -0.857   1.780  25.229  0.00  0.00    +0.149 C 
BRANCH   8   7
ATOM      4  N   UNL     1      -1.440   3.818  24.711  0.00  0.00    -0.189 NA
ATOM      5  C   UNL     1      -1.100   3.184  25.112  0.00  0.00    +0.339 C 
ATOM      6  O   UNL     1      -0.662   3.317  25.800  0.00  0.00    -0.249 OA
ATOM      7  N   UNL     1      -1.197   2.415  24.827  0.00  0.00    -0.185 NA
BRANCH   4   2
ATOM      1  C   UNL     1      -1.922   4.925  25.476  0.00  0.00    +0.023 C 
ATOM      2  C   UNL     1      -1.343   4.587  24.996  0.00  0.00    +0.097 C 
ATOM      3  C   UNL     1      -0.666   5.017  24.799  0.00  0.00    +0.023 C 
ENDBRANCH   4   2
ENDBRANCH   8   7
ENDBRANCH   9   8
BRANCH  12  13
ATOM     13  N   UNL     1      -1.362  -1.077  25.350  0.00  0.00    -0.216 NA
BRANCH  13  14
ATOM     14  C   UNL     1      -1.988  -1.546  25.086  0.00  0.00    +0.076 C 
ATOM     15  C   UNL     1      -1.854  -2.130  24.519  0.00  0.00    +0.035 C 
ATOM     16  C   UNL     1      -2.480  -2.598  24.255  0.00  0.00    +0.074 C 
ATOM     17  N   UNL     1      -3.238  -2.483  24.558  0.00  0.00    -0.271 NA
ATOM     18  C   UNL     1      -3.864  -2.952  24.295  0.00  0.00    +0.090 C 
ATOM     19  C   UNL     1      -3.371  -1.899  25.126  0.00  0.00    +0.074 C 
ATOM     20  C   UNL     1      -2.745  -1.431  25.390  0.00  0.00    +0.035 C 
ENDBRANCH  13  14
ENDBRANCH  12  13
TORSDOF 5
ENDMDL
