MODEL 1
REMARK VINA RESULT:     -12.1      0.000      0.000
REMARK  Name = 
REMARK  7 active torsions:
REMARK  status: ('A' for Active; 'I' for Inactive)
REMARK    1  A    between atoms: O_2  and  C_3
REMARK    2  A    between atoms: C_3  and  C_5
REMARK    3  A    between atoms: N_10  and  S_11
REMARK    4  A    between atoms: S_11  and  C_14
REMARK    5  A    between atoms: C_14  and  C_15
REMARK    6  A    between atoms: N_21  and  C_22
REMARK    7  A    between atoms: C_22  and  C_23
REMARK                            x       y       z     vdW  Elec       q    Type
REMARK                         _______ _______ _______ _____ _____    ______ ____
ROOT
ATOM      5  C   UNL     1      -1.570   1.880  24.565  0.00  0.00    +0.184 C 
ATOM      6  C   UNL     1      -1.052   1.240  24.624  0.00  0.00    +0.076 C 
ATOM      7  C   UNL     1      -1.334   0.502  24.861  0.00  0.00    +0.076 A 
ATOM      8  C   UNL     1      -2.134   0.403  25.039  0.00  0.00    +0.070 A 
ATOM      9  C   UNL     1      -2.652   1.043  24.979  0.00  0.00    +0.141 C 
ATOM     10  N   UNL     1      -2.369   1.781  24.742  0.00  0.00    -0.143 NA
ATOM     21  N   UNL     1      -2.251  -0.383  25.256  0.00  0.00    -0.307 N 
ATOM     30  C   UNL     1      -1.525  -0.771  25.213  0.00  0.00    +0.178 A 
ATOM     31  N   UNL     1      -0.958  -0.224  24.969  0.00  0.00    -0.229 NA
ENDROOT
BRANCH  10  11
ATOM     11  S   UNL     1      -2.887   2.420  24.683  0.00  0.00    +0.049 S 
ATOM     12  O   UNL     1      -2.729   2.622  25.466  0.00  0.00    -0.157 OA
ATOM     13  O   UNL     1      -3.046   2.218  23.898  0.00  0.00    -0.157 OA
BRANCH  11  14
ATOM     14  C   UNL     1      -3.406   3.059  24.622  0.00  0.00    +0.195 C 
BRANCH  14  15
ATOM     15  C   UNL     1      -4.177   2.993  24.905  0.00  0.00    +0.003 A 
ATOM     16  C   UNL     1      -4.732   2.543  24.492  0.00  0.00    -0.003 A 
ATOM     17  C   UNL     1      -5.503   2.477  24.774  0.00  0.00    -0.000 A 
ATOM     18  C   UNL     1      -5.722   2.861  25.471  0.00  0.00    -0.000 A 
ATOM     19  C   UNL     1      -5.168   3.312  25.885  0.00  0.00    -0.000 A 
ATOM     20  C   UNL     1      -4.396   3.378  25.601  0.00  0.00    -0.003 A 
ENDBRANCH  14  15
ENDBRANCH  11  14
ENDBRANCH  10  11
BRANCH   5   3
ATOM      3  C   UNL     1      -1.288   2.617  24.328  0.00  0.00    +0.334 C 
ATOM      4  O   UNL     1      -1.396   2.870  23.550  0.00  0.00    -0.249 OA
BRANCH   3   2
ATOM      1  C   UNL     1      -0.310   3.620  24.611  0.00  0.00    +0.256 C 
ATOM      2  O   UNL     1      -0.898   3.104  24.869  0.00  0.00    -0.443 OA
ENDBRANCH   3   2
ENDBRANCH   5   3
BRANCH  21  22
ATOM     22  C   UNL     1      -2.970  -0.723  25.477  0.00  0.00    +0.134 C 
BRANCH  22  23
ATOM     23  C   UNL     1      -3.274  -1.360  25.051  0.00  0.00    +0.000 A 
ATOM     24  C   UNL     1      -3.050  -2.131  25.243  0.00  0.00    -0.002 A 
ATOM     25  C   UNL     1      -3.354  -2.768  24.816  0.00  0.00    +0.011 A 
ATOM     26  C   UNL     1      -3.883  -2.634  24.197  0.00  0.00    +0.058 A 
ATOM     27 CL   UNL     1      -4.187  -3.271  23.770  0.00  0.00    -0.082 Cl
ATOM     28  C   UNL     1      -4.107  -1.865  24.005  0.00  0.00    +0.011 A 
ATOM     29  C   UNL     1      -3.803  -1.228  24.432  0.00  0.00    -0.002 A 
ENDBRANCH  22  23
ENDBRANCH  21  22
TORSDOF 7
ENDMDL
MODEL 2
REMARK VINA RESULT:     -11.6      1.243      2.928
REMARK  Name = 
REMARK  7 active torsions:
REMARK  status: ('A' for Active; 'I' for Inactive)
REMARK    1  A    between atoms: O_2  and  C_3
REMARK    2  A    between atoms: C_3  and  C_5
REMARK    3  A    between atoms: N_10  and  S_11
REMARK    4  A    between atoms: S_11  and  C_14
REMARK    5  A    between atoms: C_14  and  C_15
REMARK    6  A    between atoms: N_21  and  C_22
REMARK    7  A    between atoms: C_22  and  C_23
REMARK                            x       y       z     vdW  Elec       q    Type
REMARK                         _______ _______ _______ _____ _____    ______ ____
ROOT
ATOM      5  C   UNL     1      -4.180   2.732  24.854  0.00  0.00    +0.184 C 
ATOM      6  C   UNL     1      -4.806   2.200  24.778  0.00  0.00    +0.076 C 
ATOM      7  C   UNL     1      -4.654   1.393  24.695  0.00  0.00    +0.076 A 
ATOM      8  C   UNL     1      -3.876   1.119  24.688  0.00  0.00    +0.070 A 
ATOM      9  C   UNL     1      -3.250   1.652  24.764  0.00  0.00    +0.141 C 
ATOM     10  N   UNL     1      -3.402   2.458  24.847  0.00  0.00    -0.143 NA
ATOM     21  N   UNL     1      -3.895   0.300  24.599  0.00  0.00    -0.307 N 
ATOM     30  C   UNL     1      -4.685   0.067  24.550  0.00  0.00    +0.178 A 
ATOM     31  N   UNL     1      -5.153   0.743  24.610  0.00  0.00    -0.229 NA
ENDROOT
BRANCH  10  11
ATOM     11  S   UNL     1      -2.776   2.989  24.923  0.00  0.00    +0.049 S 
ATOM     12  O   UNL     1      -2.823   2.929  25.744  0.00  0.00    -0.157 OA
ATOM     13  O   UNL     1      -2.729   3.050  24.101  0.00  0.00    -0.157 OA
BRANCH  11  14
ATOM     14  C   UNL     1      -2.150   3.521  24.998  0.00  0.00    +0.195 C 
BRANCH  14  15
ATOM     15  C   UNL     1      -1.382   3.242  25.106  0.00  0.00    +0.003 A 
ATOM     16  C   UNL     1      -0.900   3.095  24.452  0.00  0.00    -0.003 A 
ATOM     17  C   UNL     1      -0.132   2.816  24.560  0.00  0.00    -0.000 A 
ATOM     18  C   UNL     1       0.156   2.684  25.322  0.00  0.00    -0.000 A 
ATOM     19  C   UNL     1      -0.325   2.830  25.976  0.00  0.00    -0.000 A 
ATOM     20  C   UNL     1      -1.095   3.110  25.868  0.00  0.00    -0.003 A 
ENDBRANCH  14  15
ENDBRANCH  11  14
ENDBRANCH  10  11
BRANCH   5   3
ATOM      3  C   UNL     1      -4.332   3.538  24.937  0.00  0.00    +0.334 C 
ATOM      4  O   UNL     1      -4.179   4.053  24.311  0.00  0.00    -0.249 OA
BRANCH   3   2
ATOM      1  C   UNL     1      -5.253   4.379  25.634  0.00  0.00    +0.256 C 
ATOM      2  O   UNL     1      -4.638   3.831  25.645  0.00  0.00    -0.443 OA
ENDBRANCH   3   2
ENDBRANCH   5   3
BRANCH  21  22
ATOM     22  C   UNL     1      -3.240  -0.200  24.564  0.00  0.00    +0.134 C 
BRANCH  22  23
ATOM     23  C   UNL     1      -3.336  -1.014  24.658  0.00  0.00    +0.000 A 
ATOM     24  C   UNL     1      -3.232  -1.359  25.401  0.00  0.00    -0.002 A 
ATOM     25  C   UNL     1      -3.328  -2.172  25.496  0.00  0.00    +0.011 A 
ATOM     26  C   UNL     1      -3.528  -2.642  24.847  0.00  0.00    +0.058 A 
ATOM     27 CL   UNL     1      -3.625  -3.456  24.942  0.00  0.00    -0.082 Cl
ATOM     28  C   UNL     1      -3.633  -2.298  24.105  0.00  0.00    +0.011 A 
ATOM     29  C   UNL     1      -3.536  -1.484  24.011  0.00  0.00    -0.002 A 
ENDBRANCH  22  23
ENDBRANCH  21  22
TORSDOF 7
ENDMDL
MODEL 3
REMARK VINA RESULT:     -11.0      2.263      4.605
REMARK  Name = 
REMARK  7 active torsions:
REMARK  status: ('A' for Active; 'I' for Inactive)
REMARK    1  A    between atoms: O_2  and  C_3
REMARK    2  A    between atoms: C_3  and  C_5
REMARK    3  A    between atoms: N_10  and  S_11
REMARK    4  A    between atoms: S_11  and  C_14
REMARK    5  A    between atoms: C_14  and  C_15
REMARK    6  A    between atoms: N_21  and  C_22
REMARK    7  A    between atoms: C_22  and  C_23
REMARK                            x       y       z     vdW  Elec       q    Type
REMARK                         _______ _______ _______ _____ _____    ______ ____
ROOT
ATOM      5  C   UNL     1      -4.816   2.094  25.056  0.00  0.00    +0.184 C 
ATOM      6  C   UNL     1      -4.588   2.886  25.062  0.00  0.00    +0.076 C 
ATOM      7  C   UNL     1      -3.802   3.091  24.916  0.00  0.00    +0.076 A 
ATOM      8  C   UNL     1      -3.245   2.503  24.763  0.00  0.00    +0.070 A 
ATOM      9  C   UNL     1      -3.473   1.709  24.756  0.00  0.00    +0.141 C 
ATOM     10  N   UNL     1      -4.259   1.506  24.903  0.00  0.00    -0.143 NA
ATOM     21  N   UNL     1      -2.516   2.868  24.638  0.00  0.00    -0.307 N 
ATOM     30  C   UNL     1      -2.623   3.683  24.714  0.00  0.00    +0.178 A 
ATOM     31  N   UNL     1      -3.418   3.820  24.885  0.00  0.00    -0.229 NA
ENDROOT
BRANCH  10  11
ATOM     11  S   UNL     1      -4.486   0.713  24.897  0.00  0.00    +0.049 S 
ATOM     12  O   UNL     1      -4.373   0.673  25.713  0.00  0.00    -0.157 OA
ATOM     13  O   UNL     1      -4.599   0.752  24.080  0.00  0.00    -0.157 OA
BRANCH  11  14
ATOM     14  C   UNL     1      -4.713  -0.080  24.889  0.00  0.00    +0.195 C 
BRANCH  14  15
ATOM     15  C   UNL     1      -4.143  -0.673  24.842  0.00  0.00    +0.003 A 
ATOM     16  C   UNL     1      -3.734  -0.909  25.519  0.00  0.00    -0.003 A 
ATOM     17  C   UNL     1      -3.163  -1.502  25.471  0.00  0.00    -0.000 A 
ATOM     18  C   UNL     1      -3.001  -1.860  24.746  0.00  0.00    -0.000 A 
ATOM     19  C   UNL     1      -3.408  -1.626  24.069  0.00  0.00    -0.000 A 
ATOM     20  C   UNL     1      -3.980  -1.032  24.117  0.00  0.00    -0.003 A 
ENDBRANCH  14  15
ENDBRANCH  11  14
ENDBRANCH  10  11
BRANCH   5   3
ATOM      3  C   UNL     1      -5.601   1.890  25.203  0.00  0.00    +0.334 C 
ATOM      4  O   UNL     1      -6.110   1.730  24.574  0.00  0.00    -0.249 OA
BRANCH   3   2
ATOM      1  C   UNL     1      -6.642   2.099  26.160  0.00  0.00    +0.256 C 
ATOM      2  O   UNL     1      -5.878   1.845  25.979  0.00  0.00    -0.443 OA
ENDBRANCH   3   2
ENDBRANCH   5   3
BRANCH  21  22
ATOM     22  C   UNL     1      -1.805   2.486  24.467  0.00  0.00    +0.134 C 
BRANCH  22  23
ATOM     23  C   UNL     1      -1.182   2.513  25.008  0.00  0.00    +0.000 A 
ATOM     24  C   UNL     1      -0.738   3.204  25.091  0.00  0.00    -0.002 A 
ATOM     25  C   UNL     1      -0.115   3.230  25.632  0.00  0.00    +0.011 A 
ATOM     26  C   UNL     1       0.063   2.567  26.089  0.00  0.00    +0.058 A 
ATOM     27 CL   UNL     1       0.686   2.594  26.629  0.00  0.00    -0.082 Cl
ATOM     28  C   UNL     1      -0.381   1.877  26.006  0.00  0.00    +0.011 A 
ATOM     29  C   UNL     1      -1.004   1.850  25.465  0.00  0.00    -0.002 A 
ENDBRANCH  22  23
ENDBRANCH  21  22
TORSDOF 7
ENDMDL
MODEL 4
REMARK VINA RESULT:     -10.9      1.813      2.250
REMARK  Name = 
REMARK  7 active torsions:
REMARK  status: ('A' for Active; 'I' for Inactive)
REMARK    1  A    between atoms: O_2  and  C_3
REMARK    2  A    between atoms: C_3  and  C_5
REMARK    3  A    between atoms: N_10  and  S_11
REMARK    4  A    between atoms: S_11  and  C_14
REMARK    5  A    between atoms: C_14  and  C_15
REMARK    6  A    between atoms: N_21  and  C_22
REMARK    7  A    between atoms: C_22  and  C_23
REMARK                            x       y       z     vdW  Elec       q    Type
REMARK                         _______ _______ _______ _____ _____    ______ ____
ROOT
ATOM      5  C   UNL     1      -1.814   3.658  25.247  0.00  0.00    +0.184 C 
ATOM      6  C   UNL     1      -1.029   3.405  25.251  0.00  0.00    +0.076 C 
ATOM      7  C   UNL     1      -0.849   2.616  25.092  0.00  0.00    +0.076 A 
ATOM      8  C   UNL     1      -1.454   2.080  24.928  0.00  0.00    +0.070 A 
ATOM      9  C   UNL     1      -2.240   2.333  24.924  0.00  0.00    +0.141 C 
ATOM     10  N   UNL     1      -2.419   3.122  25.084  0.00  0.00    -0.143 NA
ATOM     21  N   UNL     1      -1.112   1.342  24.792  0.00  0.00    -0.307 N 
ATOM     30  C   UNL     1      -0.295   1.422  24.872  0.00  0.00    +0.178 A 
ATOM     31  N   UNL     1      -0.133   2.209  25.057  0.00  0.00    -0.229 NA
ENDROOT
BRANCH  10  11
ATOM     11  S   UNL     1      -3.204   3.375  25.079  0.00  0.00    +0.049 S 
ATOM     12  O   UNL     1      -3.243   3.272  25.896  0.00  0.00    -0.157 OA
ATOM     13  O   UNL     1      -3.166   3.478  24.261  0.00  0.00    -0.157 OA
BRANCH  11  14
ATOM     14  C   UNL     1      -3.990   3.628  25.074  0.00  0.00    +0.195 C 
BRANCH  14  15
ATOM     15  C   UNL     1      -4.601   3.077  25.120  0.00  0.00    +0.003 A 
ATOM     16  C   UNL     1      -4.776   2.598  24.471  0.00  0.00    -0.003 A 
ATOM     17  C   UNL     1      -5.388   2.047  24.517  0.00  0.00    -0.000 A 
ATOM     18  C   UNL     1      -5.825   1.974  25.212  0.00  0.00    -0.000 A 
ATOM     19  C   UNL     1      -5.652   2.452  25.862  0.00  0.00    -0.000 A 
ATOM     20  C   UNL     1      -5.039   3.004  25.815  0.00  0.00    -0.003 A 
ENDBRANCH  14  15
ENDBRANCH  11  14
ENDBRANCH  10  11
BRANCH   5   3
ATOM      3  C   UNL     1      -1.993   4.447  25.407  0.00  0.00    +0.334 C 
ATOM      4  O   UNL     1      -2.300   4.659  26.143  0.00  0.00    -0.249 OA
BRANCH   3   2
ATOM      1  C   UNL     1      -1.545   5.753  25.041  0.00  0.00    +0.256 C 
ATOM      2  O   UNL     1      -1.867   5.024  24.831  0.00  0.00    -0.443 OA
ENDBRANCH   3   2
ENDBRANCH   5   3
BRANCH  21  22
ATOM     22  C   UNL     1      -1.516   0.646  24.609  0.00  0.00    +0.134 C 
BRANCH  22  23
ATOM     23  C   UNL     1      -1.199  -0.084  24.826  0.00  0.00    +0.000 A 
ATOM     24  C   UNL     1      -0.707  -0.492  24.304  0.00  0.00    -0.002 A 
ATOM     25  C   UNL     1      -0.390  -1.222  24.521  0.00  0.00    +0.011 A 
ATOM     26  C   UNL     1      -0.566  -1.544  25.260  0.00  0.00    +0.058 A 
ATOM     27 CL   UNL     1      -0.249  -2.274  25.477  0.00  0.00    -0.082 Cl
ATOM     28  C   UNL     1      -1.058  -1.137  25.782  0.00  0.00    +0.011 A 
ATOM     29  C   UNL     1      -1.375  -0.407  25.565  0.00  0.00    -0.002 A 
ENDBRANCH  22  23
ENDBRANCH  21  22
TORSDOF 7
ENDMDL
