REMARK  Name = 
REMARK  7 active torsions:
REMARK  status: ('A' for Active; 'I' for Inactive)
REMARK    1  A    between atoms: C_2  and  C_3
REMARK    2  A    between atoms: C_3  and  C_4
REMARK    3  A    between atoms: N_6  and  C_7
REMARK    4  A    between atoms: C_7  and  C_8
REMARK    5  A    between atoms: C_15  and  C_16
REMARK    6  A    between atoms: N_18  and  C_19
REMARK    7  A    between atoms: C_19  and  C_20
REMARK                            x       y       z     vdW  Elec       q    Type
REMARK                         _______ _______ _______ _____ _____    ______ ____
ROOT
ATOM      8  C   UNL     1       1.814  -2.106   0.000  0.00  0.00    +0.082 C 
ATOM      9  C   UNL     1       1.661  -1.343   0.000  0.00  0.00    +0.019 C 
ATOM     10  C   UNL     1       0.923  -1.010   0.000  0.00  0.00    +0.013 C 
ATOM     11  C   UNL     1       0.961  -0.114   0.000  0.00  0.00    +0.018 C 
ATOM     12  C   UNL     1       1.205  -0.720   0.000  0.00  0.00    +0.072 C 
ATOM     13  N   UNL     1       1.065  -1.759   0.000  0.00  0.00    -0.272 NA
ATOM     14  C   UNL     1       0.226  -2.118   0.000  0.00  0.00    +0.081 C 
ATOM     15  C   UNL     1       0.119  -1.362   0.000  0.00  0.00    +0.094 C 
ENDROOT
BRANCH  15  16
ATOM     16  C   UNL     1      -0.602  -0.960   0.000  0.00  0.00    +0.243 C 
ATOM     17  O   UNL     1      -1.310  -1.384   0.000  0.00  0.00    -0.273 OA
ATOM     18  N   UNL     1      -0.614  -0.136   0.000  0.00  0.00    -0.200 NA
BRANCH  18  19
ATOM     19  C   UNL     1      -1.335   0.266   0.000  0.00  0.00    +0.143 C 
BRANCH  19  20
ATOM     20  C   UNL     1      -1.347   1.091   0.000  0.00  0.00    +0.019 A 
ATOM     21  C   UNL     1      -2.067   1.493   0.000  0.00  0.00    +0.001 A 
ATOM     22  C   UNL     1      -2.080   2.318   0.000  0.00  0.00    +0.020 A 
ATOM     23  C   UNL     1      -1.372   2.741   0.000  0.00  0.00    +0.099 A 
ATOM     24  N   UNL     1      -0.651   2.339   0.000  0.00  0.00    -0.243 NA
ATOM     25  C   UNL     1      -0.639   1.514   0.000  0.00  0.00    +0.096 A 
ENDBRANCH  19  20
ENDBRANCH  18  19
ENDBRANCH  15  16
BRANCH   8   7
ATOM      7  C   UNL     1       2.324  -2.754   0.000  0.00  0.00    +0.145 C 
BRANCH   7   6
ATOM      4  C   UNL     1       4.456  -2.862   0.000  0.00  0.00    +0.103 A 
ATOM      5  C   UNL     1       3.716  -3.227   0.000  0.00  0.00    +0.113 A 
ATOM      6  N   UNL     1       3.141  -2.636   0.000  0.00  0.00    -0.229 N 
ATOM     26  N   UNL     1       3.525  -1.906   0.000  0.00  0.00    -0.064 NA
ATOM     27  N   UNL     1       4.338  -2.046   0.000  0.00  0.00    -0.133 NA
BRANCH   4   3
ATOM      3  C   UNL     1       5.186  -3.247   0.000  0.00  0.00    +0.085 C 
BRANCH   3   2
ATOM      1  O   UNL     1       6.614  -3.191   0.000  0.00  0.00    -0.220 OA
ATOM      2  C   UNL     1       5.884  -2.807   0.000  0.00  0.00    +0.189 C 
ENDBRANCH   3   2
ENDBRANCH   4   3
ENDBRANCH   7   6
ENDBRANCH   8   7
TORSDOF 7
