REMARK  Name = 
REMARK  4 active torsions:
REMARK  status: ('A' for Active; 'I' for Inactive)
REMARK    1  A    between atoms: O_2  and  C_3
REMARK    2  A    between atoms: C_5  and  N_6
REMARK    3  A    between atoms: N_9  and  C_10
REMARK    4  A    between atoms: C_12  and  C_16
REMARK                            x       y       z     vdW  Elec       q    Type
REMARK                         _______ _______ _______ _____ _____    ______ ____
ROOT
ATOM      6  N   UNL     1      -2.143   6.766   0.000  0.00  0.00    -0.161 NA
ATOM      7  C   UNL     1      -2.143   5.941   0.000  0.00  0.00    +0.343 C 
ATOM      8  O   UNL     1      -2.858   5.529   0.000  0.00  0.00    -0.249 OA
ATOM      9  N   UNL     1      -1.429   5.529   0.000  0.00  0.00    -0.187 NA
ENDROOT
BRANCH   6   5
ATOM      3  C   UNL     1      -3.572   8.416   0.000  0.00  0.00    +0.140 A 
ATOM      4  C   UNL     1      -2.858   8.004   0.000  0.00  0.00    +0.054 A 
ATOM      5  C   UNL     1      -2.858   7.179   0.000  0.00  0.00    +0.078 A 
ATOM     22  C   UNL     1      -3.572   6.766   0.000  0.00  0.00    +0.017 A 
ATOM     23  C   UNL     1      -4.287   7.179   0.000  0.00  0.00    +0.004 A 
ATOM     24  C   UNL     1      -4.287   8.004   0.000  0.00  0.00    +0.037 A 
BRANCH   3   2
ATOM      1  C   UNL     1      -4.287   9.654   0.000  0.00  0.00    +0.252 C 
ATOM      2  O   UNL     1      -3.572   9.241   0.000  0.00  0.00    -0.471 OA
ENDBRANCH   3   2
ENDBRANCH   6   5
BRANCH   9  10
ATOM     10  C   UNL     1      -1.429   4.704   0.000  0.00  0.00    +0.115 C 
ATOM     11  C   UNL     1      -0.761   4.219   0.000  0.00  0.00    +0.049 C 
ATOM     12  C   UNL     1      -1.016   3.434   0.000  0.00  0.00    +0.139 C 
ATOM     13  N   UNL     1      -1.841   3.434   0.000  0.00  0.00    -0.264 NA
ATOM     14  C   UNL     1      -2.326   2.767   0.000  0.00  0.00    +0.090 C 
ATOM     15  C   UNL     1      -2.096   4.219   0.000  0.00  0.00    +0.094 C 
BRANCH  12  16
ATOM     16  C   UNL     1      -0.531   2.767   0.000  0.00  0.00    +0.251 A 
ATOM     17  N   UNL     1       0.293   2.767   0.000  0.00  0.00    -0.194 NA
ATOM     18  C   UNL     1       0.548   1.982   0.000  0.00  0.00    +0.181 A 
ATOM     19  C   UNL     1       1.333   1.727   0.000  0.00  0.00    +0.077 C 
ATOM     20  N   UNL     1      -0.119   1.497   0.000  0.00  0.00    -0.061 NA
ATOM     21  O   UNL     1      -0.786   1.982   0.000  0.00  0.00    -0.336 OA
ENDBRANCH  12  16
ENDBRANCH   9  10
TORSDOF 4
