REMARK  Name = 
REMARK  4 active torsions:
REMARK  status: ('A' for Active; 'I' for Inactive)
REMARK    1  A    between atoms: C_4  and  C_8
REMARK    2  A    between atoms: C_14  and  C_16
REMARK    3  A    between atoms: N_18  and  C_19
REMARK    4  A    between atoms: C_26  and  C_28
REMARK                            x       y       z     vdW  Elec       q    Type
REMARK                         _______ _______ _______ _____ _____    ______ ____
ROOT
ATOM      8  C   UNL     1      -2.143  -2.888   0.000  0.00  0.00    +0.249 C 
ATOM      9  O   UNL     1      -2.143  -3.712   0.000  0.00  0.00    -0.270 OA
ATOM     10  N   UNL     1      -1.429  -2.475   0.000  0.00  0.00    -0.272 N 
ATOM     11  C   UNL     1      -1.429  -1.650   0.000  0.00  0.00    +0.115 C 
ATOM     12  C   UNL     1      -0.715  -1.238   0.000  0.00  0.00    +0.115 C 
ATOM     13  N   UNL     1       0.000  -1.650   0.000  0.00  0.00    -0.270 N 
ATOM     14  C   UNL     1       0.000  -2.475   0.000  0.00  0.00    +0.174 C 
ATOM     15  C   UNL     1      -0.715  -2.888   0.000  0.00  0.00    +0.123 C 
ATOM     26  C   UNL     1       0.715  -1.238   0.000  0.00  0.00    +0.226 C 
ATOM     27  O   UNL     1       1.429  -1.650   0.000  0.00  0.00    -0.275 OA
ENDROOT
BRANCH   8   4
ATOM      1  F   UNL     1      -3.572  -0.412   0.000  0.00  0.00    -0.204 F 
ATOM      2  C   UNL     1      -3.572  -1.238   0.000  0.00  0.00    +0.140 A 
ATOM      3  C   UNL     1      -2.858  -1.650   0.000  0.00  0.00    +0.034 A 
ATOM      4  C   UNL     1      -2.858  -2.475   0.000  0.00  0.00    +0.056 A 
ATOM      5  C   UNL     1      -3.572  -2.888   0.000  0.00  0.00    +0.005 A 
ATOM      6  C   UNL     1      -4.287  -2.475   0.000  0.00  0.00    +0.002 A 
ATOM      7  C   UNL     1      -4.287  -1.650   0.000  0.00  0.00    +0.030 A 
ENDBRANCH   8   4
BRANCH  26  28
ATOM     28  C   UNL     1       0.715  -0.412   0.000  0.00  0.00    +0.080 C 
ATOM     29  C   UNL     1       0.000   0.000   0.000  0.00  0.00    +0.028 C 
ATOM     30  C   UNL     1       0.000   0.825   0.000  0.00  0.00    +0.089 C 
ATOM     31  N   UNL     1       0.715   1.238   0.000  0.00  0.00    -0.218 NA
ATOM     32  C   UNL     1       1.429   0.825   0.000  0.00  0.00    +0.089 C 
ATOM     33  C   UNL     1       1.429   0.000   0.000  0.00  0.00    +0.028 C 
ENDBRANCH  26  28
BRANCH  14  16
ATOM     16  C   UNL     1       0.715  -2.888   0.000  0.00  0.00    +0.262 C 
ATOM     17  O   UNL     1       0.715  -3.712   0.000  0.00  0.00    -0.271 OA
ATOM     18  N   UNL     1       1.429  -2.475   0.000  0.00  0.00    -0.196 NA
BRANCH  18  19
ATOM     19  C   UNL     1       2.143  -2.888   0.000  0.00  0.00    +0.173 C 
ATOM     20  C   UNL     1       2.858  -2.475   0.000  0.00  0.00    +0.033 C 
ATOM     21  C   UNL     1       3.572  -2.888   0.000  0.00  0.00    +0.026 C 
ATOM     22  C   UNL     1       3.572  -3.712   0.000  0.00  0.00    +0.115 C 
ATOM     23  N   UNL     1       2.858  -4.125   0.000  0.00  0.00    -0.204 NA
ATOM     24  C   UNL     1       2.143  -3.712   0.000  0.00  0.00    +0.261 C 
ATOM     25  O   UNL     1       1.429  -4.125   0.000  0.00  0.00    -0.271 OA
ENDBRANCH  18  19
ENDBRANCH  14  16
TORSDOF 4
