REMARK  Name = 
REMARK  4 active torsions:
REMARK  status: ('A' for Active; 'I' for Inactive)
REMARK    1  A    between atoms: C_2  and  C_5
REMARK    2  A    between atoms: C_8  and  O_9
REMARK    3  A    between atoms: O_9  and  C_10
REMARK    4  A    between atoms: C_17  and  C_19
REMARK                            x       y       z     vdW  Elec       q    Type
REMARK                         _______ _______ _______ _____ _____    ______ ____
ROOT
ATOM     10  C   UNL     1       1.152   0.792   0.000  0.00  0.00    +0.215 C 
ATOM     11  C   UNL     1       0.851   1.560   0.000  0.00  0.00    +0.187 C 
ATOM     12  O   UNL     1       1.263   2.275   0.000  0.00  0.00    -0.348 OA
ATOM     13  C   UNL     1       2.079   2.397   0.000  0.00  0.00    +0.164 C 
ATOM     14  C   UNL     1       2.684   1.836   0.000  0.00  0.00    +0.126 C 
ATOM     15  N   UNL     1       2.622   1.014   0.000  0.00  0.00    -0.273 N 
ATOM     16  C   UNL     1       1.940   0.549   0.000  0.00  0.00    +0.139 C 
ATOM     17  C   UNL     1       3.337   0.601   0.000  0.00  0.00    +0.225 C 
ATOM     18  O   UNL     1       4.051   1.014   0.000  0.00  0.00    -0.275 OA
ENDROOT
BRANCH  17  19
ATOM     19  C   UNL     1       3.337  -0.224   0.000  0.00  0.00    +0.077 C 
ATOM     20  C   UNL     1       3.920  -0.807   0.000  0.00  0.00    +0.009 C 
ATOM     21  C   UNL     1       3.337  -1.391   0.000  0.00  0.00    +0.001 C 
ATOM     22  C   UNL     1       2.753  -0.807   0.000  0.00  0.00    +0.009 C 
ENDBRANCH  17  19
BRANCH  10   9
ATOM      9  O   UNL     1       0.591   0.187   0.000  0.00  0.00    -0.475 OA
BRANCH   9   8
ATOM      5  C   UNL     1      -1.822   0.738   0.000  0.00  0.00    +0.072 A 
ATOM      6  C   UNL     1      -1.261   1.343   0.000  0.00  0.00    +0.007 A 
ATOM      7  C   UNL     1      -0.457   1.159   0.000  0.00  0.00    +0.037 A 
ATOM      8  C   UNL     1      -0.213   0.371   0.000  0.00  0.00    +0.139 A 
ATOM     23  C   UNL     1      -0.775  -0.234   0.000  0.00  0.00    +0.037 A 
ATOM     24  C   UNL     1      -1.579  -0.050   0.000  0.00  0.00    +0.007 A 
BRANCH   5   2
ATOM      1  F   UNL     1      -3.431   1.105   0.000  0.00  0.00    -0.166 F 
ATOM      2  C   UNL     1      -2.626   0.922   0.000  0.00  0.00    +0.419 C 
ATOM      3  F   UNL     1      -2.810   0.117   0.000  0.00  0.00    -0.166 F 
ATOM      4  F   UNL     1      -2.443   1.726   0.000  0.00  0.00    -0.166 F 
ENDBRANCH   5   2
ENDBRANCH   9   8
ENDBRANCH  10   9
TORSDOF 4
