REMARK  Name = 
REMARK  8 active torsions:
REMARK  status: ('A' for Active; 'I' for Inactive)
REMARK    1  A    between atoms: C_2  and  C_4
REMARK    2  A    between atoms: C_4  and  C_5
REMARK    3  A    between atoms: C_4  and  N_12
REMARK    4  A    between atoms: C_5  and  C_6
REMARK    5  A    between atoms: C_13  and  C_15
REMARK    6  A    between atoms: C_17  and  N_28
REMARK    7  A    between atoms: C_21  and  C_23
REMARK    8  A    between atoms: N_31  and  C_32
REMARK                            x       y       z     vdW  Elec       q    Type
REMARK                         _______ _______ _______ _____ _____    ______ ____
ROOT
ATOM     15  C   UNL     1       6.324  -0.597   0.000  0.00  0.00    +0.155 C 
ATOM     16  C   UNL     1       7.038  -0.185   0.000  0.00  0.00    +0.051 C 
ATOM     17  C   UNL     1       7.753  -0.597   0.000  0.00  0.00    +0.101 C 
ATOM     18  C   UNL     1       7.753  -1.422   0.000  0.00  0.00    +0.043 C 
ATOM     19  C   UNL     1       7.038  -1.835   0.000  0.00  0.00    +0.096 C 
ATOM     20  N   UNL     1       6.324  -1.422   0.000  0.00  0.00    -0.272 N 
ATOM     21  C   UNL     1       5.609  -1.835   0.000  0.00  0.00    +0.242 C 
ATOM     22  O   UNL     1       4.895  -1.422   0.000  0.00  0.00    -0.273 OA
ENDROOT
BRANCH  21  23
ATOM     23  C   UNL     1       5.609  -2.660   0.000  0.00  0.00    +0.149 C 
ATOM     24  C   UNL     1       6.277  -3.145   0.000  0.00  0.00    +0.028 C 
ATOM     25  C   UNL     1       6.022  -3.929   0.000  0.00  0.00    +0.021 C 
ATOM     26  C   UNL     1       5.197  -3.929   0.000  0.00  0.00    +0.089 C 
ATOM     27  N   UNL     1       4.942  -3.145   0.000  0.00  0.00    -0.210 NA
ENDBRANCH  21  23
BRANCH  17  28
ATOM     28  N   UNL     1       8.467  -0.185   0.000  0.00  0.00    -0.189 NA
ATOM     29  C   UNL     1       9.181  -0.597   0.000  0.00  0.00    +0.343 C 
ATOM     30  O   UNL     1       9.181  -1.422   0.000  0.00  0.00    -0.249 OA
ATOM     31  N   UNL     1       9.896  -0.185   0.000  0.00  0.00    -0.161 NA
BRANCH  31  32
ATOM     32  C   UNL     1      10.610  -0.597   0.000  0.00  0.00    +0.077 A 
ATOM     33  C   UNL     1      11.325  -0.185   0.000  0.00  0.00    +0.017 A 
ATOM     34  C   UNL     1      12.039  -0.597   0.000  0.00  0.00    +0.004 A 
ATOM     35  C   UNL     1      12.039  -1.422   0.000  0.00  0.00    +0.030 A 
ATOM     36  C   UNL     1      11.325  -1.835   0.000  0.00  0.00    +0.141 A 
ATOM     37  F   UNL     1      11.325  -2.660   0.000  0.00  0.00    -0.204 F 
ATOM     38  C   UNL     1      10.610  -1.422   0.000  0.00  0.00    +0.046 A 
ENDBRANCH  31  32
ENDBRANCH  17  28
BRANCH  15  13
ATOM     12  N   UNL     1       4.895  -0.597   0.000  0.00  0.00    -0.196 NA
ATOM     13  C   UNL     1       5.609  -0.185   0.000  0.00  0.00    +0.260 C 
ATOM     14  O   UNL     1       5.609   0.640   0.000  0.00  0.00    -0.272 OA
BRANCH  12   4
ATOM      4  C   UNL     1       4.180  -0.185   0.000  0.00  0.00    +0.174 C 
BRANCH   4   2
ATOM      1  N   UNL     1       4.895   1.053   0.000  0.00  0.00    -0.086 NA
ATOM      2  C   UNL     1       4.180   0.640   0.000  0.00  0.00    +0.281 C 
ATOM      3  O   UNL     1       3.466   1.053   0.000  0.00  0.00    -0.270 OA
ENDBRANCH   4   2
BRANCH   4   5
ATOM      5  C   UNL     1       3.466  -0.597   0.000  0.00  0.00    +0.031 C 
BRANCH   5   6
ATOM      6  C   UNL     1       2.751  -0.185   0.000  0.00  0.00    +0.002 C 
ATOM      7  C   UNL     1       2.037  -0.597   0.000  0.00  0.00    +0.000 C 
ATOM      8  C   UNL     1       1.322  -0.185   0.000  0.00  0.00    +0.000 C 
ATOM      9  C   UNL     1       1.322   0.640   0.000  0.00  0.00    +0.000 C 
ATOM     10  C   UNL     1       2.037   1.053   0.000  0.00  0.00    +0.000 C 
ATOM     11  C   UNL     1       2.751   0.640   0.000  0.00  0.00    +0.000 C 
ENDBRANCH   5   6
ENDBRANCH   4   5
ENDBRANCH  12   4
ENDBRANCH  15  13
TORSDOF 8
