MODEL 1
REMARK VINA RESULT:      -9.5      0.000      0.000
REMARK  Name = 
REMARK  12 active torsions:
REMARK  status: ('A' for Active; 'I' for Inactive)
REMARK    1  A    between atoms: C_5  and  S_7
REMARK    2  A    between atoms: S_7  and  N_10
REMARK    3  A    between atoms: N_10  and  C_11
REMARK    4  A    between atoms: C_15  and  C_17
REMARK    5  A    between atoms: N_19  and  C_20
REMARK    6  A    between atoms: C_20  and  C_21
REMARK    7  A    between atoms: C_20  and  C_28
REMARK    8  A    between atoms: C_21  and  C_22
REMARK    9  A    between atoms: C_31  and  C_33
REMARK   10  A    between atoms: C_33  and  S_34
REMARK   11  A    between atoms: S_34  and  C_35
REMARK   12  A    between atoms: C_35  and  C_36
REMARK                            x       y       z     vdW  Elec       q    Type
REMARK                         _______ _______ _______ _____ _____    ______ ____
ROOT
ATOM     11  C   UNL     1      -1.378   2.998  25.508  0.00  0.00    +0.102 C 
ATOM     12  C   UNL     1      -0.773   3.428  25.147  0.00  0.00    +0.041 C 
ATOM     13  C   UNL     1      -0.211   3.041  24.685  0.00  0.00    +0.095 C 
ATOM     14  N   UNL     1      -0.253   2.222  24.582  0.00  0.00    -0.272 N 
ATOM     15  C   UNL     1      -0.858   1.792  24.943  0.00  0.00    +0.155 C 
ATOM     16  C   UNL     1      -1.420   2.181  25.405  0.00  0.00    +0.049 C 
ATOM     31  C   UNL     1       0.310   1.835  24.120  0.00  0.00    +0.237 C 
ATOM     32  O   UNL     1       0.914   2.264  23.760  0.00  0.00    -0.274 OA
ENDROOT
BRANCH  15  17
ATOM     17  C   UNL     1      -0.900   0.975  24.840  0.00  0.00    +0.260 C 
ATOM     18  O   UNL     1      -0.315   0.583  24.408  0.00  0.00    -0.272 OA
ATOM     19  N   UNL     1      -1.524   0.549  25.169  0.00  0.00    -0.196 NA
BRANCH  19  20
ATOM     20  C   UNL     1      -1.566  -0.268  25.066  0.00  0.00    +0.179 C 
BRANCH  20  28
ATOM     28  C   UNL     1      -1.242  -0.773  25.635  0.00  0.00    +0.281 C 
ATOM     29  N   UNL     1      -0.795  -1.425  25.400  0.00  0.00    -0.086 NA
ATOM     30  O   UNL     1      -1.366  -0.624  26.436  0.00  0.00    -0.270 OA
ENDBRANCH  20  28
BRANCH  20  21
ATOM     21  C   UNL     1      -1.930  -0.583  24.396  0.00  0.00    +0.057 C 
BRANCH  21  22
ATOM     22  C   UNL     1      -2.742  -0.721  24.394  0.00  0.00    -0.020 A 
ATOM     23  C   UNL     1      -3.268  -0.096  24.273  0.00  0.00    -0.004 A 
ATOM     24  C   UNL     1      -4.080  -0.234  24.271  0.00  0.00    -0.000 A 
ATOM     25  C   UNL     1      -4.369  -0.999  24.390  0.00  0.00    -0.000 A 
ATOM     26  C   UNL     1      -3.845  -1.624  24.510  0.00  0.00    -0.000 A 
ATOM     27  C   UNL     1      -3.031  -1.486  24.512  0.00  0.00    -0.004 A 
ENDBRANCH  21  22
ENDBRANCH  20  21
ENDBRANCH  19  20
ENDBRANCH  15  17
BRANCH  11  10
ATOM     10  N   UNL     1      -1.940   3.385  25.970  0.00  0.00    -0.078 NA
BRANCH  10   7
ATOM      7  S   UNL     1      -2.709   3.486  25.687  0.00  0.00    +0.095 S 
ATOM      8  O   UNL     1      -2.966   2.864  26.164  0.00  0.00    -0.150 OA
ATOM      9  O   UNL     1      -2.451   4.108  25.210  0.00  0.00    -0.150 OA
BRANCH   7   5
ATOM      1  C   UNL     1      -5.609   3.530  25.522  0.00  0.00    +0.132 C 
ATOM      2  N   UNL     1      -4.810   3.608  25.329  0.00  0.00    -0.305 N 
ATOM      3  C   UNL     1      -4.510   3.882  24.611  0.00  0.00    +0.180 A 
ATOM      4  N   UNL     1      -3.686   3.870  24.658  0.00  0.00    -0.204 NA
ATOM      5  C   UNL     1      -3.477   3.589  25.404  0.00  0.00    +0.223 A 
ATOM      6  C   UNL     1      -4.172   3.427  25.819  0.00  0.00    +0.117 A 
ENDBRANCH   7   5
ENDBRANCH  10   7
ENDBRANCH  11  10
BRANCH  31  33
ATOM     33  C   UNL     1       0.267   1.017  24.018  0.00  0.00    +0.143 C 
BRANCH  33  34
ATOM     34  S   UNL     1       0.585   0.670  23.341  0.00  0.00    -0.119 S 
BRANCH  34  35
ATOM     35  C   UNL     1       1.313   0.282  23.379  0.00  0.00    +0.172 C 
BRANCH  35  36
ATOM     36  C   UNL     1       1.621  -0.083  22.707  0.00  0.00    +0.376 C 
ATOM     37  O   UNL     1       1.115  -0.436  22.160  0.00  0.00    -0.245 OA
ATOM     38  O   UNL     1       2.437  -0.096  22.581  0.00  0.00    -0.245 OA
ENDBRANCH  35  36
ENDBRANCH  34  35
ENDBRANCH  33  34
ENDBRANCH  31  33
TORSDOF 12
ENDMDL
MODEL 2
REMARK VINA RESULT:      -9.4      1.956      4.311
REMARK  Name = 
REMARK  12 active torsions:
REMARK  status: ('A' for Active; 'I' for Inactive)
REMARK    1  A    between atoms: C_5  and  S_7
REMARK    2  A    between atoms: S_7  and  N_10
REMARK    3  A    between atoms: N_10  and  C_11
REMARK    4  A    between atoms: C_15  and  C_17
REMARK    5  A    between atoms: N_19  and  C_20
REMARK    6  A    between atoms: C_20  and  C_21
REMARK    7  A    between atoms: C_20  and  C_28
REMARK    8  A    between atoms: C_21  and  C_22
REMARK    9  A    between atoms: C_31  and  C_33
REMARK   10  A    between atoms: C_33  and  S_34
REMARK   11  A    between atoms: S_34  and  C_35
REMARK   12  A    between atoms: C_35  and  C_36
REMARK                            x       y       z     vdW  Elec       q    Type
REMARK                         _______ _______ _______ _____ _____    ______ ____
ROOT
ATOM     11  C   UNL     1      -1.060   0.099  25.222  0.00  0.00    +0.102 C 
ATOM     12  C   UNL     1      -0.505   0.400  25.754  0.00  0.00    +0.041 C 
ATOM     13  C   UNL     1      -0.435   1.214  25.862  0.00  0.00    +0.095 C 
ATOM     14  N   UNL     1      -0.921   1.729  25.437  0.00  0.00    -0.272 N 
ATOM     15  C   UNL     1      -1.476   1.429  24.905  0.00  0.00    +0.155 C 
ATOM     16  C   UNL     1      -1.544   0.614  24.798  0.00  0.00    +0.049 C 
ATOM     31  C   UNL     1      -0.852   2.545  25.544  0.00  0.00    +0.237 C 
ATOM     32  O   UNL     1      -0.298   2.845  26.076  0.00  0.00    -0.274 OA
ENDROOT
BRANCH  15  17
ATOM     17  C   UNL     1      -1.961   1.945  24.480  0.00  0.00    +0.260 C 
ATOM     18  O   UNL     1      -1.654   2.654  24.190  0.00  0.00    -0.272 OA
ATOM     19  N   UNL     1      -2.751   1.752  24.347  0.00  0.00    -0.196 NA
BRANCH  19  20
ATOM     20  C   UNL     1      -3.235   2.267  23.923  0.00  0.00    +0.179 C 
BRANCH  20  28
ATOM     28  C   UNL     1      -3.210   2.272  23.097  0.00  0.00    +0.281 C 
ATOM     29  N   UNL     1      -3.322   2.978  22.686  0.00  0.00    -0.086 NA
ATOM     30  O   UNL     1      -3.072   1.571  22.685  0.00  0.00    -0.270 OA
ENDBRANCH  20  28
BRANCH  20  21
ATOM     21  C   UNL     1      -3.745   2.778  24.322  0.00  0.00    +0.057 C 
BRANCH  21  22
ATOM     22  C   UNL     1      -4.416   2.481  24.698  0.00  0.00    -0.020 A 
ATOM     23  C   UNL     1      -4.730   1.753  24.470  0.00  0.00    -0.004 A 
ATOM     24  C   UNL     1      -5.401   1.456  24.846  0.00  0.00    -0.000 A 
ATOM     25  C   UNL     1      -5.759   1.888  25.452  0.00  0.00    -0.000 A 
ATOM     26  C   UNL     1      -5.445   2.615  25.681  0.00  0.00    -0.000 A 
ATOM     27  C   UNL     1      -4.774   2.913  25.305  0.00  0.00    -0.004 A 
ENDBRANCH  21  22
ENDBRANCH  20  21
ENDBRANCH  19  20
ENDBRANCH  15  17
BRANCH  11  10
ATOM     10  N   UNL     1      -1.129  -0.715  25.115  0.00  0.00    -0.078 NA
BRANCH  10   7
ATOM      7  S   UNL     1      -1.875  -1.065  25.075  0.00  0.00    +0.095 S 
ATOM      8  O   UNL     1      -1.960  -0.977  25.891  0.00  0.00    -0.150 OA
ATOM      9  O   UNL     1      -1.789  -1.153  24.260  0.00  0.00    -0.150 OA
BRANCH   7   5
ATOM      1  C   UNL     1      -4.237  -2.422  24.068  0.00  0.00    +0.132 C 
ATOM      2  N   UNL     1      -3.706  -2.039  24.571  0.00  0.00    -0.305 N 
ATOM      3  C   UNL     1      -3.831  -1.869  25.368  0.00  0.00    +0.180 A 
ATOM      4  N   UNL     1      -3.160  -1.483  25.654  0.00  0.00    -0.204 NA
ATOM      5  C   UNL     1      -2.621  -1.415  25.034  0.00  0.00    +0.223 A 
ATOM      6  C   UNL     1      -2.959  -1.759  24.364  0.00  0.00    +0.117 A 
ENDBRANCH   7   5
ENDBRANCH  10   7
ENDBRANCH  11  10
BRANCH  31  33
ATOM     33  C   UNL     1      -1.337   3.059  25.120  0.00  0.00    +0.143 C 
BRANCH  33  34
ATOM     34  S   UNL     1      -1.087   3.831  24.969  0.00  0.00    -0.119 S 
BRANCH  34  35
ATOM     35  C   UNL     1      -1.386   4.456  25.418  0.00  0.00    +0.172 C 
BRANCH  35  36
ATOM     36  C   UNL     1      -1.341   5.228  25.130  0.00  0.00    +0.376 C 
ATOM     37  O   UNL     1      -1.996   5.725  25.178  0.00  0.00    -0.245 OA
ATOM     38  O   UNL     1      -0.638   5.502  24.794  0.00  0.00    -0.245 OA
ENDBRANCH  35  36
ENDBRANCH  34  35
ENDBRANCH  33  34
ENDBRANCH  31  33
TORSDOF 12
ENDMDL
MODEL 3
REMARK VINA RESULT:      -8.7      1.577      3.382
REMARK  Name = 
REMARK  12 active torsions:
REMARK  status: ('A' for Active; 'I' for Inactive)
REMARK    1  A    between atoms: C_5  and  S_7
REMARK    2  A    between atoms: S_7  and  N_10
REMARK    3  A    between atoms: N_10  and  C_11
REMARK    4  A    between atoms: C_15  and  C_17
REMARK    5  A    between atoms: N_19  and  C_20
REMARK    6  A    between atoms: C_20  and  C_21
REMARK    7  A    between atoms: C_20  and  C_28
REMARK    8  A    between atoms: C_21  and  C_22
REMARK    9  A    between atoms: C_31  and  C_33
REMARK   10  A    between atoms: C_33  and  S_34
REMARK   11  A    between atoms: S_34  and  C_35
REMARK   12  A    between atoms: C_35  and  C_36
REMARK                            x       y       z     vdW  Elec       q    Type
REMARK                         _______ _______ _______ _____ _____    ______ ____
ROOT
ATOM     11  C   UNL     1      -2.680  -0.152  25.037  0.00  0.00    +0.102 C 
ATOM     12  C   UNL     1      -2.468  -0.832  24.619  0.00  0.00    +0.041 C 
ATOM     13  C   UNL     1      -1.735  -0.873  24.243  0.00  0.00    +0.095 C 
ATOM     14  N   UNL     1      -1.214  -0.234  24.284  0.00  0.00    -0.272 N 
ATOM     15  C   UNL     1      -1.426   0.445  24.702  0.00  0.00    +0.155 C 
ATOM     16  C   UNL     1      -2.160   0.485  25.078  0.00  0.00    +0.049 C 
ATOM     31  C   UNL     1      -0.480  -0.275  23.908  0.00  0.00    +0.237 C 
ATOM     32  O   UNL     1      -0.268  -0.953  23.491  0.00  0.00    -0.274 OA
ENDROOT
BRANCH  15  17
ATOM     17  C   UNL     1      -0.905   1.084  24.742  0.00  0.00    +0.260 C 
ATOM     18  O   UNL     1      -0.263   1.126  24.224  0.00  0.00    -0.272 OA
ATOM     19  N   UNL     1      -1.024   1.679  25.300  0.00  0.00    -0.196 NA
BRANCH  19  20
ATOM     20  C   UNL     1      -0.503   2.317  25.340  0.00  0.00    +0.179 C 
BRANCH  20  28
ATOM     28  C   UNL     1       0.053   2.357  25.949  0.00  0.00    +0.281 C 
ATOM     29  N   UNL     1      -0.172   2.190  26.725  0.00  0.00    -0.086 NA
ATOM     30  O   UNL     1       0.834   2.564  25.781  0.00  0.00    -0.270 OA
ENDBRANCH  20  28
BRANCH  20  21
ATOM     21  C   UNL     1      -0.537   2.915  24.773  0.00  0.00    +0.057 C 
BRANCH  21  22
ATOM     22  C   UNL     1      -0.947   3.612  24.932  0.00  0.00    -0.020 A 
ATOM     23  C   UNL     1      -1.720   3.581  25.218  0.00  0.00    -0.004 A 
ATOM     24  C   UNL     1      -2.130   4.279  25.377  0.00  0.00    -0.000 A 
ATOM     25  C   UNL     1      -1.766   5.009  25.250  0.00  0.00    -0.000 A 
ATOM     26  C   UNL     1      -0.993   5.041  24.965  0.00  0.00    -0.000 A 
ATOM     27  C   UNL     1      -0.583   4.343  24.805  0.00  0.00    -0.004 A 
ENDBRANCH  21  22
ENDBRANCH  20  21
ENDBRANCH  19  20
ENDBRANCH  15  17
BRANCH  11  10
ATOM     10  N   UNL     1      -3.413  -0.112  25.412  0.00  0.00    -0.078 NA
BRANCH  10   7
ATOM      7  S   UNL     1      -3.967   0.453  25.178  0.00  0.00    +0.095 S 
ATOM      8  O   UNL     1      -4.170  -0.015  24.530  0.00  0.00    -0.150 OA
ATOM      9  O   UNL     1      -3.763   0.920  25.827  0.00  0.00    -0.150 OA
BRANCH   7   5
ATOM      1  C   UNL     1      -6.386   2.054  25.034  0.00  0.00    +0.132 C 
ATOM      2  N   UNL     1      -5.633   1.754  24.879  0.00  0.00    -0.305 N 
ATOM      3  C   UNL     1      -5.115   2.021  24.296  0.00  0.00    +0.180 A 
ATOM      4  N   UNL     1      -4.428   1.567  24.336  0.00  0.00    -0.204 NA
ATOM      5  C   UNL     1      -4.521   1.018  24.945  0.00  0.00    +0.223 A 
ATOM      6  C   UNL     1      -5.266   1.134  25.281  0.00  0.00    +0.117 A 
ENDBRANCH   7   5
ENDBRANCH  10   7
ENDBRANCH  11  10
BRANCH  31  33
ATOM     33  C   UNL     1       0.040   0.364  23.949  0.00  0.00    +0.143 C 
BRANCH  33  34
ATOM     34  S   UNL     1       0.619   0.461  23.370  0.00  0.00    -0.119 S 
BRANCH  34  35
ATOM     35  C   UNL     1       1.380   0.166  23.494  0.00  0.00    +0.172 C 
BRANCH  35  36
ATOM     36  C   UNL     1       2.007   0.436  23.031  0.00  0.00    +0.376 C 
ATOM     37  O   UNL     1       2.194   0.052  22.327  0.00  0.00    -0.245 OA
ATOM     38  O   UNL     1       2.447   1.091  23.275  0.00  0.00    -0.245 OA
ENDBRANCH  35  36
ENDBRANCH  34  35
ENDBRANCH  33  34
ENDBRANCH  31  33
TORSDOF 12
ENDMDL
MODEL 4
REMARK VINA RESULT:      -8.6      1.871      5.587
REMARK  Name = 
REMARK  12 active torsions:
REMARK  status: ('A' for Active; 'I' for Inactive)
REMARK    1  A    between atoms: C_5  and  S_7
REMARK    2  A    between atoms: S_7  and  N_10
REMARK    3  A    between atoms: N_10  and  C_11
REMARK    4  A    between atoms: C_15  and  C_17
REMARK    5  A    between atoms: N_19  and  C_20
REMARK    6  A    between atoms: C_20  and  C_21
REMARK    7  A    between atoms: C_20  and  C_28
REMARK    8  A    between atoms: C_21  and  C_22
REMARK    9  A    between atoms: C_31  and  C_33
REMARK   10  A    between atoms: C_33  and  S_34
REMARK   11  A    between atoms: S_34  and  C_35
REMARK   12  A    between atoms: C_35  and  C_36
REMARK                            x       y       z     vdW  Elec       q    Type
REMARK                         _______ _______ _______ _____ _____    ______ ____
ROOT
ATOM     11  C   UNL     1      -1.351  -0.222  25.075  0.00  0.00    +0.102 C 
ATOM     12  C   UNL     1      -1.859  -0.861  25.190  0.00  0.00    +0.041 C 
ATOM     13  C   UNL     1      -2.676  -0.742  25.203  0.00  0.00    +0.095 C 
ATOM     14  N   UNL     1      -2.983   0.017  25.101  0.00  0.00    -0.272 N 
ATOM     15  C   UNL     1      -2.474   0.656  24.985  0.00  0.00    +0.155 C 
ATOM     16  C   UNL     1      -1.658   0.536  24.972  0.00  0.00    +0.049 C 
ATOM     31  C   UNL     1      -3.800   0.137  25.114  0.00  0.00    +0.237 C 
ATOM     32  O   UNL     1      -4.308  -0.502  25.229  0.00  0.00    -0.274 OA
ENDROOT
BRANCH  15  17
ATOM     17  C   UNL     1      -2.782   1.415  24.883  0.00  0.00    +0.260 C 
ATOM     18  O   UNL     1      -3.513   1.611  25.214  0.00  0.00    -0.272 OA
ATOM     19  N   UNL     1      -2.362   1.976  24.450  0.00  0.00    -0.196 NA
BRANCH  19  20
ATOM     20  C   UNL     1      -2.670   2.734  24.348  0.00  0.00    +0.179 C 
BRANCH  20  28
ATOM     28  C   UNL     1      -3.001   2.951  23.622  0.00  0.00    +0.281 C 
ATOM     29  N   UNL     1      -2.654   2.695  22.919  0.00  0.00    -0.086 NA
ATOM     30  O   UNL     1      -3.677   3.422  23.602  0.00  0.00    -0.270 OA
ENDBRANCH  20  28
BRANCH  20  21
ATOM     21  C   UNL     1      -2.649   3.276  24.969  0.00  0.00    +0.057 C 
BRANCH  21  22
ATOM     22  C   UNL     1      -2.045   3.837  25.008  0.00  0.00    -0.020 A 
ATOM     23  C   UNL     1      -1.258   3.602  24.932  0.00  0.00    -0.004 A 
ATOM     24  C   UNL     1      -0.655   4.163  24.970  0.00  0.00    -0.000 A 
ATOM     25  C   UNL     1      -0.838   4.960  25.085  0.00  0.00    -0.000 A 
ATOM     26  C   UNL     1      -1.625   5.195  25.162  0.00  0.00    -0.000 A 
ATOM     27  C   UNL     1      -2.229   4.634  25.123  0.00  0.00    -0.004 A 
ENDBRANCH  21  22
ENDBRANCH  20  21
ENDBRANCH  19  20
ENDBRANCH  15  17
BRANCH  11  10
ATOM     10  N   UNL     1      -0.535  -0.342  25.062  0.00  0.00    -0.078 NA
BRANCH  10   7
ATOM      7  S   UNL     1      -0.124  -0.311  24.347  0.00  0.00    +0.095 S 
ATOM      8  O   UNL     1       0.116   0.459  24.518  0.00  0.00    -0.150 OA
ATOM      9  O   UNL     1      -0.365  -1.082  24.177  0.00  0.00    -0.150 OA
BRANCH   7   5
ATOM      1  C   UNL     1       1.998   0.023  22.392  0.00  0.00    +0.132 C 
ATOM      2  N   UNL     1       1.262  -0.128  22.734  0.00  0.00    -0.305 N 
ATOM      3  C   UNL     1       0.577  -0.345  22.331  0.00  0.00    +0.180 A 
ATOM      4  N   UNL     1      -0.027  -0.440  22.885  0.00  0.00    -0.204 NA
ATOM      5  C   UNL     1       0.286  -0.282  23.632  0.00  0.00    +0.223 A 
ATOM      6  C   UNL     1       1.083  -0.089  23.538  0.00  0.00    +0.117 A 
ENDBRANCH   7   5
ENDBRANCH  10   7
ENDBRANCH  11  10
BRANCH  31  33
ATOM     33  C   UNL     1      -4.107   0.895  25.011  0.00  0.00    +0.143 C 
BRANCH  33  34
ATOM     34  S   UNL     1      -4.834   1.094  25.346  0.00  0.00    -0.119 S 
BRANCH  34  35
ATOM     35  C   UNL     1      -5.500   1.180  24.866  0.00  0.00    +0.172 C 
BRANCH  35  36
ATOM     36  C   UNL     1      -6.137   1.637  25.122  0.00  0.00    +0.376 C 
ATOM     37  O   UNL     1      -6.225   1.808  25.924  0.00  0.00    -0.245 OA
ATOM     38  O   UNL     1      -6.686   1.922  24.576  0.00  0.00    -0.245 OA
ENDBRANCH  35  36
ENDBRANCH  34  35
ENDBRANCH  33  34
ENDBRANCH  31  33
TORSDOF 12
ENDMDL
MODEL 5
REMARK VINA RESULT:      -8.6      1.703      4.705
REMARK  Name = 
REMARK  12 active torsions:
REMARK  status: ('A' for Active; 'I' for Inactive)
REMARK    1  A    between atoms: C_5  and  S_7
REMARK    2  A    between atoms: S_7  and  N_10
REMARK    3  A    between atoms: N_10  and  C_11
REMARK    4  A    between atoms: C_15  and  C_17
REMARK    5  A    between atoms: N_19  and  C_20
REMARK    6  A    between atoms: C_20  and  C_21
REMARK    7  A    between atoms: C_20  and  C_28
REMARK    8  A    between atoms: C_21  and  C_22
REMARK    9  A    between atoms: C_31  and  C_33
REMARK   10  A    between atoms: C_33  and  S_34
REMARK   11  A    between atoms: S_34  and  C_35
REMARK   12  A    between atoms: C_35  and  C_36
REMARK                            x       y       z     vdW  Elec       q    Type
REMARK                         _______ _______ _______ _____ _____    ______ ____
ROOT
ATOM     11  C   UNL     1      -0.440   0.955  24.505  0.00  0.00    +0.102 C 
ATOM     12  C   UNL     1      -0.398   1.769  24.375  0.00  0.00    +0.041 C 
ATOM     13  C   UNL     1      -1.090   2.217  24.338  0.00  0.00    +0.095 C 
ATOM     14  N   UNL     1      -1.824   1.851  24.431  0.00  0.00    -0.272 N 
ATOM     15  C   UNL     1      -1.865   1.037  24.561  0.00  0.00    +0.155 C 
ATOM     16  C   UNL     1      -1.173   0.590  24.598  0.00  0.00    +0.049 C 
ATOM     31  C   UNL     1      -2.516   2.299  24.394  0.00  0.00    +0.237 C 
ATOM     32  O   UNL     1      -2.475   3.112  24.264  0.00  0.00    -0.274 OA
ENDROOT
BRANCH  15  17
ATOM     17  C   UNL     1      -2.600   0.672  24.653  0.00  0.00    +0.260 C 
ATOM     18  O   UNL     1      -3.290   1.074  24.443  0.00  0.00    -0.272 OA
ATOM     19  N   UNL     1      -2.644  -0.094  24.955  0.00  0.00    -0.196 NA
BRANCH  19  20
ATOM     20  C   UNL     1      -3.378  -0.458  25.048  0.00  0.00    +0.179 C 
BRANCH  20  28
ATOM     28  C   UNL     1      -3.710  -0.533  25.800  0.00  0.00    +0.281 C 
ATOM     29  N   UNL     1      -3.249  -0.804  26.429  0.00  0.00    -0.086 NA
ATOM     30  O   UNL     1      -4.501  -0.338  25.923  0.00  0.00    -0.270 OA
ENDBRANCH  20  28
BRANCH  20  21
ATOM     21  C   UNL     1      -3.781  -0.749  24.389  0.00  0.00    +0.057 C 
BRANCH  21  22
ATOM     22  C   UNL     1      -3.756  -1.553  24.210  0.00  0.00    -0.020 A 
ATOM     23  C   UNL     1      -3.076  -1.991  24.374  0.00  0.00    -0.004 A 
ATOM     24  C   UNL     1      -3.050  -2.796  24.195  0.00  0.00    -0.000 A 
ATOM     25  C   UNL     1      -3.706  -3.163  23.852  0.00  0.00    -0.000 A 
ATOM     26  C   UNL     1      -4.385  -2.726  23.688  0.00  0.00    -0.000 A 
ATOM     27  C   UNL     1      -4.411  -1.921  23.867  0.00  0.00    -0.004 A 
ENDBRANCH  21  22
ENDBRANCH  20  21
ENDBRANCH  19  20
ENDBRANCH  15  17
BRANCH  11  10
ATOM     10  N   UNL     1       0.252   0.508  24.542  0.00  0.00    -0.078 NA
BRANCH  10   7
ATOM      7  S   UNL     1       0.664   0.327  23.851  0.00  0.00    +0.095 S 
ATOM      8  O   UNL     1       1.005   1.079  23.857  0.00  0.00    -0.150 OA
ATOM      9  O   UNL     1       0.323  -0.424  23.845  0.00  0.00    -0.150 OA
BRANCH   7   5
ATOM      1  C   UNL     1       2.799   0.042  21.902  0.00  0.00    +0.132 C 
ATOM      2  N   UNL     1       2.058   0.014  22.264  0.00  0.00    -0.305 N 
ATOM      3  C   UNL     1       1.366  -0.284  21.930  0.00  0.00    +0.180 A 
ATOM      4  N   UNL     1       0.760  -0.203  22.483  0.00  0.00    -0.204 NA
ATOM      5  C   UNL     1       1.076   0.145  23.160  0.00  0.00    +0.223 A 
ATOM      6  C   UNL     1       1.880   0.279  23.025  0.00  0.00    +0.117 A 
ENDBRANCH   7   5
ENDBRANCH  10   7
ENDBRANCH  11  10
BRANCH  31  33
ATOM     33  C   UNL     1      -3.249   1.933  24.486  0.00  0.00    +0.143 C 
BRANCH  33  34
ATOM     34  S   UNL     1      -3.942   2.371  24.397  0.00  0.00    -0.119 S 
BRANCH  34  35
ATOM     35  C   UNL     1      -4.312   2.697  25.060  0.00  0.00    +0.172 C 
BRANCH  35  36
ATOM     36  C   UNL     1      -5.105   2.919  25.021  0.00  0.00    +0.376 C 
ATOM     37  O   UNL     1      -5.349   3.637  25.344  0.00  0.00    -0.245 OA
ATOM     38  O   UNL     1      -5.656   2.422  24.658  0.00  0.00    -0.245 OA
ENDBRANCH  35  36
ENDBRANCH  34  35
ENDBRANCH  33  34
ENDBRANCH  31  33
TORSDOF 12
ENDMDL
MODEL 6
REMARK VINA RESULT:      -8.6      1.840      3.712
REMARK  Name = 
REMARK  12 active torsions:
REMARK  status: ('A' for Active; 'I' for Inactive)
REMARK    1  A    between atoms: C_5  and  S_7
REMARK    2  A    between atoms: S_7  and  N_10
REMARK    3  A    between atoms: N_10  and  C_11
REMARK    4  A    between atoms: C_15  and  C_17
REMARK    5  A    between atoms: N_19  and  C_20
REMARK    6  A    between atoms: C_20  and  C_21
REMARK    7  A    between atoms: C_20  and  C_28
REMARK    8  A    between atoms: C_21  and  C_22
REMARK    9  A    between atoms: C_31  and  C_33
REMARK   10  A    between atoms: C_33  and  S_34
REMARK   11  A    between atoms: S_34  and  C_35
REMARK   12  A    between atoms: C_35  and  C_36
REMARK                            x       y       z     vdW  Elec       q    Type
REMARK                         _______ _______ _______ _____ _____    ______ ____
ROOT
ATOM     11  C   UNL     1      -4.578   0.762  24.733  0.00  0.00    +0.102 C 
ATOM     12  C   UNL     1      -4.706  -0.014  24.981  0.00  0.00    +0.041 C 
ATOM     13  C   UNL     1      -4.065  -0.495  25.179  0.00  0.00    +0.095 C 
ATOM     14  N   UNL     1      -3.296  -0.198  25.129  0.00  0.00    -0.272 N 
ATOM     15  C   UNL     1      -3.169   0.578  24.881  0.00  0.00    +0.155 C 
ATOM     16  C   UNL     1      -3.811   1.058  24.683  0.00  0.00    +0.049 C 
ATOM     31  C   UNL     1      -2.655  -0.679  25.327  0.00  0.00    +0.237 C 
ATOM     32  O   UNL     1      -2.782  -1.454  25.575  0.00  0.00    -0.274 OA
ENDROOT
BRANCH  15  17
ATOM     17  C   UNL     1      -2.400   0.874  24.831  0.00  0.00    +0.260 C 
ATOM     18  O   UNL     1      -1.769   0.435  25.134  0.00  0.00    -0.272 OA
ATOM     19  N   UNL     1      -2.262   1.607  24.479  0.00  0.00    -0.196 NA
BRANCH  19  20
ATOM     20  C   UNL     1      -1.493   1.902  24.430  0.00  0.00    +0.179 C 
BRANCH  20  28
ATOM     28  C   UNL     1      -1.056   1.801  23.736  0.00  0.00    +0.281 C 
ATOM     29  N   UNL     1      -1.429   1.857  23.002  0.00  0.00    -0.086 NA
ATOM     30  O   UNL     1      -0.248   1.643  23.778  0.00  0.00    -0.270 OA
ENDBRANCH  20  28
BRANCH  20  21
ATOM     21  C   UNL     1      -1.161   2.298  25.072  0.00  0.00    +0.057 C 
BRANCH  21  22
ATOM     22  C   UNL     1      -1.282   3.108  25.166  0.00  0.00    -0.020 A 
ATOM     23  C   UNL     1      -1.885   3.382  25.657  0.00  0.00    -0.004 A 
ATOM     24  C   UNL     1      -2.007   4.192  25.750  0.00  0.00    -0.000 A 
ATOM     25  C   UNL     1      -1.523   4.730  25.352  0.00  0.00    -0.000 A 
ATOM     26  C   UNL     1      -0.920   4.457  24.861  0.00  0.00    -0.000 A 
ATOM     27  C   UNL     1      -0.798   3.646  24.767  0.00  0.00    -0.004 A 
ENDBRANCH  21  22
ENDBRANCH  20  21
ENDBRANCH  19  20
ENDBRANCH  15  17
BRANCH  11  10
ATOM     10  N   UNL     1      -5.219   1.242  24.535  0.00  0.00    -0.078 NA
BRANCH  10   7
ATOM      7  S   UNL     1      -5.355   1.942  24.950  0.00  0.00    +0.095 S 
ATOM      8  O   UNL     1      -5.631   1.507  25.594  0.00  0.00    -0.150 OA
ATOM      9  O   UNL     1      -5.078   2.376  24.305  0.00  0.00    -0.150 OA
BRANCH   7   5
ATOM      1  C   UNL     1      -5.681   4.759  25.578  0.00  0.00    +0.132 C 
ATOM      2  N   UNL     1      -5.640   3.938  25.651  0.00  0.00    -0.305 N 
ATOM      3  C   UNL     1      -5.756   3.507  26.345  0.00  0.00    +0.180 A 
ATOM      4  N   UNL     1      -5.663   2.707  26.167  0.00  0.00    -0.204 NA
ATOM      5  C   UNL     1      -5.490   2.643  25.363  0.00  0.00    +0.223 A 
ATOM      6  C   UNL     1      -5.475   3.404  25.044  0.00  0.00    +0.117 A 
ENDBRANCH   7   5
ENDBRANCH  10   7
ENDBRANCH  11  10
BRANCH  31  33
ATOM     33  C   UNL     1      -1.887  -0.382  25.277  0.00  0.00    +0.143 C 
BRANCH  33  34
ATOM     34  S   UNL     1      -1.249  -0.848  25.514  0.00  0.00    -0.119 S 
BRANCH  34  35
ATOM     35  C   UNL     1      -0.934  -1.410  24.997  0.00  0.00    +0.172 C 
BRANCH  35  36
ATOM     36  C   UNL     1      -0.145  -1.638  25.069  0.00  0.00    +0.376 C 
ATOM     37  O   UNL     1       0.090  -2.120  25.694  0.00  0.00    -0.245 OA
ATOM     38  O   UNL     1       0.410  -1.383  24.512  0.00  0.00    -0.245 OA
ENDBRANCH  35  36
ENDBRANCH  34  35
ENDBRANCH  33  34
ENDBRANCH  31  33
TORSDOF 12
ENDMDL
MODEL 7
REMARK VINA RESULT:      -8.6      1.992      4.561
REMARK  Name = 
REMARK  12 active torsions:
REMARK  status: ('A' for Active; 'I' for Inactive)
REMARK    1  A    between atoms: C_5  and  S_7
REMARK    2  A    between atoms: S_7  and  N_10
REMARK    3  A    between atoms: N_10  and  C_11
REMARK    4  A    between atoms: C_15  and  C_17
REMARK    5  A    between atoms: N_19  and  C_20
REMARK    6  A    between atoms: C_20  and  C_21
REMARK    7  A    between atoms: C_20  and  C_28
REMARK    8  A    between atoms: C_21  and  C_22
REMARK    9  A    between atoms: C_31  and  C_33
REMARK   10  A    between atoms: C_33  and  S_34
REMARK   11  A    between atoms: S_34  and  C_35
REMARK   12  A    between atoms: C_35  and  C_36
REMARK                            x       y       z     vdW  Elec       q    Type
REMARK                         _______ _______ _______ _____ _____    ______ ____
ROOT
ATOM     11  C   UNL     1      -4.608   1.062  24.836  0.00  0.00    +0.102 C 
ATOM     12  C   UNL     1      -4.980   1.610  25.328  0.00  0.00    +0.041 C 
ATOM     13  C   UNL     1      -4.622   2.338  25.480  0.00  0.00    +0.095 C 
ATOM     14  N   UNL     1      -3.892   2.517  25.139  0.00  0.00    -0.272 N 
ATOM     15  C   UNL     1      -3.521   1.969  24.647  0.00  0.00    +0.155 C 
ATOM     16  C   UNL     1      -3.879   1.241  24.496  0.00  0.00    +0.049 C 
ATOM     31  C   UNL     1      -3.534   3.246  25.290  0.00  0.00    +0.237 C 
ATOM     32  O   UNL     1      -3.905   3.793  25.781  0.00  0.00    -0.274 OA
ENDROOT
BRANCH  15  17
ATOM     17  C   UNL     1      -2.791   2.149  24.306  0.00  0.00    +0.260 C 
ATOM     18  O   UNL     1      -2.522   2.930  24.296  0.00  0.00    -0.272 OA
ATOM     19  N   UNL     1      -2.330   1.551  23.976  0.00  0.00    -0.196 NA
BRANCH  19  20
ATOM     20  C   UNL     1      -1.601   1.731  23.636  0.00  0.00    +0.179 C 
BRANCH  20  28
ATOM     28  C   UNL     1      -1.568   2.037  22.870  0.00  0.00    +0.281 C 
ATOM     29  N   UNL     1      -2.079   1.750  22.289  0.00  0.00    -0.086 NA
ATOM     30  O   UNL     1      -1.023   2.628  22.685  0.00  0.00    -0.270 OA
ENDBRANCH  20  28
BRANCH  20  21
ATOM     21  C   UNL     1      -0.905   1.607  24.061  0.00  0.00    +0.057 C 
BRANCH  21  22
ATOM     22  C   UNL     1      -0.645   0.840  24.214  0.00  0.00    -0.020 A 
ATOM     23  C   UNL     1      -0.320   0.385  23.607  0.00  0.00    -0.004 A 
ATOM     24  C   UNL     1      -0.061  -0.383  23.760  0.00  0.00    -0.000 A 
ATOM     25  C   UNL     1      -0.126  -0.697  24.521  0.00  0.00    -0.000 A 
ATOM     26  C   UNL     1      -0.451  -0.242  25.128  0.00  0.00    -0.000 A 
ATOM     27  C   UNL     1      -0.711   0.526  24.975  0.00  0.00    -0.004 A 
ENDBRANCH  21  22
ENDBRANCH  20  21
ENDBRANCH  19  20
ENDBRANCH  15  17
BRANCH  11  10
ATOM     10  N   UNL     1      -4.966   0.334  24.685  0.00  0.00    -0.078 NA
BRANCH  10   7
ATOM      7  S   UNL     1      -4.544  -0.366  24.801  0.00  0.00    +0.095 S 
ATOM      8  O   UNL     1      -4.558  -0.240  25.616  0.00  0.00    -0.150 OA
ATOM      9  O   UNL     1      -4.531  -0.490  23.985  0.00  0.00    -0.150 OA
BRANCH   7   5
ATOM      1  C   UNL     1      -3.241  -2.915  24.313  0.00  0.00    +0.132 C 
ATOM      2  N   UNL     1      -3.524  -2.237  24.690  0.00  0.00    -0.305 N 
ATOM      3  C   UNL     1      -3.425  -2.049  25.486  0.00  0.00    +0.180 A 
ATOM      4  N   UNL     1      -3.795  -1.325  25.625  0.00  0.00    -0.204 NA
ATOM      5  C   UNL     1      -4.123  -1.065  24.915  0.00  0.00    +0.223 A 
ATOM      6  C   UNL     1      -3.955  -1.630  24.336  0.00  0.00    +0.117 A 
ENDBRANCH   7   5
ENDBRANCH  10   7
ENDBRANCH  11  10
BRANCH  31  33
ATOM     33  C   UNL     1      -2.805   3.425  24.949  0.00  0.00    +0.143 C 
BRANCH  33  34
ATOM     34  S   UNL     1      -2.537   4.205  24.937  0.00  0.00    -0.119 S 
BRANCH  34  35
ATOM     35  C   UNL     1      -1.908   4.432  25.422  0.00  0.00    +0.172 C 
BRANCH  35  36
ATOM     36  C   UNL     1      -1.436   5.074  25.211  0.00  0.00    +0.376 C 
ATOM     37  O   UNL     1      -1.745   5.838  25.230  0.00  0.00    -0.245 OA
ATOM     38  O   UNL     1      -0.653   4.951  24.979  0.00  0.00    -0.245 OA
ENDBRANCH  35  36
ENDBRANCH  34  35
ENDBRANCH  33  34
ENDBRANCH  31  33
TORSDOF 12
ENDMDL
MODEL 8
REMARK VINA RESULT:      -8.5      2.017      5.621
REMARK  Name = 
REMARK  12 active torsions:
REMARK  status: ('A' for Active; 'I' for Inactive)
REMARK    1  A    between atoms: C_5  and  S_7
REMARK    2  A    between atoms: S_7  and  N_10
REMARK    3  A    between atoms: N_10  and  C_11
REMARK    4  A    between atoms: C_15  and  C_17
REMARK    5  A    between atoms: N_19  and  C_20
REMARK    6  A    between atoms: C_20  and  C_21
REMARK    7  A    between atoms: C_20  and  C_28
REMARK    8  A    between atoms: C_21  and  C_22
REMARK    9  A    between atoms: C_31  and  C_33
REMARK   10  A    between atoms: C_33  and  S_34
REMARK   11  A    between atoms: S_34  and  C_35
REMARK   12  A    between atoms: C_35  and  C_36
REMARK                            x       y       z     vdW  Elec       q    Type
REMARK                         _______ _______ _______ _____ _____    ______ ____
ROOT
ATOM     11  C   UNL     1       0.725   0.283  23.189  0.00  0.00    +0.102 C 
ATOM     12  C   UNL     1       0.751  -0.523  23.366  0.00  0.00    +0.041 C 
ATOM     13  C   UNL     1       0.174  -0.857  23.852  0.00  0.00    +0.095 C 
ATOM     14  N   UNL     1      -0.430  -0.386  24.161  0.00  0.00    -0.272 N 
ATOM     15  C   UNL     1      -0.455   0.420  23.983  0.00  0.00    +0.155 C 
ATOM     16  C   UNL     1       0.122   0.753  23.498  0.00  0.00    +0.049 C 
ATOM     31  C   UNL     1      -1.007  -0.720  24.647  0.00  0.00    +0.237 C 
ATOM     32  O   UNL     1      -0.981  -1.525  24.824  0.00  0.00    -0.274 OA
ENDROOT
BRANCH  15  17
ATOM     17  C   UNL     1      -1.059   0.890  24.292  0.00  0.00    +0.260 C 
ATOM     18  O   UNL     1      -1.511   0.617  24.927  0.00  0.00    -0.272 OA
ATOM     19  N   UNL     1      -1.210   1.633  23.968  0.00  0.00    -0.196 NA
BRANCH  19  20
ATOM     20  C   UNL     1      -1.813   2.103  24.277  0.00  0.00    +0.179 C 
BRANCH  20  28
ATOM     28  C   UNL     1      -2.523   2.188  23.863  0.00  0.00    +0.281 C 
ATOM     29  N   UNL     1      -2.517   2.240  23.040  0.00  0.00    -0.086 NA
ATOM     30  O   UNL     1      -3.238   2.220  24.274  0.00  0.00    -0.270 OA
ENDBRANCH  20  28
BRANCH  20  21
ATOM     21  C   UNL     1      -1.708   2.488  24.999  0.00  0.00    +0.057 C 
BRANCH  21  22
ATOM     22  C   UNL     1      -1.488   3.282  25.014  0.00  0.00    -0.020 A 
ATOM     23  C   UNL     1      -1.997   3.847  25.335  0.00  0.00    -0.004 A 
ATOM     24  C   UNL     1      -1.777   4.641  25.351  0.00  0.00    -0.000 A 
ATOM     25  C   UNL     1      -1.045   4.872  25.045  0.00  0.00    -0.000 A 
ATOM     26  C   UNL     1      -0.535   4.309  24.725  0.00  0.00    -0.000 A 
ATOM     27  C   UNL     1      -0.756   3.514  24.709  0.00  0.00    -0.004 A 
ENDBRANCH  21  22
ENDBRANCH  20  21
ENDBRANCH  19  20
ENDBRANCH  15  17
BRANCH  11  10
ATOM     10  N   UNL     1       1.302   0.616  22.704  0.00  0.00    -0.078 NA
BRANCH  10   7
ATOM      7  S   UNL     1       2.098   0.436  22.824  0.00  0.00    +0.095 S 
ATOM      8  O   UNL     1       2.138   1.010  23.417  0.00  0.00    -0.150 OA
ATOM      9  O   UNL     1       2.056  -0.136  22.232  0.00  0.00    -0.150 OA
BRANCH   7   5
ATOM      1  C   UNL     1       4.967   0.706  23.189  0.00  0.00    +0.132 C 
ATOM      2  N   UNL     1       4.212   0.380  23.111  0.00  0.00    -0.305 N 
ATOM      3  C   UNL     1       4.026  -0.422  23.143  0.00  0.00    +0.180 A 
ATOM      4  N   UNL     1       3.211  -0.500  23.040  0.00  0.00    -0.204 NA
ATOM      5  C   UNL     1       2.894   0.255  22.944  0.00  0.00    +0.223 A 
ATOM      6  C   UNL     1       3.513   0.800  22.988  0.00  0.00    +0.117 A 
ENDBRANCH   7   5
ENDBRANCH  10   7
ENDBRANCH  11  10
BRANCH  31  33
ATOM     33  C   UNL     1      -1.610  -0.249  24.955  0.00  0.00    +0.143 C 
BRANCH  33  34
ATOM     34  S   UNL     1      -2.136  -0.563  25.507  0.00  0.00    -0.119 S 
BRANCH  34  35
ATOM     35  C   UNL     1      -2.840  -0.912  25.253  0.00  0.00    +0.172 C 
BRANCH  35  36
ATOM     36  C   UNL     1      -3.484  -0.961  25.766  0.00  0.00    +0.376 C 
ATOM     37  O   UNL     1      -4.168  -0.528  25.612  0.00  0.00    -0.245 OA
ATOM     38  O   UNL     1      -3.443  -1.444  26.434  0.00  0.00    -0.245 OA
ENDBRANCH  35  36
ENDBRANCH  34  35
ENDBRANCH  33  34
ENDBRANCH  31  33
TORSDOF 12
ENDMDL
MODEL 9
REMARK VINA RESULT:      -8.5      1.969      3.545
REMARK  Name = 
REMARK  12 active torsions:
REMARK  status: ('A' for Active; 'I' for Inactive)
REMARK    1  A    between atoms: C_5  and  S_7
REMARK    2  A    between atoms: S_7  and  N_10
REMARK    3  A    between atoms: N_10  and  C_11
REMARK    4  A    between atoms: C_15  and  C_17
REMARK    5  A    between atoms: N_19  and  C_20
REMARK    6  A    between atoms: C_20  and  C_21
REMARK    7  A    between atoms: C_20  and  C_28
REMARK    8  A    between atoms: C_21  and  C_22
REMARK    9  A    between atoms: C_31  and  C_33
REMARK   10  A    between atoms: C_33  and  S_34
REMARK   11  A    between atoms: S_34  and  C_35
REMARK   12  A    between atoms: C_35  and  C_36
REMARK                            x       y       z     vdW  Elec       q    Type
REMARK                         _______ _______ _______ _____ _____    ______ ____
ROOT
ATOM     11  C   UNL     1      -0.566   1.650  25.533  0.00  0.00    +0.102 C 
ATOM     12  C   UNL     1      -0.292   1.044  26.020  0.00  0.00    +0.041 C 
ATOM     13  C   UNL     1      -0.667   0.309  26.016  0.00  0.00    +0.095 C 
ATOM     14  N   UNL     1      -1.317   0.181  25.524  0.00  0.00    -0.272 N 
ATOM     15  C   UNL     1      -1.591   0.787  25.036  0.00  0.00    +0.155 C 
ATOM     16  C   UNL     1      -1.215   1.522  25.041  0.00  0.00    +0.049 C 
ATOM     31  C   UNL     1      -1.692  -0.554  25.519  0.00  0.00    +0.237 C 
ATOM     32  O   UNL     1      -1.418  -1.160  26.007  0.00  0.00    -0.274 OA
ENDROOT
BRANCH  15  17
ATOM     17  C   UNL     1      -2.241   0.658  24.544  0.00  0.00    +0.260 C 
ATOM     18  O   UNL     1      -2.348  -0.079  24.187  0.00  0.00    -0.272 OA
ATOM     19  N   UNL     1      -2.783   1.264  24.408  0.00  0.00    -0.196 NA
BRANCH  19  20
ATOM     20  C   UNL     1      -3.432   1.135  23.916  0.00  0.00    +0.179 C 
BRANCH  20  28
ATOM     28  C   UNL     1      -3.340   1.163  23.096  0.00  0.00    +0.281 C 
ATOM     29  N   UNL     1      -2.945   1.798  22.747  0.00  0.00    -0.086 NA
ATOM     30  O   UNL     1      -3.643   0.557  22.627  0.00  0.00    -0.270 OA
ENDBRANCH  20  28
BRANCH  20  21
ATOM     21  C   UNL     1      -4.173   0.977  24.243  0.00  0.00    +0.057 C 
BRANCH  21  22
ATOM     22  C   UNL     1      -4.603   1.581  24.603  0.00  0.00    -0.020 A 
ATOM     23  C   UNL     1      -4.577   2.346  24.294  0.00  0.00    -0.004 A 
ATOM     24  C   UNL     1      -5.007   2.951  24.654  0.00  0.00    -0.000 A 
ATOM     25  C   UNL     1      -5.464   2.791  25.323  0.00  0.00    -0.000 A 
ATOM     26  C   UNL     1      -5.490   2.027  25.631  0.00  0.00    -0.000 A 
ATOM     27  C   UNL     1      -5.060   1.421  25.272  0.00  0.00    -0.004 A 
ENDBRANCH  21  22
ENDBRANCH  20  21
ENDBRANCH  19  20
ENDBRANCH  15  17
BRANCH  11  10
ATOM     10  N   UNL     1      -0.191   2.385  25.537  0.00  0.00    -0.078 NA
BRANCH  10   7
ATOM      7  S   UNL     1      -0.639   3.078  25.538  0.00  0.00    +0.095 S 
ATOM      8  O   UNL     1      -0.804   2.970  26.339  0.00  0.00    -0.150 OA
ATOM      9  O   UNL     1      -0.473   3.184  24.737  0.00  0.00    -0.150 OA
BRANCH   7   5
ATOM      1  C   UNL     1      -1.591   5.750  24.914  0.00  0.00    +0.132 C 
ATOM      2  N   UNL     1      -1.523   4.999  25.250  0.00  0.00    -0.305 N 
ATOM      3  C   UNL     1      -2.024   4.677  25.820  0.00  0.00    +0.180 A 
ATOM      4  N   UNL     1      -1.754   3.918  25.998  0.00  0.00    -0.204 NA
ATOM      5  C   UNL     1      -1.086   3.771  25.537  0.00  0.00    +0.223 A 
ATOM      6  C   UNL     1      -0.943   4.439  25.075  0.00  0.00    +0.117 A 
ENDBRANCH   7   5
ENDBRANCH  10   7
ENDBRANCH  11  10
BRANCH  31  33
ATOM     33  C   UNL     1      -2.341  -0.682  25.027  0.00  0.00    +0.143 C 
BRANCH  33  34
ATOM     34  S   UNL     1      -2.556  -1.451  24.820  0.00  0.00    -0.119 S 
BRANCH  34  35
ATOM     35  C   UNL     1      -3.236  -1.790  25.142  0.00  0.00    +0.172 C 
BRANCH  35  36
ATOM     36  C   UNL     1      -3.539  -2.488  24.824  0.00  0.00    +0.376 C 
ATOM     37  O   UNL     1      -3.956  -2.471  24.113  0.00  0.00    -0.245 OA
ATOM     38  O   UNL     1      -3.423  -3.205  25.217  0.00  0.00    -0.245 OA
ENDBRANCH  35  36
ENDBRANCH  34  35
ENDBRANCH  33  34
ENDBRANCH  31  33
TORSDOF 12
ENDMDL
MODEL 10
REMARK VINA RESULT:      -8.5      1.854      3.816
REMARK  Name = 
REMARK  12 active torsions:
REMARK  status: ('A' for Active; 'I' for Inactive)
REMARK    1  A    between atoms: C_5  and  S_7
REMARK    2  A    between atoms: S_7  and  N_10
REMARK    3  A    between atoms: N_10  and  C_11
REMARK    4  A    between atoms: C_15  and  C_17
REMARK    5  A    between atoms: N_19  and  C_20
REMARK    6  A    between atoms: C_20  and  C_21
REMARK    7  A    between atoms: C_20  and  C_28
REMARK    8  A    between atoms: C_21  and  C_22
REMARK    9  A    between atoms: C_31  and  C_33
REMARK   10  A    between atoms: C_33  and  S_34
REMARK   11  A    between atoms: S_34  and  C_35
REMARK   12  A    between atoms: C_35  and  C_36
REMARK                            x       y       z     vdW  Elec       q    Type
REMARK                         _______ _______ _______ _____ _____    ______ ____
ROOT
ATOM     11  C   UNL     1      -4.326   2.199  24.554  0.00  0.00    +0.102 C 
ATOM     12  C   UNL     1      -4.986   1.724  24.692  0.00  0.00    +0.041 C 
ATOM     13  C   UNL     1      -4.899   0.907  24.763  0.00  0.00    +0.095 C 
ATOM     14  N   UNL     1      -4.151   0.564  24.696  0.00  0.00    -0.272 N 
ATOM     15  C   UNL     1      -3.491   1.039  24.558  0.00  0.00    +0.155 C 
ATOM     16  C   UNL     1      -3.579   1.857  24.487  0.00  0.00    +0.049 C 
ATOM     31  C   UNL     1      -4.064  -0.254  24.767  0.00  0.00    +0.237 C 
ATOM     32  O   UNL     1      -4.723  -0.728  24.905  0.00  0.00    -0.274 OA
ENDROOT
BRANCH  15  17
ATOM     17  C   UNL     1      -2.743   0.696  24.491  0.00  0.00    +0.260 C 
ATOM     18  O   UNL     1      -2.655  -0.121  24.577  0.00  0.00    -0.272 OA
ATOM     19  N   UNL     1      -2.084   1.168  24.340  0.00  0.00    -0.196 NA
BRANCH  19  20
ATOM     20  C   UNL     1      -1.338   0.825  24.273  0.00  0.00    +0.179 C 
BRANCH  20  28
ATOM     28  C   UNL     1      -1.049   0.606  23.531  0.00  0.00    +0.281 C 
ATOM     29  N   UNL     1      -0.542  -0.042  23.461  0.00  0.00    -0.086 NA
ATOM     30  O   UNL     1      -1.267   1.034  22.861  0.00  0.00    -0.270 OA
ENDBRANCH  20  28
BRANCH  20  21
ATOM     21  C   UNL     1      -0.879   0.700  24.947  0.00  0.00    +0.057 C 
BRANCH  21  22
ATOM     22  C   UNL     1      -0.493   1.334  25.308  0.00  0.00    -0.020 A 
ATOM     23  C   UNL     1       0.000   1.824  24.864  0.00  0.00    -0.004 A 
ATOM     24  C   UNL     1       0.386   2.457  25.224  0.00  0.00    -0.000 A 
ATOM     25  C   UNL     1       0.277   2.602  26.030  0.00  0.00    -0.000 A 
ATOM     26  C   UNL     1      -0.216   2.113  26.474  0.00  0.00    -0.000 A 
ATOM     27  C   UNL     1      -0.602   1.478  26.114  0.00  0.00    -0.004 A 
ENDBRANCH  21  22
ENDBRANCH  20  21
ENDBRANCH  19  20
ENDBRANCH  15  17
BRANCH  11  10
ATOM     10  N   UNL     1      -4.413   3.015  24.483  0.00  0.00    -0.078 NA
BRANCH  10   7
ATOM      7  S   UNL     1      -3.871   3.522  24.843  0.00  0.00    +0.095 S 
ATOM      8  O   UNL     1      -4.226   3.383  25.574  0.00  0.00    -0.150 OA
ATOM      9  O   UNL     1      -3.516   3.661  24.111  0.00  0.00    -0.150 OA
BRANCH   7   5
ATOM      1  C   UNL     1      -1.695   5.405  25.239  0.00  0.00    +0.132 C 
ATOM      2  N   UNL     1      -2.328   4.895  25.383  0.00  0.00    -0.305 N 
ATOM      3  C   UNL     1      -2.655   4.725  26.120  0.00  0.00    +0.180 A 
ATOM      4  N   UNL     1      -3.273   4.190  26.008  0.00  0.00    -0.204 NA
ATOM      5  C   UNL     1      -3.328   4.029  25.201  0.00  0.00    +0.223 A 
ATOM      6  C   UNL     1      -2.743   4.465  24.814  0.00  0.00    +0.117 A 
ENDBRANCH   7   5
ENDBRANCH  10   7
ENDBRANCH  11  10
BRANCH  31  33
ATOM     33  C   UNL     1      -3.316  -0.595  24.700  0.00  0.00    +0.143 C 
BRANCH  33  34
ATOM     34  S   UNL     1      -3.197  -1.376  24.940  0.00  0.00    -0.119 S 
BRANCH  34  35
ATOM     35  C   UNL     1      -3.189  -1.982  24.379  0.00  0.00    +0.172 C 
BRANCH  35  36
ATOM     36  C   UNL     1      -2.879  -2.721  24.576  0.00  0.00    +0.376 C 
ATOM     37  O   UNL     1      -3.338  -3.263  24.993  0.00  0.00    -0.245 OA
ATOM     38  O   UNL     1      -2.108  -2.916  24.355  0.00  0.00    -0.245 OA
ENDBRANCH  35  36
ENDBRANCH  34  35
ENDBRANCH  33  34
ENDBRANCH  31  33
TORSDOF 12
ENDMDL
