REMARK  Name = 
REMARK  8 active torsions:
REMARK  status: ('A' for Active; 'I' for Inactive)
REMARK    1  A    between atoms: N_2  and  C_3
REMARK    2  A    between atoms: C_3  and  C_4
REMARK    3  A    between atoms: C_10  and  C_12
REMARK    4  A    between atoms: C_12  and  C_13
REMARK    5  A    between atoms: C_15  and  C_16
REMARK    6  A    between atoms: C_16  and  N_17
REMARK    7  A    between atoms: N_17  and  S_18
REMARK    8  A    between atoms: S_18  and  C_21
REMARK                            x       y       z     vdW  Elec       q    Type
REMARK                         _______ _______ _______ _____ _____    ______ ____
ROOT
ATOM     13  C   UNL     1       2.526  -7.071   0.000  0.00  0.00    +0.157 C 
ATOM     14  O   UNL     1       3.279  -6.735   0.000  0.00  0.00    -0.351 OA
ATOM     15  C   UNL     1       3.831  -7.348   0.000  0.00  0.00    +0.167 C 
ATOM     27  C   UNL     1       3.419  -8.063   0.000  0.00  0.00    +0.213 C 
ATOM     28  O   UNL     1       3.754  -8.816   0.000  0.00  0.00    -0.218 OA
ATOM     29  C   UNL     1       2.612  -7.891   0.000  0.00  0.00    +0.212 C 
ATOM     30  O   UNL     1       1.999  -8.443   0.000  0.00  0.00    -0.218 OA
ENDROOT
BRANCH  13  12
ATOM     12  C   UNL     1       1.811  -6.658   0.000  0.00  0.00    +0.117 C 
BRANCH  12  10
ATOM      1  C   UNL     1       0.382  -5.833   0.000  0.00  0.00    +0.115 C 
ATOM      2  N   UNL     1       0.382  -6.658   0.000  0.00  0.00    -0.274 N 
ATOM     10  C   UNL     1       1.097  -7.071   0.000  0.00  0.00    +0.228 C 
ATOM     11  O   UNL     1       1.097  -7.896   0.000  0.00  0.00    -0.275 OA
BRANCH   2   3
ATOM      3  C   UNL     1      -0.332  -7.071   0.000  0.00  0.00    +0.120 C 
BRANCH   3   4
ATOM      4  C   UNL     1      -1.047  -6.658   0.000  0.00  0.00    -0.002 A 
ATOM      5  C   UNL     1      -1.761  -7.071   0.000  0.00  0.00    -0.003 A 
ATOM      6  C   UNL     1      -2.476  -6.658   0.000  0.00  0.00    -0.000 A 
ATOM      7  C   UNL     1      -2.476  -5.833   0.000  0.00  0.00    -0.000 A 
ATOM      8  C   UNL     1      -1.761  -5.421   0.000  0.00  0.00    -0.000 A 
ATOM      9  C   UNL     1      -1.047  -5.833   0.000  0.00  0.00    -0.003 A 
ENDBRANCH   3   4
ENDBRANCH   2   3
ENDBRANCH  12  10
ENDBRANCH  13  12
BRANCH  15  16
ATOM     16  C   UNL     1       4.652  -7.262   0.000  0.00  0.00    +0.148 C 
BRANCH  16  17
ATOM     17  N   UNL     1       4.987  -6.508   0.000  0.00  0.00    -0.075 NA
BRANCH  17  18
ATOM     18  S   UNL     1       5.808  -6.422   0.000  0.00  0.00    +0.077 S 
ATOM     19  O   UNL     1       5.894  -7.242   0.000  0.00  0.00    -0.152 OA
ATOM     20  O   UNL     1       5.722  -5.601   0.000  0.00  0.00    -0.152 OA
BRANCH  18  21
ATOM     21  C   UNL     1       6.628  -6.336   0.000  0.00  0.00    +0.124 A 
ATOM     22  C   UNL     1       6.964  -5.582   0.000  0.00  0.00    +0.020 A 
ATOM     23  C   UNL     1       7.784  -5.496   0.000  0.00  0.00    +0.001 A 
ATOM     24  C   UNL     1       8.269  -6.163   0.000  0.00  0.00    +0.000 A 
ATOM     25  C   UNL     1       7.934  -6.917   0.000  0.00  0.00    +0.001 A 
ATOM     26  C   UNL     1       7.113  -7.003   0.000  0.00  0.00    +0.020 A 
ENDBRANCH  18  21
ENDBRANCH  17  18
ENDBRANCH  16  17
ENDBRANCH  15  16
TORSDOF 8
