REMARK  Name = 
REMARK  8 active torsions:
REMARK  status: ('A' for Active; 'I' for Inactive)
REMARK    1  A    between atoms: C_7  and  C_8
REMARK    2  A    between atoms: C_13  and  N_29
REMARK    3  A    between atoms: C_15  and  C_16
REMARK    4  A    between atoms: N_18  and  C_19
REMARK    5  A    between atoms: C_19  and  C_20
REMARK    6  A    between atoms: C_19  and  C_26
REMARK    7  A    between atoms: C_20  and  C_21
REMARK    8  A    between atoms: C_30  and  C_32
REMARK                            x       y       z     vdW  Elec       q    Type
REMARK                         _______ _______ _______ _____ _____    ______ ____
ROOT
ATOM      8  C   UNL     1      -2.060  -1.529   0.000  0.00  0.00    +0.267 C 
ATOM      9  O   UNL     1      -2.231  -0.722   0.000  0.00  0.00    -0.268 OA
ATOM     10  N   UNL     1      -2.673  -2.081   0.000  0.00  0.00    -0.268 N 
ATOM     11  C   UNL     1      -2.501  -2.888   0.000  0.00  0.00    +0.096 C 
ATOM     12  C   UNL     1      -3.115  -3.440   0.000  0.00  0.00    +0.043 C 
ATOM     13  C   UNL     1      -3.899  -3.185   0.000  0.00  0.00    +0.100 C 
ATOM     14  C   UNL     1      -4.071  -2.378   0.000  0.00  0.00    +0.051 C 
ATOM     15  C   UNL     1      -3.458  -1.826   0.000  0.00  0.00    +0.155 C 
ENDROOT
BRANCH   8   7
ATOM      1  C   UNL     1      -0.608  -0.474   0.000  0.00  0.00    +0.154 C 
ATOM      2  N   UNL     1      -0.608  -1.299   0.000  0.00  0.00    -0.245 N 
ATOM      3  N   UNL     1       0.060  -1.784   0.000  0.00  0.00    -0.173 NA
ATOM      4  C   UNL     1      -0.195  -2.569   0.000  0.00  0.00    +0.081 A 
ATOM      5  C   UNL     1       0.290  -3.236   0.000  0.00  0.00    +0.054 C 
ATOM      6  C   UNL     1      -1.020  -2.569   0.000  0.00  0.00    +0.040 A 
ATOM      7  C   UNL     1      -1.275  -1.784   0.000  0.00  0.00    +0.133 A 
ENDBRANCH   8   7
BRANCH  15  16
ATOM     16  C   UNL     1      -3.629  -1.019   0.000  0.00  0.00    +0.260 C 
ATOM     17  O   UNL     1      -4.414  -0.764   0.000  0.00  0.00    -0.272 OA
ATOM     18  N   UNL     1      -3.016  -0.467   0.000  0.00  0.00    -0.196 NA
BRANCH  18  19
ATOM     19  C   UNL     1      -3.188   0.340   0.000  0.00  0.00    +0.179 C 
BRANCH  19  26
ATOM     26  C   UNL     1      -3.972   0.595   0.000  0.00  0.00    +0.281 C 
ATOM     27  N   UNL     1      -4.585   0.043   0.000  0.00  0.00    -0.086 NA
ATOM     28  O   UNL     1      -4.144   1.402   0.000  0.00  0.00    -0.270 OA
ENDBRANCH  19  26
BRANCH  19  20
ATOM     20  C   UNL     1      -2.574   0.892   0.000  0.00  0.00    +0.064 C 
BRANCH  20  21
ATOM     21  C   UNL     1      -2.746   1.699   0.000  0.00  0.00    +0.010 A 
ATOM     22  C   UNL     1      -3.500   2.034   0.000  0.00  0.00    +0.003 A 
ATOM     23  C   UNL     1      -3.413   2.855   0.000  0.00  0.00    +0.007 A 
ATOM     24  C   UNL     1      -2.606   3.026   0.000  0.00  0.00    +0.035 A 
ATOM     25  S   UNL     1      -2.194   2.312   0.000  0.00  0.00    -0.091 S 
ENDBRANCH  20  21
ENDBRANCH  19  20
ENDBRANCH  18  19
ENDBRANCH  15  16
BRANCH  13  29
ATOM     29  N   UNL     1      -4.512  -3.737   0.000  0.00  0.00    -0.203 NA
ATOM     30  C   UNL     1      -4.341  -4.544   0.000  0.00  0.00    +0.273 C 
ATOM     31  O   UNL     1      -3.556  -4.799   0.000  0.00  0.00    -0.268 OA
BRANCH  30  32
ATOM     32  C   UNL     1      -4.954  -5.096   0.000  0.00  0.00    +0.119 A 
ATOM     33  C   UNL     1      -4.867  -5.917   0.000  0.00  0.00    +0.093 A 
ATOM     34  C   UNL     1      -4.153  -6.329   0.000  0.00  0.00    +0.055 C 
ATOM     35  N   UNL     1      -5.621  -6.252   0.000  0.00  0.00    -0.145 NA
ATOM     36  N   UNL     1      -6.173  -5.639   0.000  0.00  0.00    -0.110 NA
ATOM     37  S   UNL     1      -5.761  -4.925   0.000  0.00  0.00    +0.042 S 
ENDBRANCH  30  32
ENDBRANCH  13  29
TORSDOF 8
