REMARK  Name = 
REMARK  5 active torsions:
REMARK  status: ('A' for Active; 'I' for Inactive)
REMARK    1  A    between atoms: C_3  and  N_4
REMARK    2  A    between atoms: N_7  and  C_8
REMARK    3  A    between atoms: C_10  and  C_14
REMARK    4  A    between atoms: C_23  and  N_24
REMARK    5  A    between atoms: N_27  and  C_30
REMARK                            x       y       z     vdW  Elec       q    Type
REMARK                         _______ _______ _______ _____ _____    ______ ____
ROOT
ATOM      1  O   UNL     1       2.539  -2.074   0.000  0.00  0.00    -0.220 OA
ATOM      2  C   UNL     1       2.127  -1.359   0.000  0.00  0.00    +0.194 C 
ATOM      3  C   UNL     1       1.989  -0.542   0.000  0.00  0.00    +0.158 C 
ATOM     18  C   UNL     1       1.060  -0.557   0.000  0.00  0.00    +0.170 C 
ATOM     19  C   UNL     1       0.740  -1.266   0.000  0.00  0.00    +0.176 C 
ATOM     20  O   UNL     1       0.120  -1.643   0.000  0.00  0.00    -0.327 OA
ATOM     21  C   UNL     1       0.640  -0.930   0.000  0.00  0.00    +0.253 C 
ATOM     22  O   UNL     1       0.500  -0.117   0.000  0.00  0.00    -0.327 OA
ATOM     23  C   UNL     1       1.611  -0.930   0.000  0.00  0.00    +0.147 C 
ENDROOT
BRANCH  23  24
ATOM     24  N   UNL     1       1.331  -1.706   0.000  0.00  0.00    -0.265 NA
ATOM     25  C   UNL     1       1.863  -2.337   0.000  0.00  0.00    +0.094 C 
ATOM     26  C   UNL     1       1.583  -3.113   0.000  0.00  0.00    +0.108 C 
ATOM     27  N   UNL     1       0.771  -3.258   0.000  0.00  0.00    -0.305 N 
ATOM     28  C   UNL     1       0.239  -2.628   0.000  0.00  0.00    +0.108 C 
ATOM     29  C   UNL     1       0.519  -1.852   0.000  0.00  0.00    +0.094 C 
BRANCH  27  30
ATOM     30  C   UNL     1       0.490  -4.034   0.000  0.00  0.00    +0.048 A 
ATOM     31  C   UNL     1       1.022  -4.665   0.000  0.00  0.00    +0.015 A 
ATOM     32  C   UNL     1       0.742  -5.441   0.000  0.00  0.00    +0.001 A 
ATOM     33  C   UNL     1      -0.070  -5.586   0.000  0.00  0.00    +0.000 A 
ATOM     34  C   UNL     1      -0.602  -4.955   0.000  0.00  0.00    +0.001 A 
ATOM     35  C   UNL     1      -0.322  -4.180   0.000  0.00  0.00    +0.015 A 
ENDBRANCH  27  30
ENDBRANCH  23  24
BRANCH   3   4
ATOM      4  N   UNL     1       2.517   0.093   0.000  0.00  0.00    -0.183 NA
ATOM      5  C   UNL     1       2.231   0.867   0.000  0.00  0.00    +0.344 C 
ATOM      6  O   UNL     1       1.417   1.006   0.000  0.00  0.00    -0.249 OA
ATOM      7  N   UNL     1       2.758   1.501   0.000  0.00  0.00    -0.161 NA
BRANCH   7   8
ATOM      8  C   UNL     1       2.472   2.275   0.000  0.00  0.00    +0.075 A 
ATOM      9  C   UNL     1       1.659   2.414   0.000  0.00  0.00    +0.021 A 
ATOM     10  C   UNL     1       1.373   3.188   0.000  0.00  0.00    +0.073 A 
ATOM     11  C   UNL     1       1.900   3.823   0.000  0.00  0.00    +0.004 A 
ATOM     12  C   UNL     1       2.713   3.683   0.000  0.00  0.00    +0.001 A 
ATOM     13  C   UNL     1       2.999   2.910   0.000  0.00  0.00    +0.017 A 
BRANCH  10  14
ATOM     14  C   UNL     1       0.560   3.328   0.000  0.00  0.00    +0.419 C 
ATOM     15  F   UNL     1      -0.253   3.467   0.000  0.00  0.00    -0.166 F 
ATOM     16  F   UNL     1       0.420   2.514   0.000  0.00  0.00    -0.166 F 
ATOM     17  F   UNL     1       0.699   4.141   0.000  0.00  0.00    -0.166 F 
ENDBRANCH  10  14
ENDBRANCH   7   8
ENDBRANCH   3   4
TORSDOF 5
