MODEL 1
REMARK VINA RESULT:     -10.4      0.000      0.000
REMARK  Name = 
REMARK  6 active torsions:
REMARK  status: ('A' for Active; 'I' for Inactive)
REMARK    1  A    between atoms: C_2  and  C_4
REMARK    2  A    between atoms: C_4  and  N_5
REMARK    3  A    between atoms: C_6  and  C_7
REMARK    4  A    between atoms: C_9  and  C_14
REMARK    5  A    between atoms: C_17  and  N_18
REMARK    6  A    between atoms: C_19  and  C_21
REMARK                            x       y       z     vdW  Elec       q    Type
REMARK                         _______ _______ _______ _____ _____    ______ ____
ROOT
ATOM     14  C   UNL     1      -1.655   0.085  24.780  0.00  0.00    +0.006 A 
ATOM     15  C   UNL     1      -1.847   0.586  24.153  0.00  0.00    -0.001 A 
ATOM     16  C   UNL     1      -1.722   1.398  24.222  0.00  0.00    +0.016 A 
ATOM     17  C   UNL     1      -1.406   1.710  24.918  0.00  0.00    +0.074 A 
ATOM     28  C   UNL     1      -1.215   1.209  25.544  0.00  0.00    +0.016 A 
ATOM     29  C   UNL     1      -1.339   0.396  25.475  0.00  0.00    -0.001 A 
ENDROOT
BRANCH  14   9
ATOM      5  N   UNL     1      -2.652  -1.857  24.786  0.00  0.00    -0.274 N 
ATOM      6  C   UNL     1      -2.528  -1.045  24.855  0.00  0.00    +0.140 C 
ATOM      9  C   UNL     1      -1.779  -0.728  24.711  0.00  0.00    +0.159 C 
ATOM     10  O   UNL     1      -1.156  -1.224  24.499  0.00  0.00    -0.341 OA
ATOM     11  C   UNL     1      -1.280  -2.037  24.430  0.00  0.00    +0.227 C 
ATOM     12  C   UNL     1      -2.028  -2.353  24.573  0.00  0.00    +0.256 C 
ATOM     13  O   UNL     1      -2.152  -3.166  24.505  0.00  0.00    -0.272 OA
BRANCH   6   7
ATOM      7  C   UNL     1      -3.152  -0.548  25.068  0.00  0.00    +0.205 C 
ATOM      8  O   UNL     1      -3.508  -0.627  25.808  0.00  0.00    -0.218 OA
ENDBRANCH   6   7
BRANCH   5   4
ATOM      4  C   UNL     1      -3.401  -2.173  24.930  0.00  0.00    +0.094 C 
BRANCH   4   2
ATOM      1  C   UNL     1      -3.812  -3.347  24.225  0.00  0.00    +0.002 C 
ATOM      2  C   UNL     1      -3.824  -2.527  24.316  0.00  0.00    +0.020 C 
ATOM      3  C   UNL     1      -4.260  -2.060  23.793  0.00  0.00    +0.002 C 
ENDBRANCH   4   2
ENDBRANCH   5   4
ENDBRANCH  14   9
BRANCH  17  18
ATOM     18  N   UNL     1      -1.282   2.523  24.986  0.00  0.00    -0.174 NA
ATOM     19  C   UNL     1      -1.920   3.027  25.127  0.00  0.00    +0.286 C 
ATOM     20  O   UNL     1      -2.682   2.719  25.198  0.00  0.00    -0.266 OA
BRANCH  19  21
ATOM     21  C   UNL     1      -1.796   3.840  25.196  0.00  0.00    +0.134 A 
ATOM     22  C   UNL     1      -1.201   4.273  24.823  0.00  0.00    +0.040 A 
ATOM     23  C   UNL     1      -1.282   5.063  25.047  0.00  0.00    +0.081 A 
ATOM     24  C   UNL     1      -0.802   5.687  24.802  0.00  0.00    +0.054 C 
ATOM     25  N   UNL     1      -1.927   5.118  25.557  0.00  0.00    -0.173 NA
ATOM     26  N   UNL     1      -2.245   4.362  25.649  0.00  0.00    -0.245 N 
ATOM     27  C   UNL     1      -2.898   4.164  26.113  0.00  0.00    +0.154 C 
ENDBRANCH  19  21
ENDBRANCH  17  18
TORSDOF 6
ENDMDL
MODEL 2
REMARK VINA RESULT:      -9.2      1.198      5.907
REMARK  Name = 
REMARK  6 active torsions:
REMARK  status: ('A' for Active; 'I' for Inactive)
REMARK    1  A    between atoms: C_2  and  C_4
REMARK    2  A    between atoms: C_4  and  N_5
REMARK    3  A    between atoms: C_6  and  C_7
REMARK    4  A    between atoms: C_9  and  C_14
REMARK    5  A    between atoms: C_17  and  N_18
REMARK    6  A    between atoms: C_19  and  C_21
REMARK                            x       y       z     vdW  Elec       q    Type
REMARK                         _______ _______ _______ _____ _____    ______ ____
ROOT
ATOM     14  C   UNL     1      -3.197   2.024  24.491  0.00  0.00    +0.006 A 
ATOM     15  C   UNL     1      -2.841   1.662  23.841  0.00  0.00    -0.001 A 
ATOM     16  C   UNL     1      -2.963   0.859  23.699  0.00  0.00    +0.016 A 
ATOM     17  C   UNL     1      -3.440   0.417  24.207  0.00  0.00    +0.074 A 
ATOM     28  C   UNL     1      -3.795   0.780  24.857  0.00  0.00    +0.016 A 
ATOM     29  C   UNL     1      -3.674   1.583  24.999  0.00  0.00    -0.001 A 
ENDROOT
BRANCH  14   9
ATOM      5  N   UNL     1      -2.240   3.890  25.098  0.00  0.00    -0.274 N 
ATOM      6  C   UNL     1      -2.361   3.087  24.956  0.00  0.00    +0.140 C 
ATOM      9  C   UNL     1      -3.076   2.828  24.633  0.00  0.00    +0.159 C 
ATOM     10  O   UNL     1      -3.668   3.373  24.453  0.00  0.00    -0.341 OA
ATOM     11  C   UNL     1      -3.546   4.176  24.595  0.00  0.00    +0.227 C 
ATOM     12  C   UNL     1      -2.833   4.435  24.917  0.00  0.00    +0.256 C 
ATOM     13  O   UNL     1      -2.712   5.238  25.059  0.00  0.00    -0.272 OA
BRANCH   6   7
ATOM      7  C   UNL     1      -1.768   2.541  25.137  0.00  0.00    +0.205 C 
ATOM      8  O   UNL     1      -1.536   2.428  25.920  0.00  0.00    -0.218 OA
ENDBRANCH   6   7
BRANCH   5   4
ATOM      4  C   UNL     1      -1.525   4.148  25.420  0.00  0.00    +0.094 C 
BRANCH   4   2
ATOM      1  C   UNL     1      -1.123   5.465  25.037  0.00  0.00    +0.002 C 
ATOM      2  C   UNL     1      -1.033   4.646  24.985  0.00  0.00    +0.020 C 
ATOM      3  C   UNL     1      -0.450   4.326  24.496  0.00  0.00    +0.002 C 
ENDBRANCH   4   2
ENDBRANCH   5   4
ENDBRANCH  14   9
BRANCH  17  18
ATOM     18  N   UNL     1      -3.561  -0.387  24.065  0.00  0.00    -0.174 NA
ATOM     19  C   UNL     1      -3.143  -0.950  24.500  0.00  0.00    +0.286 C 
ATOM     20  O   UNL     1      -2.603  -0.710  25.076  0.00  0.00    -0.266 OA
BRANCH  19  21
ATOM     21  C   UNL     1      -3.264  -1.753  24.358  0.00  0.00    +0.134 A 
ATOM     22  C   UNL     1      -3.974  -2.103  24.124  0.00  0.00    +0.040 A 
ATOM     23  C   UNL     1      -3.845  -2.914  24.047  0.00  0.00    +0.081 A 
ATOM     24  C   UNL     1      -4.408  -3.475  23.823  0.00  0.00    +0.054 C 
ATOM     25  N   UNL     1      -3.057  -3.066  24.232  0.00  0.00    -0.173 NA
ATOM     26  N   UNL     1      -2.698  -2.349  24.425  0.00  0.00    -0.245 N 
ATOM     27  C   UNL     1      -1.909  -2.245  24.646  0.00  0.00    +0.154 C 
ENDBRANCH  19  21
ENDBRANCH  17  18
TORSDOF 6
ENDMDL
MODEL 3
REMARK VINA RESULT:      -8.4      2.844      4.773
REMARK  Name = 
REMARK  6 active torsions:
REMARK  status: ('A' for Active; 'I' for Inactive)
REMARK    1  A    between atoms: C_2  and  C_4
REMARK    2  A    between atoms: C_4  and  N_5
REMARK    3  A    between atoms: C_6  and  C_7
REMARK    4  A    between atoms: C_9  and  C_14
REMARK    5  A    between atoms: C_17  and  N_18
REMARK    6  A    between atoms: C_19  and  C_21
REMARK                            x       y       z     vdW  Elec       q    Type
REMARK                         _______ _______ _______ _____ _____    ______ ____
ROOT
ATOM     14  C   UNL     1      -1.705   2.582  24.927  0.00  0.00    +0.006 A 
ATOM     15  C   UNL     1      -1.254   2.961  24.348  0.00  0.00    -0.001 A 
ATOM     16  C   UNL     1      -0.539   2.631  24.103  0.00  0.00    +0.016 A 
ATOM     17  C   UNL     1      -0.274   1.924  24.436  0.00  0.00    +0.074 A 
ATOM     28  C   UNL     1      -0.725   1.547  25.015  0.00  0.00    +0.016 A 
ATOM     29  C   UNL     1      -1.440   1.876  25.260  0.00  0.00    -0.001 A 
ENDROOT
BRANCH  14   9
ATOM      5  N   UNL     1      -3.844   2.995  25.072  0.00  0.00    -0.274 N 
ATOM      6  C   UNL     1      -3.128   2.665  24.827  0.00  0.00    +0.140 C 
ATOM      9  C   UNL     1      -2.420   2.912  25.173  0.00  0.00    +0.159 C 
ATOM     10  O   UNL     1      -2.429   3.487  25.763  0.00  0.00    -0.341 OA
ATOM     11  C   UNL     1      -3.144   3.817  26.009  0.00  0.00    +0.227 C 
ATOM     12  C   UNL     1      -3.851   3.570  25.664  0.00  0.00    +0.256 C 
ATOM     13  O   UNL     1      -4.567   3.900  25.909  0.00  0.00    -0.272 OA
BRANCH   6   7
ATOM      7  C   UNL     1      -3.120   2.089  24.235  0.00  0.00    +0.205 C 
ATOM      8  O   UNL     1      -3.338   2.286  23.464  0.00  0.00    -0.218 OA
ENDBRANCH   6   7
BRANCH   5   4
ATOM      4  C   UNL     1      -4.551   2.748  24.726  0.00  0.00    +0.094 C 
BRANCH   4   2
ATOM      1  C   UNL     1      -5.770   2.819  25.470  0.00  0.00    +0.002 C 
ATOM      2  C   UNL     1      -5.130   2.382  25.187  0.00  0.00    +0.020 C 
ATOM      3  C   UNL     1      -5.069   1.579  25.366  0.00  0.00    +0.002 C 
ENDBRANCH   4   2
ENDBRANCH   5   4
ENDBRANCH  14   9
BRANCH  17  18
ATOM     18  N   UNL     1       0.442   1.594  24.191  0.00  0.00    -0.174 NA
ATOM     19  C   UNL     1       0.457   1.070  23.553  0.00  0.00    +0.286 C 
ATOM     20  O   UNL     1      -0.243   0.875  23.161  0.00  0.00    -0.266 OA
BRANCH  19  21
ATOM     21  C   UNL     1       1.172   0.741  23.308  0.00  0.00    +0.134 A 
ATOM     22  C   UNL     1       1.899   1.130  23.274  0.00  0.00    +0.040 A 
ATOM     23  C   UNL     1       2.463   0.594  22.998  0.00  0.00    +0.081 A 
ATOM     24  C   UNL     1       3.264   0.751  22.880  0.00  0.00    +0.054 C 
ATOM     25  N   UNL     1       2.085  -0.125  22.862  0.00  0.00    -0.173 NA
ATOM     26  N   UNL     1       1.287  -0.035  23.053  0.00  0.00    -0.245 N 
ATOM     27  C   UNL     1       0.706  -0.618  22.999  0.00  0.00    +0.154 C 
ENDBRANCH  19  21
ENDBRANCH  17  18
TORSDOF 6
ENDMDL
