MODEL 1
REMARK VINA RESULT:     -12.4      0.000      0.000
REMARK  Name = 
REMARK  5 active torsions:
REMARK  status: ('A' for Active; 'I' for Inactive)
REMARK    1  A    between atoms: N_7  and  C_10
REMARK    2  A    between atoms: C_12  and  C_16
REMARK    3  A    between atoms: C_19  and  C_21
REMARK    4  A    between atoms: N_25  and  C_26
REMARK    5  A    between atoms: C_26  and  C_27
REMARK                            x       y       z     vdW  Elec       q    Type
REMARK                         _______ _______ _______ _____ _____    ______ ____
ROOT
ATOM     16  C   UNL     1      -4.034   3.025  25.470  0.00  0.00    +0.203 A 
ATOM     17  N   UNL     1      -4.157   3.562  26.085  0.00  0.00    -0.056 NA
ATOM     18  O   UNL     1      -3.505   4.067  26.116  0.00  0.00    -0.336 OA
ATOM     19  C   UNL     1      -2.980   3.843  25.520  0.00  0.00    +0.251 A 
ATOM     20  N   UNL     1      -3.307   3.199  25.121  0.00  0.00    -0.190 NA
ENDROOT
BRANCH  16  12
ATOM     10  C   UNL     1      -4.781   1.047  24.930  0.00  0.00    +0.132 A 
ATOM     11  C   UNL     1      -4.267   1.651  25.156  0.00  0.00    +0.037 A 
ATOM     12  C   UNL     1      -4.549   2.421  25.244  0.00  0.00    +0.043 A 
ATOM     13  C   UNL     1      -5.345   2.588  25.106  0.00  0.00    +0.024 A 
ATOM     14  C   UNL     1      -5.859   1.984  24.880  0.00  0.00    +0.100 A 
ATOM     15  N   UNL     1      -5.577   1.213  24.792  0.00  0.00    -0.229 NA
BRANCH  10   7
ATOM      1  C   UNL     1      -3.315  -2.426  25.219  0.00  0.00    +0.095 C 
ATOM      2  C   UNL     1      -3.654  -2.035  24.576  0.00  0.00    +0.226 C 
ATOM      3  O   UNL     1      -3.712  -2.413  23.846  0.00  0.00    -0.275 OA
ATOM      4  N   UNL     1      -3.936  -1.264  24.665  0.00  0.00    -0.276 N 
ATOM      5  C   UNL     1      -4.275  -0.872  24.023  0.00  0.00    +0.115 C 
ATOM      6  C   UNL     1      -4.557  -0.102  24.111  0.00  0.00    +0.114 C 
ATOM      7  N   UNL     1      -4.499   0.276  24.841  0.00  0.00    -0.290 N 
ATOM      8  C   UNL     1      -4.160  -0.115  25.484  0.00  0.00    +0.114 C 
ATOM      9  C   UNL     1      -3.879  -0.885  25.395  0.00  0.00    +0.115 C 
ENDBRANCH  10   7
ENDBRANCH  16  12
BRANCH  19  21
ATOM     21  C   UNL     1      -2.256   4.200  25.352  0.00  0.00    +0.138 C 
ATOM     22  C   UNL     1      -2.144   4.983  25.116  0.00  0.00    +0.027 C 
ATOM     23  C   UNL     1      -1.335   5.104  25.009  0.00  0.00    +0.019 C 
ATOM     24  C   UNL     1      -0.947   4.396  25.179  0.00  0.00    +0.073 C 
ATOM     25  N   UNL     1      -1.516   3.837  25.391  0.00  0.00    -0.263 NA
BRANCH  25  26
ATOM     26  C   UNL     1      -1.370   3.054  25.604  0.00  0.00    +0.101 C 
BRANCH  26  27
ATOM     27  C   UNL     1      -0.689   2.674  25.338  0.00  0.00    +0.013 A 
ATOM     28  C   UNL     1      -0.670   2.339  24.584  0.00  0.00    +0.000 A 
ATOM     29  C   UNL     1       0.012   1.958  24.318  0.00  0.00    +0.020 A 
ATOM     30  C   UNL     1       0.676   1.913  24.806  0.00  0.00    +0.099 A 
ATOM     31  N   UNL     1       0.657   2.248  25.559  0.00  0.00    -0.243 NA
ATOM     32  C   UNL     1      -0.024   2.628  25.825  0.00  0.00    +0.096 A 
ENDBRANCH  26  27
ENDBRANCH  25  26
ENDBRANCH  19  21
TORSDOF 5
ENDMDL
MODEL 2
REMARK VINA RESULT:     -12.4      1.548      3.539
REMARK  Name = 
REMARK  5 active torsions:
REMARK  status: ('A' for Active; 'I' for Inactive)
REMARK    1  A    between atoms: N_7  and  C_10
REMARK    2  A    between atoms: C_12  and  C_16
REMARK    3  A    between atoms: C_19  and  C_21
REMARK    4  A    between atoms: N_25  and  C_26
REMARK    5  A    between atoms: C_26  and  C_27
REMARK                            x       y       z     vdW  Elec       q    Type
REMARK                         _______ _______ _______ _____ _____    ______ ____
ROOT
ATOM     16  C   UNL     1      -0.304   1.922  24.948  0.00  0.00    +0.203 A 
ATOM     17  N   UNL     1       0.101   2.162  25.627  0.00  0.00    -0.056 NA
ATOM     18  O   UNL     1      -0.145   2.928  25.812  0.00  0.00    -0.336 OA
ATOM     19  C   UNL     1      -0.701   3.161  25.249  0.00  0.00    +0.251 A 
ATOM     20  N   UNL     1      -0.799   2.539  24.715  0.00  0.00    -0.190 NA
ENDROOT
BRANCH  16  12
ATOM     10  C   UNL     1      -0.730  -0.114  24.288  0.00  0.00    +0.132 A 
ATOM     11  C   UNL     1      -0.807   0.615  24.666  0.00  0.00    +0.037 A 
ATOM     12  C   UNL     1      -0.227   1.192  24.571  0.00  0.00    +0.043 A 
ATOM     13  C   UNL     1       0.432   1.041  24.097  0.00  0.00    +0.024 A 
ATOM     14  C   UNL     1       0.510   0.312  23.720  0.00  0.00    +0.100 A 
ATOM     15  N   UNL     1      -0.072  -0.266  23.815  0.00  0.00    -0.229 NA
BRANCH  10   7
ATOM      1  C   UNL     1      -3.841  -2.254  24.488  0.00  0.00    +0.095 C 
ATOM      2  C   UNL     1      -3.054  -2.426  24.669  0.00  0.00    +0.226 C 
ATOM      3  O   UNL     1      -2.849  -3.175  24.945  0.00  0.00    -0.275 OA
ATOM      4  N   UNL     1      -2.474  -1.847  24.574  0.00  0.00    -0.276 N 
ATOM      5  C   UNL     1      -1.687  -2.019  24.755  0.00  0.00    +0.115 C 
ATOM      6  C   UNL     1      -1.106  -1.442  24.660  0.00  0.00    +0.114 C 
ATOM      7  N   UNL     1      -1.312  -0.692  24.383  0.00  0.00    -0.290 N 
ATOM      8  C   UNL     1      -2.098  -0.521  24.202  0.00  0.00    +0.114 C 
ATOM      9  C   UNL     1      -2.678  -1.098  24.297  0.00  0.00    +0.115 C 
ENDBRANCH  10   7
ENDBRANCH  16  12
BRANCH  19  21
ATOM     21  C   UNL     1      -1.090   3.887  25.223  0.00  0.00    +0.138 C 
ATOM     22  C   UNL     1      -0.759   4.607  24.993  0.00  0.00    +0.027 C 
ATOM     23  C   UNL     1      -1.343   5.187  25.051  0.00  0.00    +0.019 C 
ATOM     24  C   UNL     1      -2.035   4.825  25.317  0.00  0.00    +0.073 C 
ATOM     25  N   UNL     1      -1.879   4.022  25.423  0.00  0.00    -0.263 NA
BRANCH  25  26
ATOM     26  C   UNL     1      -2.417   3.454  25.684  0.00  0.00    +0.101 C 
BRANCH  26  27
ATOM     27  C   UNL     1      -3.224   3.558  25.551  0.00  0.00    +0.013 A 
ATOM     28  C   UNL     1      -3.563   3.300  24.844  0.00  0.00    +0.000 A 
ATOM     29  C   UNL     1      -4.371   3.404  24.711  0.00  0.00    +0.020 A 
ATOM     30  C   UNL     1      -4.839   3.767  25.285  0.00  0.00    +0.099 A 
ATOM     31  N   UNL     1      -4.501   4.026  25.991  0.00  0.00    -0.243 NA
ATOM     32  C   UNL     1      -3.694   3.921  26.124  0.00  0.00    +0.096 A 
ENDBRANCH  26  27
ENDBRANCH  25  26
ENDBRANCH  19  21
TORSDOF 5
ENDMDL
MODEL 3
REMARK VINA RESULT:     -12.1      1.862      4.421
REMARK  Name = 
REMARK  5 active torsions:
REMARK  status: ('A' for Active; 'I' for Inactive)
REMARK    1  A    between atoms: N_7  and  C_10
REMARK    2  A    between atoms: C_12  and  C_16
REMARK    3  A    between atoms: C_19  and  C_21
REMARK    4  A    between atoms: N_25  and  C_26
REMARK    5  A    between atoms: C_26  and  C_27
REMARK                            x       y       z     vdW  Elec       q    Type
REMARK                         _______ _______ _______ _____ _____    ______ ____
ROOT
ATOM     16  C   UNL     1      -0.576   2.610  24.919  0.00  0.00    +0.203 A 
ATOM     17  N   UNL     1       0.139   2.538  25.325  0.00  0.00    -0.056 NA
ATOM     18  O   UNL     1       0.522   1.861  25.050  0.00  0.00    -0.336 OA
ATOM     19  C   UNL     1       0.044   1.515  24.473  0.00  0.00    +0.251 A 
ATOM     20  N   UNL     1      -0.635   1.978  24.392  0.00  0.00    -0.190 NA
ENDROOT
BRANCH  16  12
ATOM     10  C   UNL     1      -2.489   3.618  25.210  0.00  0.00    +0.132 A 
ATOM     11  C   UNL     1      -1.932   3.019  25.108  0.00  0.00    +0.037 A 
ATOM     12  C   UNL     1      -1.134   3.209  25.021  0.00  0.00    +0.043 A 
ATOM     13  C   UNL     1      -0.893   3.998  25.037  0.00  0.00    +0.024 A 
ATOM     14  C   UNL     1      -1.451   4.597  25.139  0.00  0.00    +0.100 A 
ATOM     15  N   UNL     1      -2.250   4.407  25.226  0.00  0.00    -0.229 NA
BRANCH  10   7
ATOM      1  C   UNL     1      -6.037   2.321  25.044  0.00  0.00    +0.095 C 
ATOM      2  C   UNL     1      -5.682   2.859  25.559  0.00  0.00    +0.226 C 
ATOM      3  O   UNL     1      -6.125   3.206  26.161  0.00  0.00    -0.275 OA
ATOM      4  N   UNL     1      -4.884   3.048  25.471  0.00  0.00    -0.276 N 
ATOM      5  C   UNL     1      -4.529   3.586  25.987  0.00  0.00    +0.115 C 
ATOM      6  C   UNL     1      -3.731   3.776  25.900  0.00  0.00    +0.114 C 
ATOM      7  N   UNL     1      -3.288   3.428  25.298  0.00  0.00    -0.290 N 
ATOM      8  C   UNL     1      -3.643   2.890  24.782  0.00  0.00    +0.114 C 
ATOM      9  C   UNL     1      -4.441   2.701  24.869  0.00  0.00    +0.115 C 
ENDBRANCH  10   7
ENDBRANCH  16  12
BRANCH  19  21
ATOM     21  C   UNL     1       0.214   0.827  24.051  0.00  0.00    +0.138 C 
ATOM     22  C   UNL     1       0.709   0.771  23.393  0.00  0.00    +0.027 C 
ATOM     23  C   UNL     1       0.721  -0.016  23.148  0.00  0.00    +0.019 C 
ATOM     24  C   UNL     1       0.233  -0.448  23.654  0.00  0.00    +0.073 C 
ATOM     25  N   UNL     1      -0.080   0.073  24.213  0.00  0.00    -0.263 NA
BRANCH  25  26
ATOM     26  C   UNL     1      -0.597  -0.125  24.824  0.00  0.00    +0.101 C 
BRANCH  26  27
ATOM     27  C   UNL     1      -0.983  -0.853  24.818  0.00  0.00    +0.013 A 
ATOM     28  C   UNL     1      -1.748  -0.912  24.516  0.00  0.00    +0.000 A 
ATOM     29  C   UNL     1      -2.136  -1.641  24.510  0.00  0.00    +0.020 A 
ATOM     30  C   UNL     1      -1.757  -2.311  24.807  0.00  0.00    +0.099 A 
ATOM     31  N   UNL     1      -0.992  -2.252  25.110  0.00  0.00    -0.243 NA
ATOM     32  C   UNL     1      -0.605  -1.524  25.116  0.00  0.00    +0.096 A 
ENDBRANCH  26  27
ENDBRANCH  25  26
ENDBRANCH  19  21
TORSDOF 5
ENDMDL
MODEL 4
REMARK VINA RESULT:     -12.0      1.613      4.770
REMARK  Name = 
REMARK  5 active torsions:
REMARK  status: ('A' for Active; 'I' for Inactive)
REMARK    1  A    between atoms: N_7  and  C_10
REMARK    2  A    between atoms: C_12  and  C_16
REMARK    3  A    between atoms: C_19  and  C_21
REMARK    4  A    between atoms: N_25  and  C_26
REMARK    5  A    between atoms: C_26  and  C_27
REMARK                            x       y       z     vdW  Elec       q    Type
REMARK                         _______ _______ _______ _____ _____    ______ ____
ROOT
ATOM     16  C   UNL     1      -4.344   0.590  25.099  0.00  0.00    +0.203 A 
ATOM     17  N   UNL     1      -4.642   0.172  25.745  0.00  0.00    -0.056 NA
ATOM     18  O   UNL     1      -4.398  -0.613  25.675  0.00  0.00    -0.336 OA
ATOM     19  C   UNL     1      -3.950  -0.680  24.986  0.00  0.00    +0.251 A 
ATOM     20  N   UNL     1      -3.916   0.063  24.630  0.00  0.00    -0.190 NA
ENDROOT
BRANCH  16  12
ATOM     10  C   UNL     1      -3.926   2.717  24.845  0.00  0.00    +0.132 A 
ATOM     11  C   UNL     1      -3.816   1.913  24.996  0.00  0.00    +0.037 A 
ATOM     12  C   UNL     1      -4.454   1.394  24.948  0.00  0.00    +0.043 A 
ATOM     13  C   UNL     1      -5.204   1.677  24.750  0.00  0.00    +0.024 A 
ATOM     14  C   UNL     1      -5.314   2.480  24.600  0.00  0.00    +0.100 A 
ATOM     15  N   UNL     1      -4.675   3.001  24.647  0.00  0.00    -0.229 NA
BRANCH  10   7
ATOM      1  C   UNL     1      -0.643   4.586  24.715  0.00  0.00    +0.095 C 
ATOM      2  C   UNL     1      -1.373   4.799  25.035  0.00  0.00    +0.226 C 
ATOM      3  O   UNL     1      -1.464   5.531  25.401  0.00  0.00    -0.275 OA
ATOM      4  N   UNL     1      -2.011   4.278  24.987  0.00  0.00    -0.276 N 
ATOM      5  C   UNL     1      -2.741   4.490  25.307  0.00  0.00    +0.115 C 
ATOM      6  C   UNL     1      -3.380   3.971  25.260  0.00  0.00    +0.114 C 
ATOM      7  N   UNL     1      -3.287   3.238  24.892  0.00  0.00    -0.290 N 
ATOM      8  C   UNL     1      -2.557   3.025  24.573  0.00  0.00    +0.114 C 
ATOM      9  C   UNL     1      -1.919   3.545  24.620  0.00  0.00    +0.115 C 
ENDBRANCH  10   7
ENDBRANCH  16  12
BRANCH  19  21
ATOM     21  C   UNL     1      -3.596  -1.370  24.703  0.00  0.00    +0.138 C 
ATOM     22  C   UNL     1      -3.968  -1.959  24.260  0.00  0.00    +0.027 C 
ATOM     23  C   UNL     1      -3.412  -2.544  24.095  0.00  0.00    +0.019 C 
ATOM     24  C   UNL     1      -2.695  -2.318  24.436  0.00  0.00    +0.073 C 
ATOM     25  N   UNL     1      -2.809  -1.592  24.811  0.00  0.00    -0.263 NA
BRANCH  25  26
ATOM     26  C   UNL     1      -2.237  -1.163  25.223  0.00  0.00    +0.101 C 
BRANCH  26  27
ATOM     27  C   UNL     1      -1.441  -1.236  25.019  0.00  0.00    +0.013 A 
ATOM     28  C   UNL     1      -1.113  -0.736  24.451  0.00  0.00    +0.000 A 
ATOM     29  C   UNL     1      -0.317  -0.809  24.246  0.00  0.00    +0.020 A 
ATOM     30  C   UNL     1       0.151  -1.382  24.612  0.00  0.00    +0.099 A 
ATOM     31  N   UNL     1      -0.177  -1.882  25.180  0.00  0.00    -0.243 NA
ATOM     32  C   UNL     1      -0.972  -1.809  25.384  0.00  0.00    +0.096 A 
ENDBRANCH  26  27
ENDBRANCH  25  26
ENDBRANCH  19  21
TORSDOF 5
ENDMDL
MODEL 5
REMARK VINA RESULT:     -10.5      2.506      5.069
REMARK  Name = 
REMARK  5 active torsions:
REMARK  status: ('A' for Active; 'I' for Inactive)
REMARK    1  A    between atoms: N_7  and  C_10
REMARK    2  A    between atoms: C_12  and  C_16
REMARK    3  A    between atoms: C_19  and  C_21
REMARK    4  A    between atoms: N_25  and  C_26
REMARK    5  A    between atoms: C_26  and  C_27
REMARK                            x       y       z     vdW  Elec       q    Type
REMARK                         _______ _______ _______ _____ _____    ______ ____
ROOT
ATOM     16  C   UNL     1      -1.488   1.649  24.133  0.00  0.00    +0.203 A 
ATOM     17  N   UNL     1      -1.767   2.097  23.498  0.00  0.00    -0.056 NA
ATOM     18  O   UNL     1      -2.196   2.733  23.803  0.00  0.00    -0.336 OA
ATOM     19  C   UNL     1      -2.181   2.678  24.626  0.00  0.00    +0.251 A 
ATOM     20  N   UNL     1      -1.744   2.008  24.830  0.00  0.00    -0.190 NA
ENDROOT
BRANCH  16  12
ATOM     10  C   UNL     1       0.174   0.306  23.691  0.00  0.00    +0.132 A 
ATOM     11  C   UNL     1      -0.281   0.993  23.744  0.00  0.00    +0.037 A 
ATOM     12  C   UNL     1      -1.033   0.963  24.080  0.00  0.00    +0.043 A 
ATOM     13  C   UNL     1      -1.332   0.247  24.362  0.00  0.00    +0.024 A 
ATOM     14  C   UNL     1      -0.877  -0.439  24.309  0.00  0.00    +0.100 A 
ATOM     15  N   UNL     1      -0.123  -0.409  23.973  0.00  0.00    -0.229 NA
BRANCH  10   7
ATOM      1  C   UNL     1       3.772   0.894  22.688  0.00  0.00    +0.095 C 
ATOM      2  C   UNL     1       3.186   0.424  22.347  0.00  0.00    +0.226 C 
ATOM      3  O   UNL     1       3.354  -0.017  21.671  0.00  0.00    -0.275 OA
ATOM      4  N   UNL     1       2.433   0.395  22.684  0.00  0.00    -0.276 N 
ATOM      5  C   UNL     1       1.848  -0.076  22.343  0.00  0.00    +0.115 C 
ATOM      6  C   UNL     1       1.095  -0.106  22.678  0.00  0.00    +0.114 C 
ATOM      7  N   UNL     1       0.928   0.336  23.355  0.00  0.00    -0.290 N 
ATOM      8  C   UNL     1       1.514   0.807  23.695  0.00  0.00    +0.114 C 
ATOM      9  C   UNL     1       2.266   0.836  23.360  0.00  0.00    +0.115 C 
ENDBRANCH  10   7
ENDBRANCH  16  12
BRANCH  19  21
ATOM     21  C   UNL     1      -2.541   3.200  25.154  0.00  0.00    +0.138 C 
ATOM     22  C   UNL     1      -2.151   3.708  25.675  0.00  0.00    +0.027 C 
ATOM     23  C   UNL     1      -2.722   4.129  26.096  0.00  0.00    +0.019 C 
ATOM     24  C   UNL     1      -3.465   3.882  25.835  0.00  0.00    +0.073 C 
ATOM     25  N   UNL     1      -3.353   3.308  25.252  0.00  0.00    -0.263 NA
BRANCH  25  26
ATOM     26  C   UNL     1      -3.948   2.912  24.841  0.00  0.00    +0.101 C 
BRANCH  26  27
ATOM     27  C   UNL     1      -4.684   2.792  25.194  0.00  0.00    +0.013 A 
ATOM     28  C   UNL     1      -4.931   2.028  25.383  0.00  0.00    +0.000 A 
ATOM     29  C   UNL     1      -5.667   1.907  25.737  0.00  0.00    +0.020 A 
ATOM     30  C   UNL     1      -6.155   2.552  25.901  0.00  0.00    +0.099 A 
ATOM     31  N   UNL     1      -5.908   3.315  25.712  0.00  0.00    -0.243 NA
ATOM     32  C   UNL     1      -5.173   3.436  25.359  0.00  0.00    +0.096 A 
ENDBRANCH  26  27
ENDBRANCH  25  26
ENDBRANCH  19  21
TORSDOF 5
ENDMDL
MODEL 6
REMARK VINA RESULT:     -10.4      2.050      4.404
REMARK  Name = 
REMARK  5 active torsions:
REMARK  status: ('A' for Active; 'I' for Inactive)
REMARK    1  A    between atoms: N_7  and  C_10
REMARK    2  A    between atoms: C_12  and  C_16
REMARK    3  A    between atoms: C_19  and  C_21
REMARK    4  A    between atoms: N_25  and  C_26
REMARK    5  A    between atoms: C_26  and  C_27
REMARK                            x       y       z     vdW  Elec       q    Type
REMARK                         _______ _______ _______ _____ _____    ______ ____
ROOT
ATOM     16  C   UNL     1      -3.620  -0.277  24.757  0.00  0.00    +0.203 A 
ATOM     17  N   UNL     1      -4.271  -0.496  24.298  0.00  0.00    -0.056 NA
ATOM     18  O   UNL     1      -4.856   0.078  24.396  0.00  0.00    -0.336 OA
ATOM     19  C   UNL     1      -4.567   0.651  24.914  0.00  0.00    +0.251 A 
ATOM     20  N   UNL     1      -3.803   0.432  25.137  0.00  0.00    -0.190 NA
ENDROOT
BRANCH  16  12
ATOM     10  C   UNL     1      -1.509  -0.797  24.572  0.00  0.00    +0.132 A 
ATOM     11  C   UNL     1      -2.218  -0.380  24.506  0.00  0.00    +0.037 A 
ATOM     12  C   UNL     1      -2.911  -0.694  24.823  0.00  0.00    +0.043 A 
ATOM     13  C   UNL     1      -2.897  -1.424  25.206  0.00  0.00    +0.024 A 
ATOM     14  C   UNL     1      -2.188  -1.841  25.272  0.00  0.00    +0.100 A 
ATOM     15  N   UNL     1      -1.494  -1.528  24.955  0.00  0.00    -0.229 NA
BRANCH  10   7
ATOM      1  C   UNL     1       1.719   0.010  22.777  0.00  0.00    +0.095 C 
ATOM      2  C   UNL     1       1.268   0.457  23.304  0.00  0.00    +0.226 C 
ATOM      3  O   UNL     1       1.510   1.217  23.513  0.00  0.00    -0.275 OA
ATOM      4  N   UNL     1       0.573   0.143  23.621  0.00  0.00    -0.276 N 
ATOM      5  C   UNL     1       0.122   0.589  24.147  0.00  0.00    +0.115 C 
ATOM      6  C   UNL     1      -0.572   0.277  24.464  0.00  0.00    +0.114 C 
ATOM      7  N   UNL     1      -0.814  -0.484  24.255  0.00  0.00    -0.290 N 
ATOM      8  C   UNL     1      -0.363  -0.930  23.728  0.00  0.00    +0.114 C 
ATOM      9  C   UNL     1       0.331  -0.617  23.412  0.00  0.00    +0.115 C 
ENDBRANCH  10   7
ENDBRANCH  16  12
BRANCH  19  21
ATOM     21  C   UNL     1      -4.970   1.325  25.166  0.00  0.00    +0.138 C 
ATOM     22  C   UNL     1      -5.666   1.337  25.610  0.00  0.00    +0.027 C 
ATOM     23  C   UNL     1      -5.875   2.124  25.736  0.00  0.00    +0.019 C 
ATOM     24  C   UNL     1      -5.309   2.600  25.370  0.00  0.00    +0.073 C 
ATOM     25  N   UNL     1      -4.750   2.106  25.017  0.00  0.00    -0.263 NA
BRANCH  25  26
ATOM     26  C   UNL     1      -4.087   2.350  24.591  0.00  0.00    +0.101 C 
BRANCH  26  27
ATOM     27  C   UNL     1      -3.751   3.089  24.739  0.00  0.00    +0.013 A 
ATOM     28  C   UNL     1      -3.204   3.179  25.349  0.00  0.00    +0.000 A 
ATOM     29  C   UNL     1      -2.867   3.918  25.497  0.00  0.00    +0.020 A 
ATOM     30  C   UNL     1      -3.078   4.566  25.033  0.00  0.00    +0.099 A 
ATOM     31  N   UNL     1      -3.625   4.476  24.422  0.00  0.00    -0.243 NA
ATOM     32  C   UNL     1      -3.961   3.738  24.275  0.00  0.00    +0.096 A 
ENDBRANCH  26  27
ENDBRANCH  25  26
ENDBRANCH  19  21
TORSDOF 5
ENDMDL
MODEL 7
REMARK VINA RESULT:     -10.1      1.632      4.797
REMARK  Name = 
REMARK  5 active torsions:
REMARK  status: ('A' for Active; 'I' for Inactive)
REMARK    1  A    between atoms: N_7  and  C_10
REMARK    2  A    between atoms: C_12  and  C_16
REMARK    3  A    between atoms: C_19  and  C_21
REMARK    4  A    between atoms: N_25  and  C_26
REMARK    5  A    between atoms: C_26  and  C_27
REMARK                            x       y       z     vdW  Elec       q    Type
REMARK                         _______ _______ _______ _____ _____    ______ ____
ROOT
ATOM     16  C   UNL     1      -2.448   2.530  24.756  0.00  0.00    +0.203 A 
ATOM     17  N   UNL     1      -2.923   3.076  24.360  0.00  0.00    -0.056 NA
ATOM     18  O   UNL     1      -3.702   2.806  24.391  0.00  0.00    -0.336 OA
ATOM     19  C   UNL     1      -3.708   2.093  24.806  0.00  0.00    +0.251 A 
ATOM     20  N   UNL     1      -2.933   1.923  25.031  0.00  0.00    -0.190 NA
ENDROOT
BRANCH  16  12
ATOM     10  C   UNL     1      -0.313   2.125  24.549  0.00  0.00    +0.132 A 
ATOM     11  C   UNL     1      -1.130   2.073  24.447  0.00  0.00    +0.037 A 
ATOM     12  C   UNL     1      -1.631   2.582  24.858  0.00  0.00    +0.043 A 
ATOM     13  C   UNL     1      -1.315   3.145  25.373  0.00  0.00    +0.024 A 
ATOM     14  C   UNL     1      -0.498   3.198  25.475  0.00  0.00    +0.100 A 
ATOM     15  N   UNL     1       0.003   2.687  25.063  0.00  0.00    -0.229 NA
BRANCH  10   7
ATOM      1  C   UNL     1       2.468   0.309  22.743  0.00  0.00    +0.095 C 
ATOM      2  C   UNL     1       1.690   0.084  22.902  0.00  0.00    +0.226 C 
ATOM      3  O   UNL     1       1.414  -0.650  22.650  0.00  0.00    -0.275 OA
ATOM      4  N   UNL     1       1.190   0.595  23.314  0.00  0.00    -0.276 N 
ATOM      5  C   UNL     1       0.412   0.370  23.473  0.00  0.00    +0.115 C 
ATOM      6  C   UNL     1      -0.089   0.880  23.885  0.00  0.00    +0.114 C 
ATOM      7  N   UNL     1       0.188   1.615  24.137  0.00  0.00    -0.290 N 
ATOM      8  C   UNL     1       0.966   1.840  23.978  0.00  0.00    +0.114 C 
ATOM      9  C   UNL     1       1.466   1.330  23.566  0.00  0.00    +0.115 C 
ENDBRANCH  10   7
ENDBRANCH  16  12
BRANCH  19  21
ATOM     21  C   UNL     1      -4.373   1.631  24.967  0.00  0.00    +0.138 C 
ATOM     22  C   UNL     1      -5.055   1.883  25.356  0.00  0.00    +0.027 C 
ATOM     23  C   UNL     1      -5.576   1.245  25.398  0.00  0.00    +0.019 C 
ATOM     24  C   UNL     1      -5.215   0.598  25.034  0.00  0.00    +0.073 C 
ATOM     25  N   UNL     1      -4.471   0.837  24.768  0.00  0.00    -0.263 NA
BRANCH  25  26
ATOM     26  C   UNL     1      -3.923   0.364  24.372  0.00  0.00    +0.101 C 
BRANCH  26  27
ATOM     27  C   UNL     1      -3.962  -0.456  24.438  0.00  0.00    +0.013 A 
ATOM     28  C   UNL     1      -3.621  -0.835  25.087  0.00  0.00    +0.000 A 
ATOM     29  C   UNL     1      -3.660  -1.657  25.153  0.00  0.00    +0.020 A 
ATOM     30  C   UNL     1      -4.041  -2.099  24.570  0.00  0.00    +0.099 A 
ATOM     31  N   UNL     1      -4.382  -1.721  23.922  0.00  0.00    -0.243 NA
ATOM     32  C   UNL     1      -4.343  -0.900  23.855  0.00  0.00    +0.096 A 
ENDBRANCH  26  27
ENDBRANCH  25  26
ENDBRANCH  19  21
TORSDOF 5
ENDMDL
