MODEL 1
REMARK VINA RESULT:     -14.9      0.000      0.000
REMARK  Name = 
REMARK  3 active torsions:
REMARK  status: ('A' for Active; 'I' for Inactive)
REMARK    1  A    between atoms: C_2  and  C_23
REMARK    2  A    between atoms: C_10  and  C_17
REMARK    3  A    between atoms: C_26  and  C_29
REMARK                            x       y       z     vdW  Elec       q    Type
REMARK                         _______ _______ _______ _____ _____    ______ ____
ROOT
ATOM      1  O   UNL     1      -4.132   4.037  24.457  0.00  0.00    -0.270 OA
ATOM      2  C   UNL     1      -3.930   3.183  24.443  0.00  0.00    +0.249 C 
ATOM      3  N   UNL     1      -4.539   2.644  24.732  0.00  0.00    -0.276 N 
ATOM      4  C   UNL     1      -5.300   2.511  25.050  0.00  0.00    +0.096 C 
ATOM      5  C   UNL     1      -5.281   1.526  25.120  0.00  0.00    +0.043 C 
ATOM      6  C   UNL     1      -5.422   0.733  25.240  0.00  0.00    +0.011 C 
ATOM      7  C   UNL     1      -4.901   1.136  24.997  0.00  0.00    +0.058 C 
ATOM      8  C   UNL     1      -4.936   2.089  24.936  0.00  0.00    +0.099 C 
ATOM      9  C   UNL     1      -4.049   1.086  24.657  0.00  0.00    +0.041 A 
ATOM     10  C   UNL     1      -3.467   0.534  24.465  0.00  0.00    +0.013 A 
ATOM     11  C   UNL     1      -2.746   0.786  24.154  0.00  0.00    +0.006 A 
ATOM     12  C   UNL     1      -2.682   1.676  24.058  0.00  0.00    +0.061 A 
ATOM     13  C   UNL     1      -3.189   2.142  24.225  0.00  0.00    +0.261 A 
ATOM     14  O   UNL     1      -3.071   3.170  24.096  0.00  0.00    -0.267 OA
ATOM     15  N   UNL     1      -3.910   1.890  24.537  0.00  0.00    -0.299 N 
ATOM     16  C   UNL     1      -4.390   1.484  24.763  0.00  0.00    +0.110 C 
ENDROOT
BRANCH  10  17
ATOM     17  C   UNL     1      -3.607  -0.271  24.585  0.00  0.00    +0.020 A 
ATOM     18  C   UNL     1      -3.932  -0.728  23.981  0.00  0.00    +0.003 A 
ATOM     19  C   UNL     1      -4.071  -1.532  24.101  0.00  0.00    +0.021 A 
ATOM     20  C   UNL     1      -3.886  -1.879  24.825  0.00  0.00    +0.099 A 
ATOM     21  N   UNL     1      -3.561  -1.423  25.430  0.00  0.00    -0.242 NA
ATOM     22  C   UNL     1      -3.421  -0.618  25.310  0.00  0.00    +0.099 A 
ENDBRANCH  10  17
BRANCH   2  23
ATOM     23  C   UNL     1      -3.214   2.653  24.195  0.00  0.00    +0.054 A 
ATOM     24  C   UNL     1      -2.581   2.665  24.723  0.00  0.00    +0.005 A 
ATOM     25  C   UNL     1      -1.906   2.216  24.568  0.00  0.00    +0.010 A 
ATOM     26  C   UNL     1      -1.866   1.754  23.886  0.00  0.00    +0.068 A 
ATOM     27  C   UNL     1      -2.500   1.742  23.358  0.00  0.00    +0.010 A 
ATOM     28  C   UNL     1      -3.175   2.191  23.513  0.00  0.00    +0.005 A 
BRANCH  26  29
ATOM     29  C   UNL     1      -1.192   1.305  23.730  0.00  0.00    +0.100 C 
ATOM     30  N   UNL     1      -0.518   0.855  23.575  0.00  0.00    -0.191 NA
ENDBRANCH  26  29
ENDBRANCH   2  23
TORSDOF 3
ENDMDL
MODEL 2
REMARK VINA RESULT:     -14.8      2.038      4.253
REMARK  Name = 
REMARK  3 active torsions:
REMARK  status: ('A' for Active; 'I' for Inactive)
REMARK    1  A    between atoms: C_2  and  C_23
REMARK    2  A    between atoms: C_10  and  C_17
REMARK    3  A    between atoms: C_26  and  C_29
REMARK                            x       y       z     vdW  Elec       q    Type
REMARK                         _______ _______ _______ _____ _____    ______ ____
ROOT
ATOM      1  O   UNL     1      -3.612  -3.169  24.625  0.00  0.00    -0.270 OA
ATOM      2  C   UNL     1      -3.301  -2.350  24.681  0.00  0.00    +0.249 C 
ATOM      3  N   UNL     1      -2.443  -2.266  24.637  0.00  0.00    -0.276 N 
ATOM      4  C   UNL     1      -1.683  -2.604  24.560  0.00  0.00    +0.096 C 
ATOM      5  C   UNL     1      -1.133  -1.784  24.602  0.00  0.00    +0.043 C 
ATOM      6  C   UNL     1      -0.549  -1.217  24.619  0.00  0.00    +0.011 C 
ATOM      7  C   UNL     1      -1.249  -1.242  24.659  0.00  0.00    +0.058 C 
ATOM      8  C   UNL     1      -1.767  -2.043  24.617  0.00  0.00    +0.099 C 
ATOM      9  C   UNL     1      -1.985  -0.700  24.753  0.00  0.00    +0.041 A 
ATOM     10  C   UNL     1      -2.189   0.094  24.839  0.00  0.00    +0.013 A 
ATOM     11  C   UNL     1      -2.982   0.311  24.907  0.00  0.00    +0.006 A 
ATOM     12  C   UNL     1      -3.554  -0.381  24.878  0.00  0.00    +0.061 A 
ATOM     13  C   UNL     1      -3.367  -1.061  24.804  0.00  0.00    +0.261 A 
ATOM     14  O   UNL     1      -4.066  -1.835  24.775  0.00  0.00    -0.267 OA
ATOM     15  N   UNL     1      -2.574  -1.278  24.736  0.00  0.00    -0.299 N 
ATOM     16  C   UNL     1      -1.908  -1.227  24.700  0.00  0.00    +0.110 C 
ENDROOT
BRANCH  10  17
ATOM     17  C   UNL     1      -1.600   0.672  24.857  0.00  0.00    +0.020 A 
ATOM     18  C   UNL     1      -1.272   0.904  25.576  0.00  0.00    +0.003 A 
ATOM     19  C   UNL     1      -0.683   1.481  25.594  0.00  0.00    +0.021 A 
ATOM     20  C   UNL     1      -0.422   1.827  24.892  0.00  0.00    +0.099 A 
ATOM     21  N   UNL     1      -0.751   1.595  24.172  0.00  0.00    -0.242 NA
ATOM     22  C   UNL     1      -1.340   1.017  24.154  0.00  0.00    +0.099 A 
ENDBRANCH  10  17
BRANCH   2  23
ATOM     23  C   UNL     1      -3.639  -1.494  24.780  0.00  0.00    +0.054 A 
ATOM     24  C   UNL     1      -3.989  -1.184  24.101  0.00  0.00    +0.005 A 
ATOM     25  C   UNL     1      -4.312  -0.424  24.115  0.00  0.00    +0.010 A 
ATOM     26  C   UNL     1      -4.284   0.023  24.807  0.00  0.00    +0.068 A 
ATOM     27  C   UNL     1      -3.934  -0.288  25.486  0.00  0.00    +0.010 A 
ATOM     28  C   UNL     1      -3.611  -1.047  25.473  0.00  0.00    +0.005 A 
BRANCH  26  29
ATOM     29  C   UNL     1      -4.607   0.782  24.821  0.00  0.00    +0.100 C 
ATOM     30  N   UNL     1      -4.930   1.541  24.834  0.00  0.00    -0.191 NA
ENDBRANCH  26  29
ENDBRANCH   2  23
TORSDOF 3
ENDMDL
MODEL 3
REMARK VINA RESULT:     -14.7      1.244      2.338
REMARK  Name = 
REMARK  3 active torsions:
REMARK  status: ('A' for Active; 'I' for Inactive)
REMARK    1  A    between atoms: C_2  and  C_23
REMARK    2  A    between atoms: C_10  and  C_17
REMARK    3  A    between atoms: C_26  and  C_29
REMARK                            x       y       z     vdW  Elec       q    Type
REMARK                         _______ _______ _______ _____ _____    ______ ____
ROOT
ATOM      1  O   UNL     1      -5.842   3.282  25.448  0.00  0.00    -0.270 OA
ATOM      2  C   UNL     1      -5.022   3.021  25.279  0.00  0.00    +0.249 C 
ATOM      3  N   UNL     1      -4.915   2.176  25.134  0.00  0.00    -0.276 N 
ATOM      4  C   UNL     1      -5.230   1.405  25.067  0.00  0.00    +0.096 C 
ATOM      5  C   UNL     1      -4.402   0.906  24.861  0.00  0.00    +0.043 C 
ATOM      6  C   UNL     1      -3.824   0.360  24.687  0.00  0.00    +0.011 C 
ATOM      7  C   UNL     1      -3.868   1.051  24.799  0.00  0.00    +0.058 C 
ATOM      8  C   UNL     1      -4.676   1.520  24.997  0.00  0.00    +0.099 C 
ATOM      9  C   UNL     1      -3.351   1.810  24.832  0.00  0.00    +0.041 A 
ATOM     10  C   UNL     1      -2.568   2.057  24.746  0.00  0.00    +0.013 A 
ATOM     11  C   UNL     1      -2.374   2.853  24.836  0.00  0.00    +0.006 A 
ATOM     12  C   UNL     1      -3.077   3.380  25.026  0.00  0.00    +0.061 A 
ATOM     13  C   UNL     1      -3.746   3.158  25.098  0.00  0.00    +0.261 A 
ATOM     14  O   UNL     1      -4.532   3.806  25.320  0.00  0.00    -0.267 OA
ATOM     15  N   UNL     1      -3.939   2.361  25.008  0.00  0.00    -0.299 N 
ATOM     16  C   UNL     1      -3.870   1.704  24.898  0.00  0.00    +0.110 C 
ENDROOT
BRANCH  10  17
ATOM     17  C   UNL     1      -1.979   1.506  24.570  0.00  0.00    +0.020 A 
ATOM     18  C   UNL     1      -1.579   1.121  25.179  0.00  0.00    +0.003 A 
ATOM     19  C   UNL     1      -0.991   0.570  25.003  0.00  0.00    +0.021 A 
ATOM     20  C   UNL     1      -0.802   0.405  24.217  0.00  0.00    +0.099 A 
ATOM     21  N   UNL     1      -1.202   0.790  23.608  0.00  0.00    -0.242 NA
ATOM     22  C   UNL     1      -1.791   1.341  23.784  0.00  0.00    +0.099 A 
ENDBRANCH  10  17
BRANCH   2  23
ATOM     23  C   UNL     1      -4.183   3.402  25.204  0.00  0.00    +0.054 A 
ATOM     24  C   UNL     1      -3.842   3.621  25.922  0.00  0.00    +0.005 A 
ATOM     25  C   UNL     1      -3.093   3.968  25.934  0.00  0.00    +0.010 A 
ATOM     26  C   UNL     1      -2.686   4.096  25.228  0.00  0.00    +0.068 A 
ATOM     27  C   UNL     1      -3.028   3.876  24.509  0.00  0.00    +0.010 A 
ATOM     28  C   UNL     1      -3.777   3.529  24.498  0.00  0.00    +0.005 A 
BRANCH  26  29
ATOM     29  C   UNL     1      -1.938   4.442  25.239  0.00  0.00    +0.100 C 
ATOM     30  N   UNL     1      -1.190   4.789  25.250  0.00  0.00    -0.191 NA
ENDBRANCH  26  29
ENDBRANCH   2  23
TORSDOF 3
ENDMDL
MODEL 4
REMARK VINA RESULT:     -14.6      0.878      2.451
REMARK  Name = 
REMARK  3 active torsions:
REMARK  status: ('A' for Active; 'I' for Inactive)
REMARK    1  A    between atoms: C_2  and  C_23
REMARK    2  A    between atoms: C_10  and  C_17
REMARK    3  A    between atoms: C_26  and  C_29
REMARK                            x       y       z     vdW  Elec       q    Type
REMARK                         _______ _______ _______ _____ _____    ______ ____
ROOT
ATOM      1  O   UNL     1      -2.252   3.994  24.690  0.00  0.00    -0.270 OA
ATOM      2  C   UNL     1      -2.649   3.212  24.703  0.00  0.00    +0.249 C 
ATOM      3  N   UNL     1      -2.130   2.523  24.716  0.00  0.00    -0.276 N 
ATOM      4  C   UNL     1      -1.363   2.191  24.723  0.00  0.00    +0.096 C 
ATOM      5  C   UNL     1      -1.598   1.231  24.739  0.00  0.00    +0.043 C 
ATOM      6  C   UNL     1      -1.624   0.417  24.753  0.00  0.00    +0.011 C 
ATOM      7  C   UNL     1      -2.080   0.950  24.743  0.00  0.00    +0.058 C 
ATOM      8  C   UNL     1      -1.836   1.874  24.727  0.00  0.00    +0.099 C 
ATOM      9  C   UNL     1      -2.982   1.127  24.739  0.00  0.00    +0.041 A 
ATOM     10  C   UNL     1      -3.710   0.741  24.744  0.00  0.00    +0.013 A 
ATOM     11  C   UNL     1      -4.409   1.179  24.735  0.00  0.00    +0.006 A 
ATOM     12  C   UNL     1      -4.283   2.068  24.720  0.00  0.00    +0.061 A 
ATOM     13  C   UNL     1      -3.651   2.390  24.715  0.00  0.00    +0.261 A 
ATOM     14  O   UNL     1      -3.551   3.427  24.697  0.00  0.00    -0.267 OA
ATOM     15  N   UNL     1      -2.952   1.952  24.724  0.00  0.00    -0.299 N 
ATOM     16  C   UNL     1      -2.538   1.426  24.734  0.00  0.00    +0.110 C 
ENDROOT
BRANCH  10  17
ATOM     17  C   UNL     1      -3.740  -0.084  24.759  0.00  0.00    +0.020 A 
ATOM     18  C   UNL     1      -3.815  -0.506  24.054  0.00  0.00    +0.003 A 
ATOM     19  C   UNL     1      -3.845  -1.331  24.069  0.00  0.00    +0.021 A 
ATOM     20  C   UNL     1      -3.799  -1.733  24.788  0.00  0.00    +0.099 A 
ATOM     21  N   UNL     1      -3.723  -1.310  25.492  0.00  0.00    -0.242 NA
ATOM     22  C   UNL     1      -3.694  -0.486  25.478  0.00  0.00    +0.099 A 
ENDBRANCH  10  17
BRANCH   2  23
ATOM     23  C   UNL     1      -3.513   2.882  24.707  0.00  0.00    +0.054 A 
ATOM     24  C   UNL     1      -3.906   2.961  25.428  0.00  0.00    +0.005 A 
ATOM     25  C   UNL     1      -4.681   2.689  25.507  0.00  0.00    +0.010 A 
ATOM     26  C   UNL     1      -5.063   2.339  24.865  0.00  0.00    +0.068 A 
ATOM     27  C   UNL     1      -4.670   2.261  24.144  0.00  0.00    +0.010 A 
ATOM     28  C   UNL     1      -3.894   2.532  24.065  0.00  0.00    +0.005 A 
BRANCH  26  29
ATOM     29  C   UNL     1      -5.838   2.067  24.944  0.00  0.00    +0.100 C 
ATOM     30  N   UNL     1      -6.612   1.796  25.022  0.00  0.00    -0.191 NA
ENDBRANCH  26  29
ENDBRANCH   2  23
TORSDOF 3
ENDMDL
MODEL 5
REMARK VINA RESULT:     -14.2      1.961      3.506
REMARK  Name = 
REMARK  3 active torsions:
REMARK  status: ('A' for Active; 'I' for Inactive)
REMARK    1  A    between atoms: C_2  and  C_23
REMARK    2  A    between atoms: C_10  and  C_17
REMARK    3  A    between atoms: C_26  and  C_29
REMARK                            x       y       z     vdW  Elec       q    Type
REMARK                         _______ _______ _______ _____ _____    ______ ____
ROOT
ATOM      1  O   UNL     1      -1.710  -2.920  24.655  0.00  0.00    -0.270 OA
ATOM      2  C   UNL     1      -2.004  -2.095  24.698  0.00  0.00    +0.249 C 
ATOM      3  N   UNL     1      -2.825  -1.972  24.459  0.00  0.00    -0.276 N 
ATOM      4  C   UNL     1      -3.553  -2.272  24.181  0.00  0.00    +0.096 C 
ATOM      5  C   UNL     1      -4.077  -1.435  24.153  0.00  0.00    +0.043 C 
ATOM      6  C   UNL     1      -4.634  -0.845  24.074  0.00  0.00    +0.011 C 
ATOM      7  C   UNL     1      -3.964  -0.902  24.276  0.00  0.00    +0.058 C 
ATOM      8  C   UNL     1      -3.471  -1.720  24.297  0.00  0.00    +0.099 C 
ATOM      9  C   UNL     1      -3.258  -0.400  24.580  0.00  0.00    +0.041 A 
ATOM     10  C   UNL     1      -3.060   0.378  24.770  0.00  0.00    +0.013 A 
ATOM     11  C   UNL     1      -2.300   0.557  25.038  0.00  0.00    +0.006 A 
ATOM     12  C   UNL     1      -1.756  -0.156  25.093  0.00  0.00    +0.061 A 
ATOM     13  C   UNL     1      -1.937  -0.821  24.927  0.00  0.00    +0.261 A 
ATOM     14  O   UNL     1      -1.271  -1.619  25.006  0.00  0.00    -0.267 OA
ATOM     15  N   UNL     1      -2.696  -0.999  24.659  0.00  0.00    -0.299 N 
ATOM     16  C   UNL     1      -3.334  -0.918  24.472  0.00  0.00    +0.110 C 
ENDROOT
BRANCH  10  17
ATOM     17  C   UNL     1      -3.621   0.978  24.691  0.00  0.00    +0.020 A 
ATOM     18  C   UNL     1      -3.644   1.434  24.004  0.00  0.00    +0.003 A 
ATOM     19  C   UNL     1      -4.206   2.033  23.925  0.00  0.00    +0.021 A 
ATOM     20  C   UNL     1      -4.744   2.177  24.533  0.00  0.00    +0.099 A 
ATOM     21  N   UNL     1      -4.722   1.721  25.220  0.00  0.00    -0.242 NA
ATOM     22  C   UNL     1      -4.160   1.121  25.299  0.00  0.00    +0.099 A 
ENDBRANCH  10  17
BRANCH   2  23
ATOM     23  C   UNL     1      -1.679  -1.262  24.936  0.00  0.00    +0.054 A 
ATOM     24  C   UNL     1      -1.164  -0.926  24.387  0.00  0.00    +0.005 A 
ATOM     25  C   UNL     1      -0.834  -0.184  24.532  0.00  0.00    +0.010 A 
ATOM     26  C   UNL     1      -1.018   0.221  25.226  0.00  0.00    +0.068 A 
ATOM     27  C   UNL     1      -1.534  -0.116  25.776  0.00  0.00    +0.010 A 
ATOM     28  C   UNL     1      -1.864  -0.858  25.631  0.00  0.00    +0.005 A 
BRANCH  26  29
ATOM     29  C   UNL     1      -0.688   0.963  25.372  0.00  0.00    +0.100 C 
ATOM     30  N   UNL     1      -0.359   1.705  25.517  0.00  0.00    -0.191 NA
ENDBRANCH  26  29
ENDBRANCH   2  23
TORSDOF 3
ENDMDL
MODEL 6
REMARK VINA RESULT:     -14.2      1.151      2.822
REMARK  Name = 
REMARK  3 active torsions:
REMARK  status: ('A' for Active; 'I' for Inactive)
REMARK    1  A    between atoms: C_2  and  C_23
REMARK    2  A    between atoms: C_10  and  C_17
REMARK    3  A    between atoms: C_26  and  C_29
REMARK                            x       y       z     vdW  Elec       q    Type
REMARK                         _______ _______ _______ _____ _____    ______ ____
ROOT
ATOM      1  O   UNL     1      -5.947   1.958  24.843  0.00  0.00    -0.270 OA
ATOM      2  C   UNL     1      -5.082   1.810  24.826  0.00  0.00    +0.249 C 
ATOM      3  N   UNL     1      -4.577   2.495  24.968  0.00  0.00    -0.276 N 
ATOM      4  C   UNL     1      -4.485   3.310  25.129  0.00  0.00    +0.096 C 
ATOM      5  C   UNL     1      -3.499   3.364  25.154  0.00  0.00    +0.043 C 
ATOM      6  C   UNL     1      -2.714   3.573  25.206  0.00  0.00    +0.011 C 
ATOM      7  C   UNL     1      -3.089   2.992  25.087  0.00  0.00    +0.058 C 
ATOM      8  C   UNL     1      -4.043   2.956  25.066  0.00  0.00    +0.099 C 
ATOM      9  C   UNL     1      -2.992   2.095  24.912  0.00  0.00    +0.041 A 
ATOM     10  C   UNL     1      -2.408   1.522  24.808  0.00  0.00    +0.013 A 
ATOM     11  C   UNL     1      -2.621   0.741  24.652  0.00  0.00    +0.006 A 
ATOM     12  C   UNL     1      -3.508   0.605  24.613  0.00  0.00    +0.061 A 
ATOM     13  C   UNL     1      -4.001   1.105  24.704  0.00  0.00    +0.261 A 
ATOM     14  O   UNL     1      -5.023   0.902  24.649  0.00  0.00    -0.267 OA
ATOM     15  N   UNL     1      -3.789   1.886  24.860  0.00  0.00    -0.299 N 
ATOM     16  C   UNL     1      -3.408   2.426  24.971  0.00  0.00    +0.110 C 
ENDROOT
BRANCH  10  17
ATOM     17  C   UNL     1      -1.611   1.731  24.860  0.00  0.00    +0.020 A 
ATOM     18  C   UNL     1      -1.222   1.694  25.587  0.00  0.00    +0.003 A 
ATOM     19  C   UNL     1      -0.426   1.903  25.639  0.00  0.00    +0.021 A 
ATOM     20  C   UNL     1      -0.018   2.148  24.965  0.00  0.00    +0.099 A 
ATOM     21  N   UNL     1      -0.407   2.185  24.238  0.00  0.00    -0.242 NA
ATOM     22  C   UNL     1      -1.204   1.976  24.186  0.00  0.00    +0.099 A 
ENDBRANCH  10  17
BRANCH   2  23
ATOM     23  C   UNL     1      -4.513   1.093  24.694  0.00  0.00    +0.054 A 
ATOM     24  C   UNL     1      -4.483   0.560  25.322  0.00  0.00    +0.005 A 
ATOM     25  C   UNL     1      -3.995  -0.105  25.275  0.00  0.00    +0.010 A 
ATOM     26  C   UNL     1      -3.539  -0.236  24.601  0.00  0.00    +0.068 A 
ATOM     27  C   UNL     1      -3.570   0.299  23.972  0.00  0.00    +0.010 A 
ATOM     28  C   UNL     1      -4.057   0.964  24.019  0.00  0.00    +0.005 A 
BRANCH  26  29
ATOM     29  C   UNL     1      -3.052  -0.899  24.554  0.00  0.00    +0.100 C 
ATOM     30  N   UNL     1      -2.566  -1.563  24.506  0.00  0.00    -0.191 NA
ENDBRANCH  26  29
ENDBRANCH   2  23
TORSDOF 3
ENDMDL
