MODEL 1
REMARK VINA RESULT:     -11.8      0.000      0.000
REMARK  Name = 
REMARK  6 active torsions:
REMARK  status: ('A' for Active; 'I' for Inactive)
REMARK    1  A    between atoms: O_2  and  C_3
REMARK    2  A    between atoms: C_3  and  C_5
REMARK    3  A    between atoms: C_11  and  C_13
REMARK    4  A    between atoms: C_16  and  C_19
REMARK    5  A    between atoms: N_21  and  C_22
REMARK    6  A    between atoms: C_22  and  C_23
REMARK                            x       y       z     vdW  Elec       q    Type
REMARK                         _______ _______ _______ _____ _____    ______ ____
ROOT
ATOM      5  C   UNL     1      -1.428   1.780  24.785  0.00  0.00    +0.181 C 
ATOM      6  C   UNL     1      -0.965   1.109  24.901  0.00  0.00    +0.078 C 
ATOM      7  C   UNL     1      -1.322   0.385  25.075  0.00  0.00    +0.076 A 
ATOM      8  C   UNL     1      -2.143   0.334  25.131  0.00  0.00    +0.072 A 
ATOM      9  C   UNL     1      -2.608   1.007  25.014  0.00  0.00    +0.139 C 
ATOM     10  N   UNL     1      -2.250   1.729  24.841  0.00  0.00    -0.262 N 
ATOM     11  C   UNL     1      -2.714   2.401  24.724  0.00  0.00    +0.250 C 
ATOM     12  O   UNL     1      -2.356   3.125  24.551  0.00  0.00    -0.270 OA
ATOM     21  N   UNL     1      -2.339  -0.447  25.307  0.00  0.00    -0.307 N 
ATOM     29  C   UNL     1      -1.639  -0.880  25.360  0.00  0.00    +0.178 A 
ATOM     30  N   UNL     1      -1.010  -0.365  25.216  0.00  0.00    -0.229 NA
ENDROOT
BRANCH  11  13
ATOM     13  C   UNL     1      -3.535   2.350  24.780  0.00  0.00    +0.054 A 
ATOM     14  C   UNL     1      -3.984   2.179  24.110  0.00  0.00    +0.005 A 
ATOM     15  C   UNL     1      -4.806   2.128  24.166  0.00  0.00    +0.010 A 
ATOM     16  C   UNL     1      -5.178   2.248  24.892  0.00  0.00    +0.068 A 
ATOM     17  C   UNL     1      -4.728   2.419  25.563  0.00  0.00    +0.010 A 
ATOM     18  C   UNL     1      -3.907   2.470  25.507  0.00  0.00    +0.005 A 
BRANCH  16  19
ATOM     19  C   UNL     1      -6.000   2.197  24.949  0.00  0.00    +0.100 C 
ATOM     20  N   UNL     1      -6.821   2.146  25.005  0.00  0.00    -0.191 NA
ENDBRANCH  16  19
ENDBRANCH  11  13
BRANCH   5   3
ATOM      3  C   UNL     1      -1.071   2.503  24.612  0.00  0.00    +0.336 C 
ATOM      4  O   UNL     1      -0.992   2.748  23.828  0.00  0.00    -0.248 OA
BRANCH   3   2
ATOM      1  C   UNL     1      -0.317   3.634  25.052  0.00  0.00    +0.256 C 
ATOM      2  O   UNL     1      -0.792   2.982  25.223  0.00  0.00    -0.443 OA
ENDBRANCH   3   2
ENDBRANCH   5   3
BRANCH  21  22
ATOM     22  C   UNL     1      -3.102  -0.745  25.412  0.00  0.00    +0.134 C 
BRANCH  22  23
ATOM     23  C   UNL     1      -3.338  -1.425  25.010  0.00  0.00    +0.000 A 
ATOM     24  C   UNL     1      -3.761  -1.361  24.304  0.00  0.00    -0.002 A 
ATOM     25  C   UNL     1      -3.998  -2.041  23.902  0.00  0.00    -0.000 A 
ATOM     26  C   UNL     1      -3.811  -2.785  24.205  0.00  0.00    -0.000 A 
ATOM     27  C   UNL     1      -3.389  -2.849  24.910  0.00  0.00    -0.000 A 
ATOM     28  C   UNL     1      -3.152  -2.169  25.312  0.00  0.00    -0.002 A 
ENDBRANCH  22  23
ENDBRANCH  21  22
TORSDOF 6
ENDMDL
MODEL 2
REMARK VINA RESULT:     -11.4      1.329      3.265
REMARK  Name = 
REMARK  6 active torsions:
REMARK  status: ('A' for Active; 'I' for Inactive)
REMARK    1  A    between atoms: O_2  and  C_3
REMARK    2  A    between atoms: C_3  and  C_5
REMARK    3  A    between atoms: C_11  and  C_13
REMARK    4  A    between atoms: C_16  and  C_19
REMARK    5  A    between atoms: N_21  and  C_22
REMARK    6  A    between atoms: C_22  and  C_23
REMARK                            x       y       z     vdW  Elec       q    Type
REMARK                         _______ _______ _______ _____ _____    ______ ____
ROOT
ATOM      5  C   UNL     1      -4.284   2.647  24.879  0.00  0.00    +0.181 C 
ATOM      6  C   UNL     1      -4.902   2.101  24.881  0.00  0.00    +0.078 C 
ATOM      7  C   UNL     1      -4.742   1.296  24.792  0.00  0.00    +0.076 A 
ATOM      8  C   UNL     1      -3.964   1.038  24.701  0.00  0.00    +0.072 A 
ATOM      9  C   UNL     1      -3.345   1.585  24.699  0.00  0.00    +0.139 C 
ATOM     10  N   UNL     1      -3.506   2.389  24.788  0.00  0.00    -0.262 N 
ATOM     11  C   UNL     1      -2.888   2.935  24.786  0.00  0.00    +0.250 C 
ATOM     12  O   UNL     1      -3.048   3.740  24.875  0.00  0.00    -0.270 OA
ATOM     21  N   UNL     1      -3.974   0.218  24.625  0.00  0.00    -0.307 N 
ATOM     29  C   UNL     1      -4.759  -0.032  24.669  0.00  0.00    +0.178 A 
ATOM     30  N   UNL     1      -5.233   0.635  24.773  0.00  0.00    -0.229 NA
ENDROOT
BRANCH  11  13
ATOM     13  C   UNL     1      -2.109   2.677  24.694  0.00  0.00    +0.054 A 
ATOM     14  C   UNL     1      -1.791   2.588  23.939  0.00  0.00    +0.005 A 
ATOM     15  C   UNL     1      -1.012   2.331  23.848  0.00  0.00    +0.010 A 
ATOM     16  C   UNL     1      -0.553   2.162  24.512  0.00  0.00    +0.068 A 
ATOM     17  C   UNL     1      -0.872   2.251  25.268  0.00  0.00    +0.010 A 
ATOM     18  C   UNL     1      -1.651   2.509  25.359  0.00  0.00    +0.005 A 
BRANCH  16  19
ATOM     19  C   UNL     1       0.226   1.904  24.421  0.00  0.00    +0.100 C 
ATOM     20  N   UNL     1       1.004   1.646  24.329  0.00  0.00    -0.191 NA
ENDBRANCH  16  19
ENDBRANCH  11  13
BRANCH   5   3
ATOM      3  C   UNL     1      -4.444   3.451  24.968  0.00  0.00    +0.336 C 
ATOM      4  O   UNL     1      -4.395   3.957  24.318  0.00  0.00    -0.248 OA
BRANCH   3   2
ATOM      1  C   UNL     1      -5.148   4.409  25.762  0.00  0.00    +0.256 C 
ATOM      2  O   UNL     1      -4.654   3.750  25.708  0.00  0.00    -0.443 OA
ENDBRANCH   3   2
ENDBRANCH   5   3
BRANCH  21  22
ATOM     22  C   UNL     1      -3.315  -0.269  24.523  0.00  0.00    +0.134 C 
BRANCH  22  23
ATOM     23  C   UNL     1      -3.373  -1.078  24.674  0.00  0.00    +0.000 A 
ATOM     24  C   UNL     1      -3.209  -1.369  25.429  0.00  0.00    -0.002 A 
ATOM     25  C   UNL     1      -3.266  -2.178  25.580  0.00  0.00    -0.000 A 
ATOM     26  C   UNL     1      -3.487  -2.696  24.976  0.00  0.00    -0.000 A 
ATOM     27  C   UNL     1      -3.650  -2.405  24.222  0.00  0.00    -0.000 A 
ATOM     28  C   UNL     1      -3.593  -1.596  24.071  0.00  0.00    -0.002 A 
ENDBRANCH  22  23
ENDBRANCH  21  22
TORSDOF 6
ENDMDL
MODEL 3
REMARK VINA RESULT:     -11.4      1.949      4.374
REMARK  Name = 
REMARK  6 active torsions:
REMARK  status: ('A' for Active; 'I' for Inactive)
REMARK    1  A    between atoms: O_2  and  C_3
REMARK    2  A    between atoms: C_3  and  C_5
REMARK    3  A    between atoms: C_11  and  C_13
REMARK    4  A    between atoms: C_16  and  C_19
REMARK    5  A    between atoms: N_21  and  C_22
REMARK    6  A    between atoms: C_22  and  C_23
REMARK                            x       y       z     vdW  Elec       q    Type
REMARK                         _______ _______ _______ _____ _____    ______ ____
ROOT
ATOM      5  C   UNL     1      -4.845   2.052  25.109  0.00  0.00    +0.181 C 
ATOM      6  C   UNL     1      -4.511   2.803  25.053  0.00  0.00    +0.078 C 
ATOM      7  C   UNL     1      -3.712   2.887  24.868  0.00  0.00    +0.076 A 
ATOM      8  C   UNL     1      -3.246   2.219  24.739  0.00  0.00    +0.072 A 
ATOM      9  C   UNL     1      -3.580   1.466  24.795  0.00  0.00    +0.139 C 
ATOM     10  N   UNL     1      -4.380   1.383  24.980  0.00  0.00    -0.262 N 
ATOM     11  C   UNL     1      -4.713   0.631  25.035  0.00  0.00    +0.250 C 
ATOM     12  O   UNL     1      -5.514   0.547  25.221  0.00  0.00    -0.270 OA
ATOM     21  N   UNL     1      -2.480   2.471  24.566  0.00  0.00    -0.307 N 
ATOM     29  C   UNL     1      -2.472   3.295  24.589  0.00  0.00    +0.178 A 
ATOM     30  N   UNL     1      -3.233   3.552  24.776  0.00  0.00    -0.229 NA
ENDROOT
BRANCH  11  13
ATOM     13  C   UNL     1      -4.248  -0.038  24.906  0.00  0.00    +0.054 A 
ATOM     14  C   UNL     1      -4.174  -0.348  24.146  0.00  0.00    +0.005 A 
ATOM     15  C   UNL     1      -3.709  -1.017  24.016  0.00  0.00    +0.010 A 
ATOM     16  C   UNL     1      -3.317  -1.376  24.647  0.00  0.00    +0.068 A 
ATOM     17  C   UNL     1      -3.391  -1.065  25.409  0.00  0.00    +0.010 A 
ATOM     18  C   UNL     1      -3.857  -0.396  25.538  0.00  0.00    +0.005 A 
BRANCH  16  19
ATOM     19  C   UNL     1      -2.852  -2.044  24.518  0.00  0.00    +0.100 C 
ATOM     20  N   UNL     1      -2.386  -2.713  24.388  0.00  0.00    -0.191 NA
ENDBRANCH  16  19
ENDBRANCH  11  13
BRANCH   5   3
ATOM      3  C   UNL     1      -5.644   1.968  25.294  0.00  0.00    +0.336 C 
ATOM      4  O   UNL     1      -6.204   1.905  24.691  0.00  0.00    -0.248 OA
BRANCH   3   2
ATOM      1  C   UNL     1      -6.666   2.123  26.282  0.00  0.00    +0.256 C 
ATOM      2  O   UNL     1      -5.885   1.947  26.083  0.00  0.00    -0.443 OA
ENDBRANCH   3   2
ENDBRANCH   5   3
BRANCH  21  22
ATOM     22  C   UNL     1      -1.835   1.983  24.400  0.00  0.00    +0.134 C 
BRANCH  22  23
ATOM     23  C   UNL     1      -1.109   2.121  24.767  0.00  0.00    +0.000 A 
ATOM     24  C   UNL     1      -0.520   2.542  24.371  0.00  0.00    -0.002 A 
ATOM     25  C   UNL     1       0.206   2.679  24.737  0.00  0.00    -0.000 A 
ATOM     26  C   UNL     1       0.343   2.396  25.500  0.00  0.00    -0.000 A 
ATOM     27  C   UNL     1      -0.246   1.976  25.896  0.00  0.00    -0.000 A 
ATOM     28  C   UNL     1      -0.972   1.839  25.530  0.00  0.00    -0.002 A 
ENDBRANCH  22  23
ENDBRANCH  21  22
TORSDOF 6
ENDMDL
MODEL 4
REMARK VINA RESULT:     -11.3      1.539      3.748
REMARK  Name = 
REMARK  6 active torsions:
REMARK  status: ('A' for Active; 'I' for Inactive)
REMARK    1  A    between atoms: O_2  and  C_3
REMARK    2  A    between atoms: C_3  and  C_5
REMARK    3  A    between atoms: C_11  and  C_13
REMARK    4  A    between atoms: C_16  and  C_19
REMARK    5  A    between atoms: N_21  and  C_22
REMARK    6  A    between atoms: C_22  and  C_23
REMARK                            x       y       z     vdW  Elec       q    Type
REMARK                         _______ _______ _______ _____ _____    ______ ____
ROOT
ATOM      5  C   UNL     1      -1.735   0.005  24.929  0.00  0.00    +0.181 C 
ATOM      6  C   UNL     1      -2.432  -0.416  24.803  0.00  0.00    +0.078 C 
ATOM      7  C   UNL     1      -3.141  -0.014  24.671  0.00  0.00    +0.076 A 
ATOM      8  C   UNL     1      -3.151   0.811  24.665  0.00  0.00    +0.072 A 
ATOM      9  C   UNL     1      -2.452   1.233  24.792  0.00  0.00    +0.139 C 
ATOM     10  N   UNL     1      -1.745   0.830  24.923  0.00  0.00    -0.262 N 
ATOM     11  C   UNL     1      -1.048   1.252  25.050  0.00  0.00    +0.250 C 
ATOM     12  O   UNL     1      -0.340   0.849  25.181  0.00  0.00    -0.270 OA
ATOM     21  N   UNL     1      -3.925   1.056  24.522  0.00  0.00    -0.307 N 
ATOM     29  C   UNL     1      -4.394   0.383  24.439  0.00  0.00    +0.178 A 
ATOM     30  N   UNL     1      -3.909  -0.278  24.531  0.00  0.00    -0.229 NA
ENDROOT
BRANCH  11  13
ATOM     13  C   UNL     1      -1.058   2.077  25.044  0.00  0.00    +0.054 A 
ATOM     14  C   UNL     1      -0.944   2.486  24.338  0.00  0.00    +0.005 A 
ATOM     15  C   UNL     1      -0.954   3.311  24.332  0.00  0.00    +0.010 A 
ATOM     16  C   UNL     1      -1.078   3.727  25.034  0.00  0.00    +0.068 A 
ATOM     17  C   UNL     1      -1.192   3.317  25.741  0.00  0.00    +0.010 A 
ATOM     18  C   UNL     1      -1.182   2.492  25.747  0.00  0.00    +0.005 A 
BRANCH  16  19
ATOM     19  C   UNL     1      -1.088   4.552  25.028  0.00  0.00    +0.100 C 
ATOM     20  N   UNL     1      -1.098   5.377  25.023  0.00  0.00    -0.191 NA
ENDBRANCH  16  19
ENDBRANCH  11  13
BRANCH   5   3
ATOM      3  C   UNL     1      -1.028  -0.398  25.060  0.00  0.00    +0.336 C 
ATOM      4  O   UNL     1      -0.779  -0.554  25.831  0.00  0.00    -0.248 OA
BRANCH   3   2
ATOM      1  C   UNL     1      -0.040  -1.271  24.509  0.00  0.00    +0.256 C 
ATOM      2  O   UNL     1      -0.569  -0.644  24.421  0.00  0.00    -0.443 OA
ENDBRANCH   3   2
ENDBRANCH   5   3
BRANCH  21  22
ATOM     22  C   UNL     1      -4.185   1.837  24.471  0.00  0.00    +0.134 C 
BRANCH  22  23
ATOM     23  C   UNL     1      -4.844   2.082  24.903  0.00  0.00    +0.000 A 
ATOM     24  C   UNL     1      -4.751   2.595  25.543  0.00  0.00    -0.002 A 
ATOM     25  C   UNL     1      -5.410   2.839  25.975  0.00  0.00    -0.000 A 
ATOM     26  C   UNL     1      -6.162   2.570  25.766  0.00  0.00    -0.000 A 
ATOM     27  C   UNL     1      -6.255   2.058  25.127  0.00  0.00    -0.000 A 
ATOM     28  C   UNL     1      -5.596   1.814  24.695  0.00  0.00    -0.002 A 
ENDBRANCH  22  23
ENDBRANCH  21  22
TORSDOF 6
ENDMDL
