MODEL 1
REMARK VINA RESULT:      -9.9      0.000      0.000
REMARK  Name = 
REMARK  6 active torsions:
REMARK  status: ('A' for Active; 'I' for Inactive)
REMARK    1  A    between atoms: C_2  and  C_3
REMARK    2  A    between atoms: C_10  and  C_11
REMARK    3  A    between atoms: C_11  and  N_12
REMARK    4  A    between atoms: N_12  and  C_13
REMARK    5  A    between atoms: C_13  and  C_14
REMARK    6  A    between atoms: C_17  and  O_18
REMARK                            x       y       z     vdW  Elec       q    Type
REMARK                         _______ _______ _______ _____ _____    ______ ____
ROOT
ATOM     11  C   UNL     1      -3.199   2.071  24.893  0.00  0.00    +0.105 C 
ENDROOT
BRANCH  11  10
ATOM      3  C   UNL     1      -1.740   3.920  25.155  0.00  0.00    +0.016 C 
ATOM      4  C   UNL     1      -2.486   4.068  24.995  0.00  0.00    +0.072 C 
ATOM      5  N   UNL     1      -2.146   3.321  25.084  0.00  0.00    -0.273 NA
ATOM      6  C   UNL     1      -1.129   3.467  25.294  0.00  0.00    +0.072 C 
ATOM      7  C   UNL     1      -0.536   3.227  25.424  0.00  0.00    +0.017 C 
ATOM      8  C   UNL     1      -1.413   3.184  25.241  0.00  0.00    +0.004 C 
ATOM      9  C   UNL     1      -1.757   2.378  25.188  0.00  0.00    +0.018 C 
ATOM     10  C   UNL     1      -2.497   2.480  25.031  0.00  0.00    +0.075 C 
BRANCH   3   2
ATOM      1  C   UNL     1      -1.516   5.331  25.100  0.00  0.00    +0.000 C 
ATOM      2  C   UNL     1      -1.236   4.568  25.245  0.00  0.00    +0.001 C 
ENDBRANCH   3   2
ENDBRANCH  11  10
BRANCH  11  12
ATOM     12  N   UNL     1      -3.202   1.246  24.885  0.00  0.00    -0.212 NA
BRANCH  12  13
ATOM     13  C   UNL     1      -3.915   0.838  24.818  0.00  0.00    +0.115 C 
BRANCH  13  14
ATOM     14  C   UNL     1      -3.913   0.018  24.721  0.00  0.00    -0.005 A 
ATOM     15  C   UNL     1      -3.786  -0.473  25.372  0.00  0.00    +0.000 A 
ATOM     16  C   UNL     1      -3.784  -1.293  25.275  0.00  0.00    +0.037 A 
ATOM     17  C   UNL     1      -3.909  -1.620  24.529  0.00  0.00    +0.139 A 
ATOM     20  C   UNL     1      -4.036  -1.129  23.878  0.00  0.00    +0.037 A 
ATOM     21  C   UNL     1      -4.038  -0.310  23.974  0.00  0.00    +0.000 A 
BRANCH  17  18
ATOM     18  O   UNL     1      -3.907  -2.440  24.431  0.00  0.00    -0.471 OA
ATOM     19  C   UNL     1      -3.215  -2.869  24.566  0.00  0.00    +0.252 C 
ENDBRANCH  17  18
ENDBRANCH  13  14
ENDBRANCH  12  13
ENDBRANCH  11  12
TORSDOF 6
ENDMDL
MODEL 2
REMARK VINA RESULT:      -9.9      1.894      5.261
REMARK  Name = 
REMARK  6 active torsions:
REMARK  status: ('A' for Active; 'I' for Inactive)
REMARK    1  A    between atoms: C_2  and  C_3
REMARK    2  A    between atoms: C_10  and  C_11
REMARK    3  A    between atoms: C_11  and  N_12
REMARK    4  A    between atoms: N_12  and  C_13
REMARK    5  A    between atoms: C_13  and  C_14
REMARK    6  A    between atoms: C_17  and  O_18
REMARK                            x       y       z     vdW  Elec       q    Type
REMARK                         _______ _______ _______ _____ _____    ______ ____
ROOT
ATOM     11  C   UNL     1      -4.168   0.808  24.653  0.00  0.00    +0.105 C 
ENDROOT
BRANCH  11  10
ATOM      3  C   UNL     1      -3.887  -1.539  24.485  0.00  0.00    +0.016 C 
ATOM      4  C   UNL     1      -4.204  -1.168  23.878  0.00  0.00    +0.072 C 
ATOM      5  N   UNL     1      -3.953  -0.821  24.584  0.00  0.00    -0.273 NA
ATOM      6  C   UNL     1      -3.577  -1.591  25.190  0.00  0.00    +0.072 C 
ATOM      7  C   UNL     1      -3.307  -1.792  25.749  0.00  0.00    +0.017 C 
ATOM      8  C   UNL     1      -3.643  -1.192  25.175  0.00  0.00    +0.004 C 
ATOM      9  C   UNL     1      -3.651  -0.358  25.449  0.00  0.00    +0.018 C 
ATOM     10  C   UNL     1      -3.957   0.043  24.876  0.00  0.00    +0.075 C 
BRANCH   3   2
ATOM      1  C   UNL     1      -4.081  -2.754  23.757  0.00  0.00    +0.000 C 
ATOM      2  C   UNL     1      -3.792  -2.357  24.420  0.00  0.00    +0.001 C 
ENDBRANCH   3   2
ENDBRANCH  11  10
BRANCH  11  12
ATOM     12  N   UNL     1      -3.752   1.455  24.950  0.00  0.00    -0.212 NA
BRANCH  12  13
ATOM     13  C   UNL     1      -3.927   2.216  24.685  0.00  0.00    +0.115 C 
BRANCH  13  14
ATOM     14  C   UNL     1      -3.451   2.851  24.910  0.00  0.00    -0.005 A 
ATOM     15  C   UNL     1      -2.750   3.006  24.503  0.00  0.00    +0.000 A 
ATOM     16  C   UNL     1      -2.274   3.641  24.728  0.00  0.00    +0.037 A 
ATOM     17  C   UNL     1      -2.499   4.122  25.359  0.00  0.00    +0.139 A 
ATOM     20  C   UNL     1      -3.200   3.967  25.766  0.00  0.00    +0.037 A 
ATOM     21  C   UNL     1      -3.676   3.332  25.542  0.00  0.00    +0.000 A 
BRANCH  17  18
ATOM     18  O   UNL     1      -2.024   4.757  25.585  0.00  0.00    -0.471 OA
ATOM     19  C   UNL     1      -1.356   4.950  25.141  0.00  0.00    +0.252 C 
ENDBRANCH  17  18
ENDBRANCH  13  14
ENDBRANCH  12  13
ENDBRANCH  11  12
TORSDOF 6
ENDMDL
MODEL 3
REMARK VINA RESULT:      -9.6      0.692      1.039
REMARK  Name = 
REMARK  6 active torsions:
REMARK  status: ('A' for Active; 'I' for Inactive)
REMARK    1  A    between atoms: C_2  and  C_3
REMARK    2  A    between atoms: C_10  and  C_11
REMARK    3  A    between atoms: C_11  and  N_12
REMARK    4  A    between atoms: N_12  and  C_13
REMARK    5  A    between atoms: C_13  and  C_14
REMARK    6  A    between atoms: C_17  and  O_18
REMARK                            x       y       z     vdW  Elec       q    Type
REMARK                         _______ _______ _______ _____ _____    ______ ____
ROOT
ATOM     11  C   UNL     1      -3.574   2.011  24.431  0.00  0.00    +0.105 C 
ENDROOT
BRANCH  11  10
ATOM      3  C   UNL     1      -2.206   3.804  25.159  0.00  0.00    +0.016 C 
ATOM      4  C   UNL     1      -1.951   3.373  24.563  0.00  0.00    +0.072 C 
ATOM      5  N   UNL     1      -2.660   3.267  24.973  0.00  0.00    -0.273 NA
ATOM      6  C   UNL     1      -2.703   4.009  25.713  0.00  0.00    +0.072 C 
ATOM      7  C   UNL     1      -3.012   4.297  26.211  0.00  0.00    +0.017 C 
ATOM      8  C   UNL     1      -2.903   3.694  25.556  0.00  0.00    +0.004 C 
ATOM      9  C   UNL     1      -3.548   3.107  25.460  0.00  0.00    +0.018 C 
ATOM     10  C   UNL     1      -3.335   2.660  24.879  0.00  0.00    +0.075 C 
BRANCH   3   2
ATOM      1  C   UNL     1      -1.011   4.577  25.019  0.00  0.00    +0.000 C 
ATOM      2  C   UNL     1      -1.724   4.427  25.407  0.00  0.00    +0.001 C 
ENDBRANCH   3   2
ENDBRANCH  11  10
BRANCH  11  12
ATOM     12  N   UNL     1      -3.666   1.273  24.789  0.00  0.00    -0.212 NA
BRANCH  12  13
ATOM     13  C   UNL     1      -4.121   0.692  24.422  0.00  0.00    +0.115 C 
BRANCH  13  14
ATOM     14  C   UNL     1      -3.989  -0.104  24.594  0.00  0.00    -0.005 A 
ATOM     15  C   UNL     1      -3.772  -0.331  25.358  0.00  0.00    +0.000 A 
ATOM     16  C   UNL     1      -3.640  -1.126  25.531  0.00  0.00    +0.037 A 
ATOM     17  C   UNL     1      -3.726  -1.696  24.940  0.00  0.00    +0.139 A 
ATOM     20  C   UNL     1      -3.944  -1.470  24.177  0.00  0.00    +0.037 A 
ATOM     21  C   UNL     1      -4.075  -0.675  24.004  0.00  0.00    +0.000 A 
BRANCH  17  18
ATOM     18  O   UNL     1      -3.595  -2.492  25.112  0.00  0.00    -0.471 OA
ATOM     19  C   UNL     1      -3.181  -2.966  24.579  0.00  0.00    +0.252 C 
ENDBRANCH  17  18
ENDBRANCH  13  14
ENDBRANCH  12  13
ENDBRANCH  11  12
TORSDOF 6
ENDMDL
MODEL 4
REMARK VINA RESULT:      -9.4      2.011      5.386
REMARK  Name = 
REMARK  6 active torsions:
REMARK  status: ('A' for Active; 'I' for Inactive)
REMARK    1  A    between atoms: C_2  and  C_3
REMARK    2  A    between atoms: C_10  and  C_11
REMARK    3  A    between atoms: C_11  and  N_12
REMARK    4  A    between atoms: N_12  and  C_13
REMARK    5  A    between atoms: C_13  and  C_14
REMARK    6  A    between atoms: C_17  and  O_18
REMARK                            x       y       z     vdW  Elec       q    Type
REMARK                         _______ _______ _______ _____ _____    ______ ____
ROOT
ATOM     11  C   UNL     1      -1.815   0.224  25.007  0.00  0.00    +0.105 C 
ENDROOT
BRANCH  11  10
ATOM      3  C   UNL     1      -3.296  -1.568  24.548  0.00  0.00    +0.016 C 
ATOM      4  C   UNL     1      -2.582  -1.744  24.801  0.00  0.00    +0.072 C 
ATOM      5  N   UNL     1      -2.880  -0.985  24.675  0.00  0.00    -0.273 NA
ATOM      6  C   UNL     1      -3.867  -1.092  24.337  0.00  0.00    +0.072 C 
ATOM      7  C   UNL     1      -4.430  -0.830  24.135  0.00  0.00    +0.017 C 
ATOM      8  C   UNL     1      -3.582  -0.820  24.427  0.00  0.00    +0.004 C 
ATOM      9  C   UNL     1      -3.219  -0.028  24.530  0.00  0.00    +0.018 C 
ATOM     10  C   UNL     1      -2.509  -0.158  24.779  0.00  0.00    +0.075 C 
BRANCH   3   2
ATOM      1  C   UNL     1      -3.548  -2.974  24.488  0.00  0.00    +0.000 C 
ATOM      2  C   UNL     1      -3.808  -2.197  24.390  0.00  0.00    +0.001 C 
ENDBRANCH   3   2
ENDBRANCH  11  10
BRANCH  11  12
ATOM     12  N   UNL     1      -1.776   1.048  25.001  0.00  0.00    -0.212 NA
BRANCH  12  13
ATOM     13  C   UNL     1      -1.090   1.430  25.255  0.00  0.00    +0.115 C 
BRANCH  13  14
ATOM     14  C   UNL     1      -1.029   2.250  25.193  0.00  0.00    -0.005 A 
ATOM     15  C   UNL     1      -1.325   2.733  25.794  0.00  0.00    +0.000 A 
ATOM     16  C   UNL     1      -1.263   3.553  25.733  0.00  0.00    +0.037 A 
ATOM     17  C   UNL     1      -0.906   3.891  25.071  0.00  0.00    +0.139 A 
ATOM     20  C   UNL     1      -0.610   3.409  24.470  0.00  0.00    +0.037 A 
ATOM     21  C   UNL     1      -0.672   2.590  24.531  0.00  0.00    +0.000 A 
BRANCH  17  18
ATOM     18  O   UNL     1      -0.844   4.712  25.008  0.00  0.00    -0.471 OA
ATOM     19  C   UNL     1      -1.509   5.185  25.130  0.00  0.00    +0.252 C 
ENDBRANCH  17  18
ENDBRANCH  13  14
ENDBRANCH  12  13
ENDBRANCH  11  12
TORSDOF 6
ENDMDL
MODEL 5
REMARK VINA RESULT:      -9.3      1.119      1.668
REMARK  Name = 
REMARK  6 active torsions:
REMARK  status: ('A' for Active; 'I' for Inactive)
REMARK    1  A    between atoms: C_2  and  C_3
REMARK    2  A    between atoms: C_10  and  C_11
REMARK    3  A    between atoms: C_11  and  N_12
REMARK    4  A    between atoms: N_12  and  C_13
REMARK    5  A    between atoms: C_13  and  C_14
REMARK    6  A    between atoms: C_17  and  O_18
REMARK                            x       y       z     vdW  Elec       q    Type
REMARK                         _______ _______ _______ _____ _____    ______ ____
ROOT
ATOM     11  C   UNL     1      -4.522   1.494  25.104  0.00  0.00    +0.105 C 
ENDROOT
BRANCH  11  10
ATOM      3  C   UNL     1      -3.274   3.507  25.035  0.00  0.00    +0.016 C 
ATOM      4  C   UNL     1      -3.190   3.050  25.660  0.00  0.00    +0.072 C 
ATOM      5  N   UNL     1      -3.676   2.902  25.009  0.00  0.00    -0.273 NA
ATOM      6  C   UNL     1      -3.561   3.707  24.347  0.00  0.00    +0.072 C 
ATOM      7  C   UNL     1      -3.708   4.005  23.785  0.00  0.00    +0.017 C 
ATOM      8  C   UNL     1      -3.753   3.355  24.401  0.00  0.00    +0.004 C 
ATOM      9  C   UNL     1      -4.292   2.687  24.218  0.00  0.00    +0.018 C 
ATOM     10  C   UNL     1      -4.238   2.211  24.812  0.00  0.00    +0.075 C 
BRANCH   3   2
ATOM      1  C   UNL     1      -2.276   4.358  25.605  0.00  0.00    +0.000 C 
ATOM      2  C   UNL     1      -2.836   4.207  25.018  0.00  0.00    +0.001 C 
ENDBRANCH   3   2
ENDBRANCH  11  10
BRANCH  11  12
ATOM     12  N   UNL     1      -4.276   0.783  24.764  0.00  0.00    -0.212 NA
BRANCH  12  13
ATOM     13  C   UNL     1      -4.558   0.066  25.058  0.00  0.00    +0.115 C 
BRANCH  13  14
ATOM     14  C   UNL     1      -4.143  -0.631  24.912  0.00  0.00    -0.005 A 
ATOM     15  C   UNL     1      -3.613  -0.922  25.473  0.00  0.00    +0.000 A 
ATOM     16  C   UNL     1      -3.198  -1.620  25.327  0.00  0.00    +0.037 A 
ATOM     17  C   UNL     1      -3.312  -2.027  24.618  0.00  0.00    +0.139 A 
ATOM     20  C   UNL     1      -3.842  -1.736  24.056  0.00  0.00    +0.037 A 
ATOM     21  C   UNL     1      -4.257  -1.039  24.203  0.00  0.00    +0.000 A 
BRANCH  17  18
ATOM     18  O   UNL     1      -2.898  -2.724  24.471  0.00  0.00    -0.471 OA
ATOM     19  C   UNL     1      -2.075  -2.708  24.402  0.00  0.00    +0.252 C 
ENDBRANCH  17  18
ENDBRANCH  13  14
ENDBRANCH  12  13
ENDBRANCH  11  12
TORSDOF 6
ENDMDL
MODEL 6
REMARK VINA RESULT:      -7.3      2.442      3.720
REMARK  Name = 
REMARK  6 active torsions:
REMARK  status: ('A' for Active; 'I' for Inactive)
REMARK    1  A    between atoms: C_2  and  C_3
REMARK    2  A    between atoms: C_10  and  C_11
REMARK    3  A    between atoms: C_11  and  N_12
REMARK    4  A    between atoms: N_12  and  C_13
REMARK    5  A    between atoms: C_13  and  C_14
REMARK    6  A    between atoms: C_17  and  O_18
REMARK                            x       y       z     vdW  Elec       q    Type
REMARK                         _______ _______ _______ _____ _____    ______ ____
ROOT
ATOM     11  C   UNL     1      -2.972   3.149  24.328  0.00  0.00    +0.105 C 
ENDROOT
BRANCH  11  10
ATOM      3  C   UNL     1      -5.167   2.593  25.027  0.00  0.00    +0.016 C 
ATOM      4  C   UNL     1      -4.836   2.145  24.483  0.00  0.00    +0.072 C 
ATOM      5  N   UNL     1      -4.495   2.804  24.846  0.00  0.00    -0.273 NA
ATOM      6  C   UNL     1      -5.198   3.180  25.527  0.00  0.00    +0.072 C 
ATOM      7  C   UNL     1      -5.373   3.618  25.980  0.00  0.00    +0.017 C 
ATOM      8  C   UNL     1      -4.826   3.238  25.378  0.00  0.00    +0.004 C 
ATOM      9  C   UNL     1      -4.041   3.617  25.277  0.00  0.00    +0.018 C 
ATOM     10  C   UNL     1      -3.681   3.203  24.746  0.00  0.00    +0.075 C 
BRANCH   3   2
ATOM      1  C   UNL     1      -6.281   1.697  24.993  0.00  0.00    +0.000 C 
ATOM      2  C   UNL     1      -5.932   2.394  25.266  0.00  0.00    +0.001 C 
ENDBRANCH   3   2
ENDBRANCH  11  10
BRANCH  11  12
ATOM     12  N   UNL     1      -2.358   2.678  24.615  0.00  0.00    -0.212 NA
BRANCH  12  13
ATOM     13  C   UNL     1      -1.655   2.615  24.189  0.00  0.00    +0.115 C 
BRANCH  13  14
ATOM     14  C   UNL     1      -1.224   1.912  24.208  0.00  0.00    -0.005 A 
ATOM     15  C   UNL     1      -1.305   1.361  23.599  0.00  0.00    +0.000 A 
ATOM     16  C   UNL     1      -0.875   0.658  23.618  0.00  0.00    +0.037 A 
ATOM     17  C   UNL     1      -0.362   0.505  24.246  0.00  0.00    +0.139 A 
ATOM     20  C   UNL     1      -0.280   1.056  24.855  0.00  0.00    +0.037 A 
ATOM     21  C   UNL     1      -0.710   1.758  24.836  0.00  0.00    +0.000 A 
BRANCH  17  18
ATOM     18  O   UNL     1       0.069  -0.198  24.265  0.00  0.00    -0.471 OA
ATOM     19  C   UNL     1      -0.313  -0.911  24.427  0.00  0.00    +0.252 C 
ENDBRANCH  17  18
ENDBRANCH  13  14
ENDBRANCH  12  13
ENDBRANCH  11  12
TORSDOF 6
ENDMDL
MODEL 7
REMARK VINA RESULT:      -7.2     16.230     18.330
REMARK  Name = 
REMARK  6 active torsions:
REMARK  status: ('A' for Active; 'I' for Inactive)
REMARK    1  A    between atoms: C_2  and  C_3
REMARK    2  A    between atoms: C_10  and  C_11
REMARK    3  A    between atoms: C_11  and  N_12
REMARK    4  A    between atoms: N_12  and  C_13
REMARK    5  A    between atoms: C_13  and  C_14
REMARK    6  A    between atoms: C_17  and  O_18
REMARK                            x       y       z     vdW  Elec       q    Type
REMARK                         _______ _______ _______ _____ _____    ______ ____
ROOT
ATOM     11  C   UNL     1      13.979   6.845  19.695  0.00  0.00    +0.105 C 
ENDROOT
BRANCH  11  10
ATOM      3  C   UNL     1      16.293   6.356  19.561  0.00  0.00    +0.016 C 
ATOM      4  C   UNL     1      15.877   6.319  18.905  0.00  0.00    +0.072 C 
ATOM      5  N   UNL     1      15.590   6.514  19.654  0.00  0.00    -0.273 NA
ATOM      6  C   UNL     1      16.401   6.474  20.317  0.00  0.00    +0.072 C 
ATOM      7  C   UNL     1      16.646   6.536  20.919  0.00  0.00    +0.017 C 
ATOM      8  C   UNL     1      16.004   6.549  20.293  0.00  0.00    +0.004 C 
ATOM      9  C   UNL     1      15.199   6.762  20.570  0.00  0.00    +0.018 C 
ATOM     10  C   UNL     1      14.755   6.736  19.949  0.00  0.00    +0.075 C 
BRANCH   3   2
ATOM      1  C   UNL     1      17.402   5.834  18.824  0.00  0.00    +0.000 C 
ATOM      2  C   UNL     1      17.100   6.185  19.508  0.00  0.00    +0.001 C 
ENDBRANCH   3   2
ENDBRANCH  11  10
BRANCH  11  12
ATOM     12  N   UNL     1      13.370   6.919  20.248  0.00  0.00    -0.212 NA
BRANCH  12  13
ATOM     13  C   UNL     1      12.584   6.890  20.000  0.00  0.00    +0.115 C 
BRANCH  13  14
ATOM     14  C   UNL     1      11.981   7.114  20.517  0.00  0.00    -0.005 A 
ATOM     15  C   UNL     1      11.607   7.844  20.424  0.00  0.00    +0.000 A 
ATOM     16  C   UNL     1      11.004   8.068  20.941  0.00  0.00    +0.037 A 
ATOM     17  C   UNL     1      10.775   7.562  21.551  0.00  0.00    +0.139 A 
ATOM     20  C   UNL     1      11.149   6.832  21.644  0.00  0.00    +0.037 A 
ATOM     21  C   UNL     1      11.751   6.608  21.128  0.00  0.00    +0.000 A 
BRANCH  17  18
ATOM     18  O   UNL     1      10.172   7.785  22.068  0.00  0.00    -0.471 OA
ATOM     19  C   UNL     1      10.340   8.279  22.707  0.00  0.00    +0.252 C 
ENDBRANCH  17  18
ENDBRANCH  13  14
ENDBRANCH  12  13
ENDBRANCH  11  12
TORSDOF 6
ENDMDL
MODEL 8
REMARK VINA RESULT:      -6.7     16.056     18.287
REMARK  Name = 
REMARK  6 active torsions:
REMARK  status: ('A' for Active; 'I' for Inactive)
REMARK    1  A    between atoms: C_2  and  C_3
REMARK    2  A    between atoms: C_10  and  C_11
REMARK    3  A    between atoms: C_11  and  N_12
REMARK    4  A    between atoms: N_12  and  C_13
REMARK    5  A    between atoms: C_13  and  C_14
REMARK    6  A    between atoms: C_17  and  O_18
REMARK                            x       y       z     vdW  Elec       q    Type
REMARK                         _______ _______ _______ _____ _____    ______ ____
ROOT
ATOM     11  C   UNL     1      13.465   7.583  21.084  0.00  0.00    +0.105 C 
ENDROOT
BRANCH  11  10
ATOM      3  C   UNL     1      11.217   7.265  21.761  0.00  0.00    +0.016 C 
ATOM      4  C   UNL     1      11.507   7.985  21.799  0.00  0.00    +0.072 C 
ATOM      5  N   UNL     1      11.908   7.311  21.543  0.00  0.00    -0.273 NA
ATOM      6  C   UNL     1      11.239   6.507  21.614  0.00  0.00    +0.072 C 
ATOM      7  C   UNL     1      11.104   5.872  21.540  0.00  0.00    +0.017 C 
ATOM      8  C   UNL     1      11.616   6.607  21.509  0.00  0.00    +0.004 C 
ATOM      9  C   UNL     1      12.437   6.493  21.219  0.00  0.00    +0.018 C 
ATOM     10  C   UNL     1      12.760   7.185  21.241  0.00  0.00    +0.075 C 
BRANCH   3   2
ATOM      1  C   UNL     1       9.999   7.802  22.284  0.00  0.00    +0.000 C 
ATOM      2  C   UNL     1      10.432   7.161  21.998  0.00  0.00    +0.001 C 
ENDBRANCH   3   2
ENDBRANCH  11  10
BRANCH  11  12
ATOM     12  N   UNL     1      14.093   7.186  20.725  0.00  0.00    -0.212 NA
BRANCH  12  13
ATOM     13  C   UNL     1      14.813   7.571  20.610  0.00  0.00    +0.115 C 
BRANCH  13  14
ATOM     14  C   UNL     1      15.461   7.155  20.315  0.00  0.00    -0.005 A 
ATOM     15  C   UNL     1      15.501   6.969  19.512  0.00  0.00    +0.000 A 
ATOM     16  C   UNL     1      16.149   6.553  19.217  0.00  0.00    +0.037 A 
ATOM     17  C   UNL     1      16.757   6.322  19.724  0.00  0.00    +0.139 A 
ATOM     20  C   UNL     1      16.717   6.508  20.527  0.00  0.00    +0.037 A 
ATOM     21  C   UNL     1      16.069   6.924  20.822  0.00  0.00    +0.000 A 
BRANCH  17  18
ATOM     18  O   UNL     1      17.405   5.906  19.430  0.00  0.00    -0.471 OA
ATOM     19  C   UNL     1      17.402   5.635  18.650  0.00  0.00    +0.252 C 
ENDBRANCH  17  18
ENDBRANCH  13  14
ENDBRANCH  12  13
ENDBRANCH  11  12
TORSDOF 6
ENDMDL
MODEL 9
REMARK VINA RESULT:      -6.1     15.743     17.952
REMARK  Name = 
REMARK  6 active torsions:
REMARK  status: ('A' for Active; 'I' for Inactive)
REMARK    1  A    between atoms: C_2  and  C_3
REMARK    2  A    between atoms: C_10  and  C_11
REMARK    3  A    between atoms: C_11  and  N_12
REMARK    4  A    between atoms: N_12  and  C_13
REMARK    5  A    between atoms: C_13  and  C_14
REMARK    6  A    between atoms: C_17  and  O_18
REMARK                            x       y       z     vdW  Elec       q    Type
REMARK                         _______ _______ _______ _____ _____    ______ ____
ROOT
ATOM     11  C   UNL     1      13.287   7.358  20.259  0.00  0.00    +0.105 C 
ENDROOT
BRANCH  11  10
ATOM      3  C   UNL     1      11.336   7.241  21.599  0.00  0.00    +0.016 C 
ATOM      4  C   UNL     1      11.663   7.940  21.496  0.00  0.00    +0.072 C 
ATOM      5  N   UNL     1      11.931   7.225  21.181  0.00  0.00    -0.273 NA
ATOM      6  C   UNL     1      11.272   6.477  21.507  0.00  0.00    +0.072 C 
ATOM      7  C   UNL     1      11.088   5.851  21.523  0.00  0.00    +0.017 C 
ATOM      8  C   UNL     1      11.605   6.544  21.287  0.00  0.00    +0.004 C 
ATOM      9  C   UNL     1      12.292   6.355  20.774  0.00  0.00    +0.018 C 
ATOM     10  C   UNL     1      12.643   7.022  20.648  0.00  0.00    +0.075 C 
BRANCH   3   2
ATOM      1  C   UNL     1      10.361   7.895  22.415  0.00  0.00    +0.000 C 
ATOM      2  C   UNL     1      10.656   7.207  22.067  0.00  0.00    +0.001 C 
ENDBRANCH   3   2
ENDBRANCH  11  10
BRANCH  11  12
ATOM     12  N   UNL     1      13.298   7.398  19.435  0.00  0.00    -0.212 NA
BRANCH  12  13
ATOM     13  C   UNL     1      13.924   7.771  19.049  0.00  0.00    +0.115 C 
BRANCH  13  14
ATOM     14  C   UNL     1      13.863   7.953  18.246  0.00  0.00    -0.005 A 
ATOM     15  C   UNL     1      13.375   8.571  17.999  0.00  0.00    +0.000 A 
ATOM     16  C   UNL     1      13.314   8.753  17.197  0.00  0.00    +0.037 A 
ATOM     17  C   UNL     1      13.741   8.317  16.642  0.00  0.00    +0.139 A 
ATOM     20  C   UNL     1      14.229   7.699  16.889  0.00  0.00    +0.037 A 
ATOM     21  C   UNL     1      14.289   7.517  17.690  0.00  0.00    +0.000 A 
BRANCH  17  18
ATOM     18  O   UNL     1      13.681   8.498  15.839  0.00  0.00    -0.471 OA
ATOM     19  C   UNL     1      14.309   8.868  15.452  0.00  0.00    +0.252 C 
ENDBRANCH  17  18
ENDBRANCH  13  14
ENDBRANCH  12  13
ENDBRANCH  11  12
TORSDOF 6
ENDMDL
MODEL 10
REMARK VINA RESULT:      -6.0     17.871     19.080
REMARK  Name = 
REMARK  6 active torsions:
REMARK  status: ('A' for Active; 'I' for Inactive)
REMARK    1  A    between atoms: C_2  and  C_3
REMARK    2  A    between atoms: C_10  and  C_11
REMARK    3  A    between atoms: C_11  and  N_12
REMARK    4  A    between atoms: N_12  and  C_13
REMARK    5  A    between atoms: C_13  and  C_14
REMARK    6  A    between atoms: C_17  and  O_18
REMARK                            x       y       z     vdW  Elec       q    Type
REMARK                         _______ _______ _______ _____ _____    ______ ____
ROOT
ATOM     11  C   UNL     1      12.978   7.489  18.706  0.00  0.00    +0.105 C 
ENDROOT
BRANCH  11  10
ATOM      3  C   UNL     1      11.913   8.680  16.957  0.00  0.00    +0.016 C 
ATOM      4  C   UNL     1      11.461   8.351  17.498  0.00  0.00    +0.072 C 
ATOM      5  N   UNL     1      12.286   8.327  17.471  0.00  0.00    -0.273 NA
ATOM      6  C   UNL     1      12.583   8.864  16.621  0.00  0.00    +0.072 C 
ATOM      7  C   UNL     1      13.054   9.094  16.231  0.00  0.00    +0.017 C 
ATOM      8  C   UNL     1      12.722   8.652  16.937  0.00  0.00    +0.004 C 
ATOM      9  C   UNL     1      13.310   8.276  17.469  0.00  0.00    +0.018 C 
ATOM     10  C   UNL     1      12.903   7.939  18.020  0.00  0.00    +0.075 C 
BRANCH   3   2
ATOM      1  C   UNL     1      10.725   8.994  16.225  0.00  0.00    +0.000 C 
ATOM      2  C   UNL     1      11.535   9.094  16.349  0.00  0.00    +0.001 C 
ENDBRANCH   3   2
ENDBRANCH  11  10
BRANCH  11  12
ATOM     12  N   UNL     1      13.727   7.304  18.999  0.00  0.00    -0.212 NA
BRANCH  12  13
ATOM     13  C   UNL     1      13.801   6.847  19.682  0.00  0.00    +0.115 C 
BRANCH  13  14
ATOM     14  C   UNL     1      14.517   6.833  20.092  0.00  0.00    -0.005 A 
ATOM     15  C   UNL     1      15.179   6.473  19.755  0.00  0.00    +0.000 A 
ATOM     16  C   UNL     1      15.894   6.459  20.165  0.00  0.00    +0.037 A 
ATOM     17  C   UNL     1      15.948   6.803  20.913  0.00  0.00    +0.139 A 
ATOM     20  C   UNL     1      15.286   7.163  21.250  0.00  0.00    +0.037 A 
ATOM     21  C   UNL     1      14.571   7.177  20.840  0.00  0.00    +0.000 A 
BRANCH  17  18
ATOM     18  O   UNL     1      16.663   6.789  21.324  0.00  0.00    -0.471 OA
ATOM     19  C   UNL     1      17.376   6.752  20.910  0.00  0.00    +0.252 C 
ENDBRANCH  17  18
ENDBRANCH  13  14
ENDBRANCH  12  13
ENDBRANCH  11  12
TORSDOF 6
ENDMDL
