REMARK  Name = 
REMARK  1 active torsions:
REMARK  status: ('A' for Active; 'I' for Inactive)
REMARK    1  A    between atoms: N_7  and  C_9
REMARK                            x       y       z     vdW  Elec       q    Type
REMARK                         _______ _______ _______ _____ _____    ______ ____
ROOT
ATOM      1  O   UNL     1       1.726   3.408   0.000  0.00  0.00    -0.219 OA
ATOM      2  C   UNL     1       2.530   3.225   0.000  0.00  0.00    +0.197 C 
ATOM      3  C   UNL     1       3.045   3.870   0.000  0.00  0.00    +0.176 C 
ATOM      4  O   UNL     1       3.870   3.870   0.000  0.00  0.00    -0.350 OA
ATOM      5  C   UNL     1       4.384   3.225   0.000  0.00  0.00    +0.160 C 
ATOM      6  C   UNL     1       4.201   2.421   0.000  0.00  0.00    +0.105 C 
ATOM      7  N   UNL     1       3.457   2.062   0.000  0.00  0.00    -0.269 NA
ATOM      8  C   UNL     1       2.714   2.421   0.000  0.00  0.00    +0.108 C 
ENDROOT
BRANCH   7   9
ATOM      9  C   UNL     1       3.457   1.238   0.000  0.00  0.00    +0.063 C 
ATOM     10  C   UNL     1       4.172   0.825   0.000  0.00  0.00    +0.048 C 
ATOM     11  C   UNL     1       4.172   0.000   0.000  0.00  0.00    +0.144 C 
ATOM     12  O   UNL     1       3.457  -0.412   0.000  0.00  0.00    -0.354 OA
ATOM     13  C   UNL     1       2.743   0.000   0.000  0.00  0.00    +0.144 C 
ATOM     14  C   UNL     1       2.743   0.825   0.000  0.00  0.00    +0.048 C 
ENDBRANCH   7   9
TORSDOF 1
