MODEL 1
REMARK VINA RESULT:     -11.8      0.000      0.000
REMARK  Name = 
REMARK  5 active torsions:
REMARK  status: ('A' for Active; 'I' for Inactive)
REMARK    1  A    between atoms: C_2  and  S_3
REMARK    2  A    between atoms: S_3  and  C_6
REMARK    3  A    between atoms: C_11  and  C_13
REMARK    4  A    between atoms: N_16  and  C_17
REMARK    5  A    between atoms: C_17  and  C_18
REMARK                            x       y       z     vdW  Elec       q    Type
REMARK                         _______ _______ _______ _____ _____    ______ ____
ROOT
ATOM      6  C   UNL     1      -0.819   3.460  25.273  0.00  0.00    +0.107 A 
ATOM      7  C   UNL     1      -1.328   2.874  24.996  0.00  0.00    +0.041 A 
ATOM      8  C   UNL     1      -1.223   2.090  25.232  0.00  0.00    +0.120 A 
ATOM      9  C   UNL     1      -0.608   1.893  25.745  0.00  0.00    +0.164 A 
ATOM     10  O   UNL     1      -0.639   1.081  25.882  0.00  0.00    -0.438 OA
ATOM     11  C   UNL     1      -1.274   0.775  25.453  0.00  0.00    +0.207 A 
ATOM     12  N   UNL     1      -1.634   1.399  25.052  0.00  0.00    -0.212 NA
ATOM     26  C   UNL     1      -0.098   2.480  26.023  0.00  0.00    +0.040 A 
ATOM     27  C   UNL     1      -0.204   3.263  25.786  0.00  0.00    +0.022 A 
ENDROOT
BRANCH  11  13
ATOM     13  C   UNL     1      -1.507  -0.016  25.430  0.00  0.00    +0.094 C 
ATOM     14  C   UNL     1      -1.037  -0.654  25.203  0.00  0.00    +0.028 C 
ATOM     15  C   UNL     1      -1.490  -1.341  25.262  0.00  0.00    +0.073 C 
ATOM     16  N   UNL     1      -2.242  -1.127  25.525  0.00  0.00    -0.268 NA
ATOM     25  C   UNL     1      -2.253  -0.308  25.629  0.00  0.00    +0.082 C 
BRANCH  16  17
ATOM     17  C   UNL     1      -2.873  -1.640  25.661  0.00  0.00    +0.099 C 
BRANCH  17  18
ATOM     18  C   UNL     1      -3.340  -1.898  25.031  0.00  0.00    -0.006 A 
ATOM     19  C   UNL     1      -3.889  -1.386  24.688  0.00  0.00    -0.001 A 
ATOM     20  C   UNL     1      -4.354  -1.644  24.058  0.00  0.00    +0.029 A 
ATOM     21  C   UNL     1      -4.272  -2.413  23.771  0.00  0.00    +0.140 A 
ATOM     22  F   UNL     1      -4.738  -2.670  23.141  0.00  0.00    -0.204 F 
ATOM     23  C   UNL     1      -3.723  -2.925  24.114  0.00  0.00    +0.029 A 
ATOM     24  C   UNL     1      -3.256  -2.667  24.744  0.00  0.00    -0.001 A 
ENDBRANCH  17  18
ENDBRANCH  16  17
ENDBRANCH  11  13
BRANCH   6   3
ATOM      3  S   UNL     1      -0.924   4.243  25.037  0.00  0.00    +0.009 S 
ATOM      4  O   UNL     1      -1.472   4.353  25.643  0.00  0.00    -0.169 OA
ATOM      5  O   UNL     1      -0.376   4.134  24.430  0.00  0.00    -0.169 OA
BRANCH   3   2
ATOM      1  C   UNL     1      -1.651   5.471  25.111  0.00  0.00    +0.028 C 
ATOM      2  C   UNL     1      -1.029   5.027  24.800  0.00  0.00    +0.156 C 
ENDBRANCH   3   2
ENDBRANCH   6   3
TORSDOF 5
ENDMDL
MODEL 2
REMARK VINA RESULT:     -11.5      3.010      6.048
REMARK  Name = 
REMARK  5 active torsions:
REMARK  status: ('A' for Active; 'I' for Inactive)
REMARK    1  A    between atoms: C_2  and  S_3
REMARK    2  A    between atoms: S_3  and  C_6
REMARK    3  A    between atoms: C_11  and  C_13
REMARK    4  A    between atoms: N_16  and  C_17
REMARK    5  A    between atoms: C_17  and  C_18
REMARK                            x       y       z     vdW  Elec       q    Type
REMARK                         _______ _______ _______ _____ _____    ______ ____
ROOT
ATOM      6  C   UNL     1      -3.552  -1.326  24.569  0.00  0.00    +0.107 A 
ATOM      7  C   UNL     1      -3.131  -0.673  24.845  0.00  0.00    +0.041 A 
ATOM      8  C   UNL     1      -3.456   0.083  24.787  0.00  0.00    +0.120 A 
ATOM      9  C   UNL     1      -4.203   0.186  24.454  0.00  0.00    +0.164 A 
ATOM     10  O   UNL     1      -4.381   0.991  24.470  0.00  0.00    -0.438 OA
ATOM     11  C   UNL     1      -3.744   1.386  24.814  0.00  0.00    +0.207 A 
ATOM     12  N   UNL     1      -3.173   0.824  25.010  0.00  0.00    -0.212 NA
ATOM     26  C   UNL     1      -4.626  -0.467  24.177  0.00  0.00    +0.040 A 
ATOM     27  C   UNL     1      -4.300  -1.223  24.235  0.00  0.00    +0.022 A 
ENDROOT
BRANCH  11  13
ATOM     13  C   UNL     1      -3.689   2.199  24.940  0.00  0.00    +0.094 C 
ATOM     14  C   UNL     1      -4.134   2.780  24.561  0.00  0.00    +0.028 C 
ATOM     15  C   UNL     1      -3.899   3.515  24.854  0.00  0.00    +0.073 C 
ATOM     16  N   UNL     1      -3.308   3.388  25.414  0.00  0.00    -0.268 NA
ATOM     25  C   UNL     1      -3.178   2.574  25.468  0.00  0.00    +0.082 C 
BRANCH  16  17
ATOM     17  C   UNL     1      -2.915   3.971  25.846  0.00  0.00    +0.099 C 
BRANCH  17  18
ATOM     18  C   UNL     1      -2.226   4.313  25.547  0.00  0.00    -0.006 A 
ATOM     19  C   UNL     1      -1.521   3.883  25.540  0.00  0.00    -0.001 A 
ATOM     20  C   UNL     1      -0.833   4.225  25.241  0.00  0.00    +0.029 A 
ATOM     21  C   UNL     1      -0.848   4.996  24.949  0.00  0.00    +0.140 A 
ATOM     22  F   UNL     1      -0.160   5.338  24.650  0.00  0.00    -0.204 F 
ATOM     23  C   UNL     1      -1.553   5.426  24.956  0.00  0.00    +0.029 A 
ATOM     24  C   UNL     1      -2.242   5.084  25.255  0.00  0.00    -0.001 A 
ENDBRANCH  17  18
ENDBRANCH  16  17
ENDBRANCH  11  13
BRANCH   6   3
ATOM      3  S   UNL     1      -3.227  -2.081  24.627  0.00  0.00    +0.009 S 
ATOM      4  O   UNL     1      -2.815  -1.959  23.923  0.00  0.00    -0.169 OA
ATOM      5  O   UNL     1      -3.639  -2.205  25.331  0.00  0.00    -0.169 OA
BRANCH   3   2
ATOM      1  C   UNL     1      -2.117  -2.966  24.468  0.00  0.00    +0.028 C 
ATOM      2  C   UNL     1      -2.902  -2.838  24.685  0.00  0.00    +0.156 C 
ENDBRANCH   3   2
ENDBRANCH   6   3
TORSDOF 5
ENDMDL
MODEL 3
REMARK VINA RESULT:     -11.2      2.652      5.698
REMARK  Name = 
REMARK  5 active torsions:
REMARK  status: ('A' for Active; 'I' for Inactive)
REMARK    1  A    between atoms: C_2  and  S_3
REMARK    2  A    between atoms: S_3  and  C_6
REMARK    3  A    between atoms: C_11  and  C_13
REMARK    4  A    between atoms: N_16  and  C_17
REMARK    5  A    between atoms: C_17  and  C_18
REMARK                            x       y       z     vdW  Elec       q    Type
REMARK                         _______ _______ _______ _____ _____    ______ ____
ROOT
ATOM      6  C   UNL     1      -2.476  -1.938  24.701  0.00  0.00    +0.107 A 
ATOM      7  C   UNL     1      -2.538  -1.117  24.675  0.00  0.00    +0.041 A 
ATOM      8  C   UNL     1      -1.868  -0.648  24.781  0.00  0.00    +0.120 A 
ATOM      9  C   UNL     1      -1.134  -1.002  24.913  0.00  0.00    +0.164 A 
ATOM     10  O   UNL     1      -0.574  -0.403  24.997  0.00  0.00    -0.438 OA
ATOM     11  C   UNL     1      -0.960   0.321  24.918  0.00  0.00    +0.207 A 
ATOM     12  N   UNL     1      -1.760   0.169  24.784  0.00  0.00    -0.212 NA
ATOM     26  C   UNL     1      -1.071  -1.825  24.939  0.00  0.00    +0.040 A 
ATOM     27  C   UNL     1      -1.743  -2.292  24.833  0.00  0.00    +0.022 A 
ENDROOT
BRANCH  11  13
ATOM     13  C   UNL     1      -0.609   1.066  24.964  0.00  0.00    +0.094 C 
ATOM     14  C   UNL     1      -0.037   1.366  24.450  0.00  0.00    +0.028 C 
ATOM     15  C   UNL     1       0.158   2.127  24.700  0.00  0.00    +0.073 C 
ATOM     16  N   UNL     1      -0.293   2.299  25.369  0.00  0.00    -0.268 NA
ATOM     25  C   UNL     1      -0.767   1.643  25.532  0.00  0.00    +0.082 C 
BRANCH  16  17
ATOM     17  C   UNL     1      -0.274   3.002  25.799  0.00  0.00    +0.099 C 
BRANCH  17  18
ATOM     18  C   UNL     1      -0.751   3.637  25.574  0.00  0.00    -0.006 A 
ATOM     19  C   UNL     1      -0.449   4.226  25.080  0.00  0.00    -0.001 A 
ATOM     20  C   UNL     1      -0.926   4.860  24.856  0.00  0.00    +0.029 A 
ATOM     21  C   UNL     1      -1.704   4.907  25.124  0.00  0.00    +0.140 A 
ATOM     22  F   UNL     1      -2.181   5.541  24.900  0.00  0.00    -0.204 F 
ATOM     23  C   UNL     1      -2.007   4.318  25.618  0.00  0.00    +0.029 A 
ATOM     24  C   UNL     1      -1.530   3.683  25.843  0.00  0.00    -0.001 A 
ENDBRANCH  17  18
ENDBRANCH  16  17
ENDBRANCH  11  13
BRANCH   6   3
ATOM      3  S   UNL     1      -3.146  -2.406  24.596  0.00  0.00    +0.009 S 
ATOM      4  O   UNL     1      -2.875  -2.628  23.849  0.00  0.00    -0.169 OA
ATOM      5  O   UNL     1      -3.419  -2.185  25.343  0.00  0.00    -0.169 OA
BRANCH   3   2
ATOM      1  C   UNL     1      -4.315  -2.743  23.845  0.00  0.00    +0.028 C 
ATOM      2  C   UNL     1      -3.818  -2.875  24.490  0.00  0.00    +0.156 C 
ENDBRANCH   3   2
ENDBRANCH   6   3
TORSDOF 5
ENDMDL
MODEL 4
REMARK VINA RESULT:     -10.8      1.775      2.382
REMARK  Name = 
REMARK  5 active torsions:
REMARK  status: ('A' for Active; 'I' for Inactive)
REMARK    1  A    between atoms: C_2  and  S_3
REMARK    2  A    between atoms: S_3  and  C_6
REMARK    3  A    between atoms: C_11  and  C_13
REMARK    4  A    between atoms: N_16  and  C_17
REMARK    5  A    between atoms: C_17  and  C_18
REMARK                            x       y       z     vdW  Elec       q    Type
REMARK                         _______ _______ _______ _____ _____    ______ ____
ROOT
ATOM      6  C   UNL     1      -2.776   3.896  25.127  0.00  0.00    +0.107 A 
ATOM      7  C   UNL     1      -2.539   3.106  25.128  0.00  0.00    +0.041 A 
ATOM      8  C   UNL     1      -3.099   2.506  25.037  0.00  0.00    +0.120 A 
ATOM      9  C   UNL     1      -3.896   2.698  24.945  0.00  0.00    +0.164 A 
ATOM     10  O   UNL     1      -4.320   1.995  24.867  0.00  0.00    -0.438 OA
ATOM     11  C   UNL     1      -3.785   1.369  24.911  0.00  0.00    +0.207 A 
ATOM     12  N   UNL     1      -3.031   1.685  25.016  0.00  0.00    -0.212 NA
ATOM     26  C   UNL     1      -4.134   3.489  24.944  0.00  0.00    +0.040 A 
ATOM     27  C   UNL     1      -3.573   4.087  25.035  0.00  0.00    +0.022 A 
ENDROOT
BRANCH  11  13
ATOM     13  C   UNL     1      -3.971   0.567  24.859  0.00  0.00    +0.094 C 
ATOM     14  C   UNL     1      -4.552   0.234  24.377  0.00  0.00    +0.028 C 
ATOM     15  C   UNL     1      -4.550  -0.582  24.499  0.00  0.00    +0.073 C 
ATOM     16  N   UNL     1      -3.967  -0.754  25.058  0.00  0.00    -0.268 NA
ATOM     25  C   UNL     1      -3.610  -0.044  25.280  0.00  0.00    +0.082 C 
BRANCH  16  17
ATOM     17  C   UNL     1      -3.775  -1.503  25.344  0.00  0.00    +0.099 C 
BRANCH  17  18
ATOM     18  C   UNL     1      -3.209  -1.961  24.956  0.00  0.00    -0.006 A 
ATOM     19  C   UNL     1      -2.406  -1.835  25.101  0.00  0.00    -0.001 A 
ATOM     20  C   UNL     1      -1.841  -2.293  24.713  0.00  0.00    +0.029 A 
ATOM     21  C   UNL     1      -2.076  -2.877  24.181  0.00  0.00    +0.140 A 
ATOM     22  F   UNL     1      -1.510  -3.334  23.793  0.00  0.00    -0.204 F 
ATOM     23  C   UNL     1      -2.879  -3.003  24.035  0.00  0.00    +0.029 A 
ATOM     24  C   UNL     1      -3.446  -2.545  24.423  0.00  0.00    -0.001 A 
ENDBRANCH  17  18
ENDBRANCH  16  17
ENDBRANCH  11  13
BRANCH   6   3
ATOM      3  S   UNL     1      -2.217   4.494  25.218  0.00  0.00    +0.009 S 
ATOM      4  O   UNL     1      -2.030   4.443  24.416  0.00  0.00    -0.169 OA
ATOM      5  O   UNL     1      -2.403   4.547  26.020  0.00  0.00    -0.169 OA
BRANCH   3   2
ATOM      1  C   UNL     1      -0.934   5.046  24.915  0.00  0.00    +0.028 C 
ATOM      2  C   UNL     1      -1.656   5.094  25.310  0.00  0.00    +0.156 C 
ENDBRANCH   3   2
ENDBRANCH   6   3
TORSDOF 5
ENDMDL
