MODEL 1
REMARK VINA RESULT:     -12.9      0.000      0.000
REMARK  Name = 
REMARK  8 active torsions:
REMARK  status: ('A' for Active; 'I' for Inactive)
REMARK    1  A    between atoms: C_4  and  C_5
REMARK    2  A    between atoms: C_10  and  N_11
REMARK    3  A    between atoms: N_14  and  C_15
REMARK    4  A    between atoms: C_23  and  C_24
REMARK    5  A    between atoms: N_26  and  C_27
REMARK    6  A    between atoms: C_27  and  C_28
REMARK    7  A    between atoms: C_27  and  C_34
REMARK    8  A    between atoms: C_28  and  C_29
REMARK                            x       y       z     vdW  Elec       q    Type
REMARK                         _______ _______ _______ _____ _____    ______ ____
ROOT
ATOM      5  C   UNL     1      -0.830   2.812  25.037  0.00  0.00    +0.249 C 
ATOM      6  O   UNL     1      -0.009   2.883  25.005  0.00  0.00    -0.270 OA
ATOM      7  N   UNL     1      -1.180   2.065  25.046  0.00  0.00    -0.268 N 
ATOM      8  C   UNL     1      -0.782   1.343  25.024  0.00  0.00    +0.096 C 
ATOM      9  C   UNL     1      -1.346   0.741  25.042  0.00  0.00    +0.045 C 
ATOM     10  C   UNL     1      -2.092   1.091  25.075  0.00  0.00    +0.126 C 
ATOM     23  C   UNL     1      -1.990   1.910  25.077  0.00  0.00    +0.174 C 
ENDROOT
BRANCH   5   4
ATOM      1  C   UNL     1      -0.132   4.307  25.002  0.00  0.00    +0.027 C 
ATOM      2  C   UNL     1      -0.953   4.236  25.045  0.00  0.00    -0.039 C 
ATOM      3  C   UNL     1      -1.424   4.913  25.069  0.00  0.00    +0.027 C 
ATOM      4  C   UNL     1      -1.302   3.489  25.062  0.00  0.00    +0.049 C 
ENDBRANCH   5   4
BRANCH  10  11
ATOM     11  N   UNL     1      -2.814   0.691  25.101  0.00  0.00    -0.186 NA
ATOM     12  C   UNL     1      -2.849  -0.111  24.915  0.00  0.00    +0.344 C 
ATOM     13  O   UNL     1      -2.162  -0.515  24.703  0.00  0.00    -0.249 OA
ATOM     14  N   UNL     1      -3.570  -0.510  24.941  0.00  0.00    -0.159 NA
BRANCH  14  15
ATOM     15  C   UNL     1      -3.605  -1.313  24.755  0.00  0.00    +0.102 A 
ATOM     16  C   UNL     1      -4.056  -1.569  24.113  0.00  0.00    +0.158 A 
ATOM     17  F   UNL     1      -4.472  -1.021  23.657  0.00  0.00    -0.203 F 
ATOM     18  C   UNL     1      -4.091  -2.371  23.927  0.00  0.00    +0.061 A 
ATOM     19  C   UNL     1      -3.675  -2.919  24.383  0.00  0.00    +0.142 A 
ATOM     20  F   UNL     1      -3.710  -3.722  24.197  0.00  0.00    -0.204 F 
ATOM     21  C   UNL     1      -3.225  -2.664  25.025  0.00  0.00    +0.031 A 
ATOM     22  C   UNL     1      -3.189  -1.861  25.211  0.00  0.00    +0.021 A 
ENDBRANCH  14  15
ENDBRANCH  10  11
BRANCH  23  24
ATOM     24  C   UNL     1      -2.592   2.473  25.106  0.00  0.00    +0.262 C 
ATOM     25  O   UNL     1      -2.563   3.078  25.667  0.00  0.00    -0.271 OA
ATOM     26  N   UNL     1      -3.222   2.431  24.576  0.00  0.00    -0.196 NA
BRANCH  26  27
ATOM     27  C   UNL     1      -3.824   2.995  24.606  0.00  0.00    +0.179 C 
BRANCH  27  34
ATOM     34  C   UNL     1      -3.956   3.493  23.963  0.00  0.00    +0.281 C 
ATOM     35  N   UNL     1      -3.918   3.194  23.195  0.00  0.00    -0.086 NA
ATOM     36  O   UNL     1      -4.126   4.291  24.087  0.00  0.00    -0.270 OA
ENDBRANCH  27  34
BRANCH  27  28
ATOM     28  C   UNL     1      -4.294   3.060  25.281  0.00  0.00    +0.064 C 
BRANCH  28  29
ATOM     29  C   UNL     1      -5.026   2.682  25.312  0.00  0.00    +0.010 A 
ATOM     30  C   UNL     1      -5.398   2.291  24.688  0.00  0.00    +0.003 A 
ATOM     31  C   UNL     1      -6.117   1.996  24.964  0.00  0.00    +0.007 A 
ATOM     32  C   UNL     1      -6.190   2.205  25.759  0.00  0.00    +0.035 A 
ATOM     33  S   UNL     1      -5.516   2.629  25.975  0.00  0.00    -0.091 S 
ENDBRANCH  28  29
ENDBRANCH  27  28
ENDBRANCH  26  27
ENDBRANCH  23  24
TORSDOF 8
ENDMDL
MODEL 2
REMARK VINA RESULT:     -11.7      2.481      5.751
REMARK  Name = 
REMARK  8 active torsions:
REMARK  status: ('A' for Active; 'I' for Inactive)
REMARK    1  A    between atoms: C_4  and  C_5
REMARK    2  A    between atoms: C_10  and  N_11
REMARK    3  A    between atoms: N_14  and  C_15
REMARK    4  A    between atoms: C_23  and  C_24
REMARK    5  A    between atoms: N_26  and  C_27
REMARK    6  A    between atoms: C_27  and  C_28
REMARK    7  A    between atoms: C_27  and  C_34
REMARK    8  A    between atoms: C_28  and  C_29
REMARK                            x       y       z     vdW  Elec       q    Type
REMARK                         _______ _______ _______ _____ _____    ______ ____
ROOT
ATOM      5  C   UNL     1      -3.985  -0.575  24.253  0.00  0.00    +0.249 C 
ATOM      6  O   UNL     1      -4.729  -0.674  23.912  0.00  0.00    -0.270 OA
ATOM      7  N   UNL     1      -3.726   0.177  24.471  0.00  0.00    -0.268 N 
ATOM      8  C   UNL     1      -4.150   0.880  24.381  0.00  0.00    +0.096 C 
ATOM      9  C   UNL     1      -3.684   1.496  24.671  0.00  0.00    +0.045 C 
ATOM     10  C   UNL     1      -2.973   1.175  24.939  0.00  0.00    +0.126 C 
ATOM     23  C   UNL     1      -2.999   0.359  24.815  0.00  0.00    +0.174 C 
ENDROOT
BRANCH   5   4
ATOM      1  C   UNL     1      -4.491  -2.078  23.797  0.00  0.00    +0.027 C 
ATOM      2  C   UNL     1      -3.751  -1.981  24.148  0.00  0.00    -0.039 C 
ATOM      3  C   UNL     1      -3.265  -2.636  24.272  0.00  0.00    +0.027 C 
ATOM      4  C   UNL     1      -3.498  -1.230  24.376  0.00  0.00    +0.049 C 
ENDBRANCH   5   4
BRANCH  10  11
ATOM     11  N   UNL     1      -2.346   1.595  25.273  0.00  0.00    -0.186 NA
ATOM     12  C   UNL     1      -2.282   2.408  25.149  0.00  0.00    +0.344 C 
ATOM     13  O   UNL     1      -2.845   2.801  24.692  0.00  0.00    -0.249 OA
ATOM     14  N   UNL     1      -1.655   2.828  25.483  0.00  0.00    -0.159 NA
BRANCH  14  15
ATOM     15  C   UNL     1      -1.591   3.641  25.359  0.00  0.00    +0.102 A 
ATOM     16  C   UNL     1      -0.914   3.952  25.005  0.00  0.00    +0.158 A 
ATOM     17  F   UNL     1      -0.301   3.450  24.774  0.00  0.00    -0.203 F 
ATOM     18  C   UNL     1      -0.850   4.765  24.881  0.00  0.00    +0.061 A 
ATOM     19  C   UNL     1      -1.462   5.267  25.111  0.00  0.00    +0.142 A 
ATOM     20  F   UNL     1      -1.398   6.080  24.988  0.00  0.00    -0.204 F 
ATOM     21  C   UNL     1      -2.139   4.957  25.466  0.00  0.00    +0.031 A 
ATOM     22  C   UNL     1      -2.204   4.143  25.589  0.00  0.00    +0.021 A 
ENDBRANCH  14  15
ENDBRANCH  10  11
BRANCH  23  24
ATOM     24  C   UNL     1      -2.403  -0.179  25.003  0.00  0.00    +0.262 C 
ATOM     25  O   UNL     1      -2.582  -0.858  25.437  0.00  0.00    -0.271 OA
ATOM     26  N   UNL     1      -1.628  -0.038  24.758  0.00  0.00    -0.196 NA
BRANCH  26  27
ATOM     27  C   UNL     1      -1.032  -0.577  24.946  0.00  0.00    +0.179 C 
BRANCH  27  34
ATOM     34  C   UNL     1      -0.868  -0.752  25.735  0.00  0.00    +0.281 C 
ATOM     35  N   UNL     1      -0.782  -1.536  25.974  0.00  0.00    -0.086 NA
ATOM     36  O   UNL     1      -0.790  -0.142  26.285  0.00  0.00    -0.270 OA
ENDBRANCH  27  34
BRANCH  27  28
ATOM     28  C   UNL     1      -0.600  -0.941  24.345  0.00  0.00    +0.064 C 
BRANCH  28  29
ATOM     29  C   UNL     1      -0.083  -0.496  23.881  0.00  0.00    +0.010 A 
ATOM     30  C   UNL     1       0.447   0.073  24.154  0.00  0.00    +0.003 A 
ATOM     31  C   UNL     1       0.852   0.378  23.503  0.00  0.00    +0.007 A 
ATOM     32  C   UNL     1       0.571  -0.002  22.827  0.00  0.00    +0.035 A 
ATOM     33  S   UNL     1      -0.007  -0.543  23.060  0.00  0.00    -0.091 S 
ENDBRANCH  28  29
ENDBRANCH  27  28
ENDBRANCH  26  27
ENDBRANCH  23  24
TORSDOF 8
ENDMDL
MODEL 3
REMARK VINA RESULT:     -10.9      2.281      5.154
REMARK  Name = 
REMARK  8 active torsions:
REMARK  status: ('A' for Active; 'I' for Inactive)
REMARK    1  A    between atoms: C_4  and  C_5
REMARK    2  A    between atoms: C_10  and  N_11
REMARK    3  A    between atoms: N_14  and  C_15
REMARK    4  A    between atoms: C_23  and  C_24
REMARK    5  A    between atoms: N_26  and  C_27
REMARK    6  A    between atoms: C_27  and  C_28
REMARK    7  A    between atoms: C_27  and  C_34
REMARK    8  A    between atoms: C_28  and  C_29
REMARK                            x       y       z     vdW  Elec       q    Type
REMARK                         _______ _______ _______ _____ _____    ______ ____
ROOT
ATOM      5  C   UNL     1      -3.151  -1.672  24.431  0.00  0.00    +0.249 C 
ATOM      6  O   UNL     1      -3.626  -2.321  24.252  0.00  0.00    -0.270 OA
ATOM      7  N   UNL     1      -3.474  -0.913  24.442  0.00  0.00    -0.268 N 
ATOM      8  C   UNL     1      -4.261  -0.720  24.286  0.00  0.00    +0.096 C 
ATOM      9  C   UNL     1      -4.341   0.098  24.358  0.00  0.00    +0.045 C 
ATOM     10  C   UNL     1      -3.604   0.410  24.559  0.00  0.00    +0.126 C 
ATOM     23  C   UNL     1      -3.068  -0.216  24.610  0.00  0.00    +0.174 C 
ENDROOT
BRANCH   5   4
ATOM      1  C   UNL     1      -2.506  -3.191  24.426  0.00  0.00    +0.027 C 
ATOM      2  C   UNL     1      -2.028  -2.541  24.596  0.00  0.00    -0.039 C 
ATOM      3  C   UNL     1      -1.227  -2.650  24.765  0.00  0.00    +0.027 C 
ATOM      4  C   UNL     1      -2.350  -1.781  24.599  0.00  0.00    +0.049 C 
ENDBRANCH   5   4
BRANCH  10  11
ATOM     11  N   UNL     1      -3.433   1.207  24.685  0.00  0.00    -0.186 NA
ATOM     12  C   UNL     1      -4.040   1.737  24.862  0.00  0.00    +0.344 C 
ATOM     13  O   UNL     1      -4.819   1.469  24.913  0.00  0.00    -0.249 OA
ATOM     14  N   UNL     1      -3.869   2.534  24.989  0.00  0.00    -0.159 NA
BRANCH  14  15
ATOM     15  C   UNL     1      -4.476   3.063  25.166  0.00  0.00    +0.102 A 
ATOM     16  C   UNL     1      -4.440   3.841  24.890  0.00  0.00    +0.158 A 
ATOM     17  F   UNL     1      -3.795   4.087  24.438  0.00  0.00    -0.203 F 
ATOM     18  C   UNL     1      -5.046   4.370  25.067  0.00  0.00    +0.061 A 
ATOM     19  C   UNL     1      -5.691   4.123  25.520  0.00  0.00    +0.142 A 
ATOM     20  F   UNL     1      -6.298   4.652  25.697  0.00  0.00    -0.204 F 
ATOM     21  C   UNL     1      -5.728   3.346  25.795  0.00  0.00    +0.031 A 
ATOM     22  C   UNL     1      -5.120   2.816  25.618  0.00  0.00    +0.021 A 
ENDBRANCH  14  15
ENDBRANCH  10  11
BRANCH  23  24
ATOM     24  C   UNL     1      -2.267  -0.153  24.797  0.00  0.00    +0.262 C 
ATOM     25  O   UNL     1      -1.951  -0.606  25.411  0.00  0.00    -0.271 OA
ATOM     26  N   UNL     1      -1.782   0.362  24.372  0.00  0.00    -0.196 NA
BRANCH  26  27
ATOM     27  C   UNL     1      -0.981   0.424  24.560  0.00  0.00    +0.179 C 
BRANCH  27  34
ATOM     34  C   UNL     1      -0.410   0.193  24.013  0.00  0.00    +0.281 C 
ATOM     35  N   UNL     1      -0.477   0.422  23.225  0.00  0.00    -0.086 NA
ATOM     36  O   UNL     1       0.231  -0.268  24.255  0.00  0.00    -0.270 OA
ENDBRANCH  27  34
BRANCH  27  28
ATOM     28  C   UNL     1      -0.753   0.717  25.297  0.00  0.00    +0.064 C 
BRANCH  28  29
ATOM     29  C   UNL     1      -0.516   1.503  25.373  0.00  0.00    +0.010 A 
ATOM     30  C   UNL     1      -0.373   2.029  24.754  0.00  0.00    +0.003 A 
ATOM     31  C   UNL     1      -0.149   2.753  25.081  0.00  0.00    +0.007 A 
ATOM     32  C   UNL     1      -0.154   2.674  25.903  0.00  0.00    +0.035 A 
ATOM     33  S   UNL     1      -0.381   1.901  26.084  0.00  0.00    -0.091 S 
ENDBRANCH  28  29
ENDBRANCH  27  28
ENDBRANCH  26  27
ENDBRANCH  23  24
TORSDOF 8
ENDMDL
MODEL 4
REMARK VINA RESULT:     -10.7      1.618      3.162
REMARK  Name = 
REMARK  8 active torsions:
REMARK  status: ('A' for Active; 'I' for Inactive)
REMARK    1  A    between atoms: C_4  and  C_5
REMARK    2  A    between atoms: C_10  and  N_11
REMARK    3  A    between atoms: N_14  and  C_15
REMARK    4  A    between atoms: C_23  and  C_24
REMARK    5  A    between atoms: N_26  and  C_27
REMARK    6  A    between atoms: C_27  and  C_28
REMARK    7  A    between atoms: C_27  and  C_34
REMARK    8  A    between atoms: C_28  and  C_29
REMARK                            x       y       z     vdW  Elec       q    Type
REMARK                         _______ _______ _______ _____ _____    ______ ____
ROOT
ATOM      5  C   UNL     1      -4.769   2.940  25.179  0.00  0.00    +0.249 C 
ATOM      6  O   UNL     1      -5.459   3.203  25.547  0.00  0.00    -0.270 OA
ATOM      7  N   UNL     1      -4.620   2.132  25.110  0.00  0.00    -0.268 N 
ATOM      8  C   UNL     1      -5.109   1.524  25.382  0.00  0.00    +0.096 C 
ATOM      9  C   UNL     1      -4.747   0.806  25.197  0.00  0.00    +0.045 C 
ATOM     10  C   UNL     1      -4.036   0.969  24.812  0.00  0.00    +0.126 C 
ATOM     23  C   UNL     1      -3.958   1.789  24.758  0.00  0.00    +0.174 C 
ENDROOT
BRANCH   5   4
ATOM      1  C   UNL     1      -5.034   4.558  25.374  0.00  0.00    +0.027 C 
ATOM      2  C   UNL     1      -4.360   4.294  24.978  0.00  0.00    -0.039 C 
ATOM      3  C   UNL     1      -3.818   4.841  24.679  0.00  0.00    +0.027 C 
ATOM      4  C   UNL     1      -4.227   3.486  24.880  0.00  0.00    +0.049 C 
ENDBRANCH   5   4
BRANCH  10  11
ATOM     11  N   UNL     1      -3.498   0.411  24.530  0.00  0.00    -0.186 NA
ATOM     12  C   UNL     1      -3.696  -0.389  24.530  0.00  0.00    +0.344 C 
ATOM     13  O   UNL     1      -4.432  -0.632  24.812  0.00  0.00    -0.249 OA
ATOM     14  N   UNL     1      -3.158  -0.948  24.248  0.00  0.00    -0.159 NA
BRANCH  14  15
ATOM     15  C   UNL     1      -3.356  -1.748  24.248  0.00  0.00    +0.102 A 
ATOM     16  C   UNL     1      -2.865  -2.295  24.624  0.00  0.00    +0.158 A 
ATOM     17  F   UNL     1      -2.176  -2.040  25.000  0.00  0.00    -0.203 F 
ATOM     18  C   UNL     1      -3.062  -3.096  24.624  0.00  0.00    +0.061 A 
ATOM     19  C   UNL     1      -3.751  -3.351  24.248  0.00  0.00    +0.142 A 
ATOM     20  F   UNL     1      -3.949  -4.151  24.248  0.00  0.00    -0.204 F 
ATOM     21  C   UNL     1      -4.242  -2.805  23.872  0.00  0.00    +0.031 A 
ATOM     22  C   UNL     1      -4.044  -2.004  23.872  0.00  0.00    +0.021 A 
ENDBRANCH  14  15
ENDBRANCH  10  11
BRANCH  23  24
ATOM     24  C   UNL     1      -3.327   2.194  24.414  0.00  0.00    +0.262 C 
ATOM     25  O   UNL     1      -3.470   2.756  23.826  0.00  0.00    -0.271 OA
ATOM     26  N   UNL     1      -2.554   2.038  24.656  0.00  0.00    -0.196 NA
BRANCH  26  27
ATOM     27  C   UNL     1      -1.924   2.443  24.310  0.00  0.00    +0.179 C 
BRANCH  27  34
ATOM     34  C   UNL     1      -1.699   2.273  23.535  0.00  0.00    +0.281 C 
ATOM     35  N   UNL     1      -1.722   2.862  22.960  0.00  0.00    -0.086 NA
ATOM     36  O   UNL     1      -1.449   1.512  23.336  0.00  0.00    -0.270 OA
ENDBRANCH  27  34
BRANCH  27  28
ATOM     28  C   UNL     1      -1.520   3.020  24.740  0.00  0.00    +0.064 C 
BRANCH  28  29
ATOM     29  C   UNL     1      -0.963   2.798  25.306  0.00  0.00    +0.010 A 
ATOM     30  C   UNL     1      -1.057   2.847  26.124  0.00  0.00    +0.003 A 
ATOM     31  C   UNL     1      -0.366   2.567  26.478  0.00  0.00    +0.007 A 
ATOM     32  C   UNL     1       0.155   2.345  25.877  0.00  0.00    +0.035 A 
ATOM     33  S   UNL     1      -0.214   2.487  25.154  0.00  0.00    -0.091 S 
ENDBRANCH  28  29
ENDBRANCH  27  28
ENDBRANCH  26  27
ENDBRANCH  23  24
TORSDOF 8
ENDMDL
MODEL 5
REMARK VINA RESULT:     -10.6      2.177      4.775
REMARK  Name = 
REMARK  8 active torsions:
REMARK  status: ('A' for Active; 'I' for Inactive)
REMARK    1  A    between atoms: C_4  and  C_5
REMARK    2  A    between atoms: C_10  and  N_11
REMARK    3  A    between atoms: N_14  and  C_15
REMARK    4  A    between atoms: C_23  and  C_24
REMARK    5  A    between atoms: N_26  and  C_27
REMARK    6  A    between atoms: C_27  and  C_28
REMARK    7  A    between atoms: C_27  and  C_34
REMARK    8  A    between atoms: C_28  and  C_29
REMARK                            x       y       z     vdW  Elec       q    Type
REMARK                         _______ _______ _______ _____ _____    ______ ____
ROOT
ATOM      5  C   UNL     1      -1.047  -1.064  24.927  0.00  0.00    +0.249 C 
ATOM      6  O   UNL     1      -0.342  -1.488  24.868  0.00  0.00    -0.270 OA
ATOM      7  N   UNL     1      -1.030  -0.242  24.997  0.00  0.00    -0.268 N 
ATOM      8  C   UNL     1      -0.353   0.229  25.017  0.00  0.00    +0.096 C 
ATOM      9  C   UNL     1      -0.592   1.015  25.092  0.00  0.00    +0.045 C 
ATOM     10  C   UNL     1      -1.416   1.030  25.119  0.00  0.00    +0.126 C 
ATOM     23  C   UNL     1      -1.687   0.252  25.060  0.00  0.00    +0.174 C 
ENDROOT
BRANCH   5   4
ATOM      1  C   UNL     1      -1.083  -2.704  24.745  0.00  0.00    +0.027 C 
ATOM      2  C   UNL     1      -1.788  -2.282  24.824  0.00  0.00    -0.039 C 
ATOM      3  C   UNL     1      -2.510  -2.680  24.812  0.00  0.00    +0.027 C 
ATOM      4  C   UNL     1      -1.770  -1.462  24.915  0.00  0.00    +0.049 C 
ENDBRANCH   5   4
BRANCH  10  11
ATOM     11  N   UNL     1      -1.887   1.703  25.192  0.00  0.00    -0.186 NA
ATOM     12  C   UNL     1      -1.550   2.452  25.116  0.00  0.00    +0.344 C 
ATOM     13  O   UNL     1      -0.743   2.528  24.966  0.00  0.00    -0.249 OA
ATOM     14  N   UNL     1      -2.021   3.126  25.189  0.00  0.00    -0.159 NA
BRANCH  14  15
ATOM     15  C   UNL     1      -1.685   3.875  25.112  0.00  0.00    +0.102 A 
ATOM     16  C   UNL     1      -2.058   4.532  25.444  0.00  0.00    +0.158 A 
ATOM     17  F   UNL     1      -2.769   4.438  25.853  0.00  0.00    -0.203 F 
ATOM     18  C   UNL     1      -1.722   5.280  25.368  0.00  0.00    +0.061 A 
ATOM     19  C   UNL     1      -1.011   5.374  24.959  0.00  0.00    +0.142 A 
ATOM     20  F   UNL     1      -0.675   6.123  24.882  0.00  0.00    -0.204 F 
ATOM     21  C   UNL     1      -0.637   4.718  24.627  0.00  0.00    +0.031 A 
ATOM     22  C   UNL     1      -0.974   3.969  24.704  0.00  0.00    +0.021 A 
ENDBRANCH  14  15
ENDBRANCH  10  11
BRANCH  23  24
ATOM     24  C   UNL     1      -2.477   0.013  25.064  0.00  0.00    +0.262 C 
ATOM     25  O   UNL     1      -2.731  -0.560  25.602  0.00  0.00    -0.271 OA
ATOM     26  N   UNL     1      -3.012   0.345  24.531  0.00  0.00    -0.196 NA
BRANCH  26  27
ATOM     27  C   UNL     1      -3.801   0.105  24.536  0.00  0.00    +0.179 C 
BRANCH  27  34
ATOM     34  C   UNL     1      -4.102  -0.336  23.908  0.00  0.00    +0.281 C 
ATOM     35  N   UNL     1      -4.616  -0.964  24.054  0.00  0.00    -0.086 NA
ATOM     36  O   UNL     1      -3.890  -0.149  23.133  0.00  0.00    -0.270 OA
ENDBRANCH  27  34
BRANCH  27  28
ATOM     28  C   UNL     1      -4.289   0.306  25.170  0.00  0.00    +0.064 C 
BRANCH  28  29
ATOM     29  C   UNL     1      -4.776   0.970  25.121  0.00  0.00    +0.010 A 
ATOM     30  C   UNL     1      -4.867   1.458  24.463  0.00  0.00    +0.003 A 
ATOM     31  C   UNL     1      -5.406   2.052  24.658  0.00  0.00    +0.007 A 
ATOM     32  C   UNL     1      -5.648   1.930  25.438  0.00  0.00    +0.035 A 
ATOM     33  S   UNL     1      -5.259   1.261  25.724  0.00  0.00    -0.091 S 
ENDBRANCH  28  29
ENDBRANCH  27  28
ENDBRANCH  26  27
ENDBRANCH  23  24
TORSDOF 8
ENDMDL
MODEL 6
REMARK VINA RESULT:     -10.5      1.677      3.377
REMARK  Name = 
REMARK  8 active torsions:
REMARK  status: ('A' for Active; 'I' for Inactive)
REMARK    1  A    between atoms: C_4  and  C_5
REMARK    2  A    between atoms: C_10  and  N_11
REMARK    3  A    between atoms: N_14  and  C_15
REMARK    4  A    between atoms: C_23  and  C_24
REMARK    5  A    between atoms: N_26  and  C_27
REMARK    6  A    between atoms: C_27  and  C_28
REMARK    7  A    between atoms: C_27  and  C_34
REMARK    8  A    between atoms: C_28  and  C_29
REMARK                            x       y       z     vdW  Elec       q    Type
REMARK                         _______ _______ _______ _____ _____    ______ ____
ROOT
ATOM      5  C   UNL     1      -3.194   3.391  25.203  0.00  0.00    +0.249 C 
ATOM      6  O   UNL     1      -3.812   3.876  25.455  0.00  0.00    -0.270 OA
ATOM      7  N   UNL     1      -3.346   2.614  24.973  0.00  0.00    -0.268 N 
ATOM      8  C   UNL     1      -4.085   2.246  24.968  0.00  0.00    +0.096 C 
ATOM      9  C   UNL     1      -3.981   1.473  24.700  0.00  0.00    +0.045 C 
ATOM     10  C   UNL     1      -3.179   1.362  24.541  0.00  0.00    +0.126 C 
ATOM     23  C   UNL     1      -2.787   2.068  24.710  0.00  0.00    +0.174 C 
ENDROOT
BRANCH   5   4
ATOM      1  C   UNL     1      -2.891   4.953  25.643  0.00  0.00    +0.027 C 
ATOM      2  C   UNL     1      -2.272   4.465  25.400  0.00  0.00    -0.039 C 
ATOM      3  C   UNL     1      -1.501   4.759  25.377  0.00  0.00    +0.027 C 
ATOM      4  C   UNL     1      -2.423   3.685  25.180  0.00  0.00    +0.049 C 
ENDBRANCH   5   4
BRANCH  10  11
ATOM     11  N   UNL     1      -2.832   0.668  24.262  0.00  0.00    -0.186 NA
ATOM     12  C   UNL     1      -3.229  -0.051  24.334  0.00  0.00    +0.344 C 
ATOM     13  O   UNL     1      -3.975  -0.076  24.686  0.00  0.00    -0.249 OA
ATOM     14  N   UNL     1      -2.881  -0.745  24.055  0.00  0.00    -0.159 NA
BRANCH  14  15
ATOM     15  C   UNL     1      -3.279  -1.464  24.127  0.00  0.00    +0.102 A 
ATOM     16  C   UNL     1      -2.923  -2.094  24.524  0.00  0.00    +0.158 A 
ATOM     17  F   UNL     1      -2.170  -2.004  24.848  0.00  0.00    -0.203 F 
ATOM     18  C   UNL     1      -3.321  -2.813  24.596  0.00  0.00    +0.061 A 
ATOM     19  C   UNL     1      -4.074  -2.903  24.272  0.00  0.00    +0.142 A 
ATOM     20  F   UNL     1      -4.472  -3.622  24.344  0.00  0.00    -0.204 F 
ATOM     21  C   UNL     1      -4.430  -2.273  23.876  0.00  0.00    +0.031 A 
ATOM     22  C   UNL     1      -4.032  -1.554  23.803  0.00  0.00    +0.021 A 
ENDBRANCH  14  15
ENDBRANCH  10  11
BRANCH  23  24
ATOM     24  C   UNL     1      -1.977   2.203  24.629  0.00  0.00    +0.262 C 
ATOM     25  O   UNL     1      -1.708   2.852  24.195  0.00  0.00    -0.271 OA
ATOM     26  N   UNL     1      -1.436   1.691  24.983  0.00  0.00    -0.196 NA
BRANCH  26  27
ATOM     27  C   UNL     1      -0.626   1.827  24.901  0.00  0.00    +0.179 C 
BRANCH  27  34
ATOM     34  C   UNL     1      -0.173   2.028  25.560  0.00  0.00    +0.281 C 
ATOM     35  N   UNL     1       0.445   2.569  25.485  0.00  0.00    -0.086 NA
ATOM     36  O   UNL     1      -0.338   1.690  26.293  0.00  0.00    -0.270 OA
ENDBRANCH  27  34
BRANCH  27  28
ATOM     28  C   UNL     1      -0.269   1.760  24.160  0.00  0.00    +0.064 C 
BRANCH  28  29
ATOM     29  C   UNL     1       0.069   1.045  23.927  0.00  0.00    +0.010 A 
ATOM     30  C   UNL     1       0.208   0.393  24.412  0.00  0.00    +0.003 A 
ATOM     31  C   UNL     1       0.553  -0.199  23.953  0.00  0.00    +0.007 A 
ATOM     32  C   UNL     1       0.628   0.089  23.182  0.00  0.00    +0.035 A 
ATOM     33  S   UNL     1       0.329   0.857  23.167  0.00  0.00    -0.091 S 
ENDBRANCH  28  29
ENDBRANCH  27  28
ENDBRANCH  26  27
ENDBRANCH  23  24
TORSDOF 8
ENDMDL
MODEL 7
REMARK VINA RESULT:     -10.5      2.592      4.627
REMARK  Name = 
REMARK  8 active torsions:
REMARK  status: ('A' for Active; 'I' for Inactive)
REMARK    1  A    between atoms: C_4  and  C_5
REMARK    2  A    between atoms: C_10  and  N_11
REMARK    3  A    between atoms: N_14  and  C_15
REMARK    4  A    between atoms: C_23  and  C_24
REMARK    5  A    between atoms: N_26  and  C_27
REMARK    6  A    between atoms: C_27  and  C_28
REMARK    7  A    between atoms: C_27  and  C_34
REMARK    8  A    between atoms: C_28  and  C_29
REMARK                            x       y       z     vdW  Elec       q    Type
REMARK                         _______ _______ _______ _____ _____    ______ ____
ROOT
ATOM      5  C   UNL     1      -3.688   2.046  24.113  0.00  0.00    +0.249 C 
ATOM      6  O   UNL     1      -4.043   2.713  23.782  0.00  0.00    -0.270 OA
ATOM      7  N   UNL     1      -2.935   1.815  23.868  0.00  0.00    -0.268 N 
ATOM      8  C   UNL     1      -2.472   2.195  23.301  0.00  0.00    +0.096 C 
ATOM      9  C   UNL     1      -1.763   1.779  23.230  0.00  0.00    +0.045 C 
ATOM     10  C   UNL     1      -1.788   1.141  23.754  0.00  0.00    +0.126 C 
ATOM     23  C   UNL     1      -2.513   1.164  24.148  0.00  0.00    +0.174 C 
ENDROOT
BRANCH   5   4
ATOM      1  C   UNL     1      -5.192   2.511  24.607  0.00  0.00    +0.027 C 
ATOM      2  C   UNL     1      -4.839   1.842  24.935  0.00  0.00    -0.039 C 
ATOM      3  C   UNL     1      -5.238   1.405  25.511  0.00  0.00    +0.027 C 
ATOM      4  C   UNL     1      -4.087   1.609  24.688  0.00  0.00    +0.049 C 
ENDBRANCH   5   4
BRANCH  10  11
ATOM     11  N   UNL     1      -1.194   0.580  23.863  0.00  0.00    -0.186 NA
ATOM     12  C   UNL     1      -0.441   0.711  23.554  0.00  0.00    +0.344 C 
ATOM     13  O   UNL     1      -0.282   1.403  23.134  0.00  0.00    -0.249 OA
ATOM     14  N   UNL     1       0.154   0.150  23.663  0.00  0.00    -0.159 NA
BRANCH  14  15
ATOM     15  C   UNL     1       0.907   0.281  23.354  0.00  0.00    +0.102 A 
ATOM     16  C   UNL     1       1.205  -0.219  22.768  0.00  0.00    +0.158 A 
ATOM     17  F   UNL     1       0.749  -0.849  22.492  0.00  0.00    -0.203 F 
ATOM     18  C   UNL     1       1.958  -0.088  22.458  0.00  0.00    +0.061 A 
ATOM     19  C   UNL     1       2.414   0.542  22.734  0.00  0.00    +0.142 A 
ATOM     20  F   UNL     1       3.167   0.673  22.424  0.00  0.00    -0.204 F 
ATOM     21  C   UNL     1       2.117   1.041  23.319  0.00  0.00    +0.031 A 
ATOM     22  C   UNL     1       1.363   0.910  23.629  0.00  0.00    +0.021 A 
ENDBRANCH  14  15
ENDBRANCH  10  11
BRANCH  23  24
ATOM     24  C   UNL     1      -2.770   0.629  24.721  0.00  0.00    +0.262 C 
ATOM     25  O   UNL     1      -3.027   0.904  25.456  0.00  0.00    -0.271 OA
ATOM     26  N   UNL     1      -2.769  -0.180  24.560  0.00  0.00    -0.196 NA
BRANCH  26  27
ATOM     27  C   UNL     1      -3.025  -0.715  25.135  0.00  0.00    +0.179 C 
BRANCH  27  34
ATOM     34  C   UNL     1      -2.548  -0.882  25.785  0.00  0.00    +0.281 C 
ATOM     35  N   UNL     1      -2.856  -0.829  26.548  0.00  0.00    -0.086 NA
ATOM     36  O   UNL     1      -1.761  -1.105  25.673  0.00  0.00    -0.270 OA
ENDBRANCH  27  34
BRANCH  27  28
ATOM     28  C   UNL     1      -3.761  -1.081  25.057  0.00  0.00    +0.064 C 
BRANCH  28  29
ATOM     29  C   UNL     1      -3.846  -1.736  24.563  0.00  0.00    +0.010 A 
ATOM     30  C   UNL     1      -4.260  -1.756  23.851  0.00  0.00    +0.003 A 
ATOM     31  C   UNL     1      -4.201  -2.519  23.542  0.00  0.00    +0.007 A 
ATOM     32  C   UNL     1      -3.750  -2.971  24.065  0.00  0.00    +0.035 A 
ATOM     33  S   UNL     1      -3.530  -2.487  24.696  0.00  0.00    -0.091 S 
ENDBRANCH  28  29
ENDBRANCH  27  28
ENDBRANCH  26  27
ENDBRANCH  23  24
TORSDOF 8
ENDMDL
MODEL 8
REMARK VINA RESULT:     -10.5      2.149      4.645
REMARK  Name = 
REMARK  8 active torsions:
REMARK  status: ('A' for Active; 'I' for Inactive)
REMARK    1  A    between atoms: C_4  and  C_5
REMARK    2  A    between atoms: C_10  and  N_11
REMARK    3  A    between atoms: N_14  and  C_15
REMARK    4  A    between atoms: C_23  and  C_24
REMARK    5  A    between atoms: N_26  and  C_27
REMARK    6  A    between atoms: C_27  and  C_28
REMARK    7  A    between atoms: C_27  and  C_34
REMARK    8  A    between atoms: C_28  and  C_29
REMARK                            x       y       z     vdW  Elec       q    Type
REMARK                         _______ _______ _______ _____ _____    ______ ____
ROOT
ATOM      5  C   UNL     1      -0.682   0.725  23.694  0.00  0.00    +0.249 C 
ATOM      6  O   UNL     1      -0.132   1.041  23.166  0.00  0.00    -0.270 OA
ATOM      7  N   UNL     1      -1.360   1.153  23.889  0.00  0.00    -0.268 N 
ATOM      8  C   UNL     1      -1.561   1.900  23.601  0.00  0.00    +0.096 C 
ATOM      9  C   UNL     1      -2.281   2.117  23.941  0.00  0.00    +0.045 C 
ATOM     10  C   UNL     1      -2.525   1.505  24.437  0.00  0.00    +0.126 C 
ATOM     23  C   UNL     1      -1.955   0.909  24.405  0.00  0.00    +0.174 C 
ENDROOT
BRANCH   5   4
ATOM      1  C   UNL     1       0.636  -0.163  23.249  0.00  0.00    +0.027 C 
ATOM      2  C   UNL     1       0.105  -0.463  23.804  0.00  0.00    -0.039 C 
ATOM      3  C   UNL     1       0.233  -1.207  24.137  0.00  0.00    +0.027 C 
ATOM      4  C   UNL     1      -0.554  -0.019  24.027  0.00  0.00    +0.049 C 
ENDBRANCH   5   4
BRANCH  10  11
ATOM     11  N   UNL     1      -3.217   1.492  24.887  0.00  0.00    -0.186 NA
ATOM     12  C   UNL     1      -3.683   2.169  24.947  0.00  0.00    +0.344 C 
ATOM     13  O   UNL     1      -3.458   2.861  24.557  0.00  0.00    -0.249 OA
ATOM     14  N   UNL     1      -4.375   2.156  25.396  0.00  0.00    -0.159 NA
BRANCH  14  15
ATOM     15  C   UNL     1      -4.841   2.833  25.456  0.00  0.00    +0.102 A 
ATOM     16  C   UNL     1      -5.663   2.774  25.411  0.00  0.00    +0.158 A 
ATOM     17  F   UNL     1      -6.018   2.037  25.305  0.00  0.00    -0.203 F 
ATOM     18  C   UNL     1      -6.129   3.452  25.471  0.00  0.00    +0.061 A 
ATOM     19  C   UNL     1      -5.775   4.189  25.577  0.00  0.00    +0.142 A 
ATOM     20  F   UNL     1      -6.241   4.867  25.637  0.00  0.00    -0.204 F 
ATOM     21  C   UNL     1      -4.953   4.249  25.623  0.00  0.00    +0.031 A 
ATOM     22  C   UNL     1      -4.486   3.571  25.563  0.00  0.00    +0.021 A 
ENDBRANCH  14  15
ENDBRANCH  10  11
BRANCH  23  24
ATOM     24  C   UNL     1      -1.978   0.195  24.818  0.00  0.00    +0.262 C 
ATOM     25  O   UNL     1      -1.345  -0.022  25.301  0.00  0.00    -0.271 OA
ATOM     26  N   UNL     1      -2.632  -0.302  24.747  0.00  0.00    -0.196 NA
BRANCH  26  27
ATOM     27  C   UNL     1      -2.654  -1.016  25.160  0.00  0.00    +0.179 C 
BRANCH  27  34
ATOM     34  C   UNL     1      -2.790  -1.019  25.973  0.00  0.00    +0.281 C 
ATOM     35  N   UNL     1      -2.192  -1.250  26.491  0.00  0.00    -0.086 NA
ATOM     36  O   UNL     1      -3.526  -0.791  26.268  0.00  0.00    -0.270 OA
ENDBRANCH  27  34
BRANCH  27  28
ATOM     28  C   UNL     1      -2.539  -1.728  24.759  0.00  0.00    +0.064 C 
BRANCH  28  29
ATOM     29  C   UNL     1      -3.178  -2.113  24.408  0.00  0.00    +0.010 A 
ATOM     30  C   UNL     1      -3.775  -1.756  23.964  0.00  0.00    +0.003 A 
ATOM     31  C   UNL     1      -4.299  -2.345  23.721  0.00  0.00    +0.007 A 
ATOM     32  C   UNL     1      -4.026  -3.067  24.016  0.00  0.00    +0.035 A 
ATOM     33  S   UNL     1      -3.334  -2.923  24.440  0.00  0.00    -0.091 S 
ENDBRANCH  28  29
ENDBRANCH  27  28
ENDBRANCH  26  27
ENDBRANCH  23  24
TORSDOF 8
ENDMDL
MODEL 9
REMARK VINA RESULT:     -10.1      2.996      4.735
REMARK  Name = 
REMARK  8 active torsions:
REMARK  status: ('A' for Active; 'I' for Inactive)
REMARK    1  A    between atoms: C_4  and  C_5
REMARK    2  A    between atoms: C_10  and  N_11
REMARK    3  A    between atoms: N_14  and  C_15
REMARK    4  A    between atoms: C_23  and  C_24
REMARK    5  A    between atoms: N_26  and  C_27
REMARK    6  A    between atoms: C_27  and  C_28
REMARK    7  A    between atoms: C_27  and  C_34
REMARK    8  A    between atoms: C_28  and  C_29
REMARK                            x       y       z     vdW  Elec       q    Type
REMARK                         _______ _______ _______ _____ _____    ______ ____
ROOT
ATOM      5  C   UNL     1      -2.350  -0.944  25.221  0.00  0.00    +0.249 C 
ATOM      6  O   UNL     1      -2.456  -1.620  25.682  0.00  0.00    -0.270 OA
ATOM      7  N   UNL     1      -1.611  -0.778  24.895  0.00  0.00    -0.268 N 
ATOM      8  C   UNL     1      -0.930  -1.236  24.981  0.00  0.00    +0.096 C 
ATOM      9  C   UNL     1      -0.321  -0.866  24.564  0.00  0.00    +0.045 C 
ATOM     10  C   UNL     1      -0.626  -0.181  24.221  0.00  0.00    +0.126 C 
ATOM     23  C   UNL     1      -1.424  -0.127  24.425  0.00  0.00    +0.174 C 
ENDROOT
BRANCH   5   4
ATOM      1  C   UNL     1      -3.828  -1.271  25.880  0.00  0.00    +0.027 C 
ATOM      2  C   UNL     1      -3.723  -0.597  25.416  0.00  0.00    -0.039 C 
ATOM      3  C   UNL     1      -4.357  -0.086  25.282  0.00  0.00    +0.027 C 
ATOM      4  C   UNL     1      -2.985  -0.433  25.087  0.00  0.00    +0.049 C 
ENDBRANCH   5   4
BRANCH  10  11
ATOM     11  N   UNL     1      -0.207   0.356  23.755  0.00  0.00    -0.186 NA
ATOM     12  C   UNL     1       0.575   0.199  23.547  0.00  0.00    +0.344 C 
ATOM     13  O   UNL     1       0.939  -0.494  23.806  0.00  0.00    -0.249 OA
ATOM     14  N   UNL     1       0.994   0.736  23.081  0.00  0.00    -0.159 NA
BRANCH  14  15
ATOM     15  C   UNL     1       1.777   0.580  22.874  0.00  0.00    +0.102 A 
ATOM     16  C   UNL     1       2.379   1.088  23.121  0.00  0.00    +0.158 A 
ATOM     17  F   UNL     1       2.197   1.752  23.575  0.00  0.00    -0.203 F 
ATOM     18  C   UNL     1       3.162   0.931  22.914  0.00  0.00    +0.061 A 
ATOM     19  C   UNL     1       3.344   0.267  22.459  0.00  0.00    +0.142 A 
ATOM     20  F   UNL     1       4.126   0.111  22.252  0.00  0.00    -0.204 F 
ATOM     21  C   UNL     1       2.743  -0.241  22.212  0.00  0.00    +0.031 A 
ATOM     22  C   UNL     1       1.959  -0.085  22.420  0.00  0.00    +0.021 A 
ENDBRANCH  14  15
ENDBRANCH  10  11
BRANCH  23  24
ATOM     24  C   UNL     1      -1.943   0.474  24.199  0.00  0.00    +0.262 C 
ATOM     25  O   UNL     1      -2.638   0.287  23.794  0.00  0.00    -0.271 OA
ATOM     26  N   UNL     1      -1.766   1.260  24.376  0.00  0.00    -0.196 NA
BRANCH  26  27
ATOM     27  C   UNL     1      -2.286   1.860  24.150  0.00  0.00    +0.179 C 
BRANCH  27  34
ATOM     34  C   UNL     1      -2.331   2.090  23.359  0.00  0.00    +0.281 C 
ATOM     35  N   UNL     1      -3.048   2.040  22.956  0.00  0.00    -0.086 NA
ATOM     36  O   UNL     1      -1.659   2.369  22.972  0.00  0.00    -0.270 OA
ENDBRANCH  27  34
BRANCH  27  28
ATOM     28  C   UNL     1      -2.760   2.230  24.714  0.00  0.00    +0.064 C 
BRANCH  28  29
ATOM     29  C   UNL     1      -2.472   2.880  25.133  0.00  0.00    +0.010 A 
ATOM     30  C   UNL     1      -1.740   2.930  25.508  0.00  0.00    +0.003 A 
ATOM     31  C   UNL     1      -1.682   3.676  25.856  0.00  0.00    +0.007 A 
ATOM     32  C   UNL     1      -2.380   4.087  25.697  0.00  0.00    +0.035 A 
ATOM     33  S   UNL     1      -2.869   3.595  25.250  0.00  0.00    -0.091 S 
ENDBRANCH  28  29
ENDBRANCH  27  28
ENDBRANCH  26  27
ENDBRANCH  23  24
TORSDOF 8
ENDMDL
