REMARK  Name = 
REMARK  3 active torsions:
REMARK  status: ('A' for Active; 'I' for Inactive)
REMARK    1  A    between atoms: C_5  and  C_7
REMARK    2  A    between atoms: C_9  and  C_10
REMARK    3  A    between atoms: C_10  and  C_11
REMARK                            x       y       z     vdW  Elec       q    Type
REMARK                         _______ _______ _______ _____ _____    ______ ____
ROOT
ATOM      7  C   UNL     1       2.046  -5.272   0.000  0.00  0.00    +0.252 A 
ATOM      8  N   UNL     1       2.301  -6.057   0.000  0.00  0.00    -0.193 NA
ATOM      9  C   UNL     1       1.633  -6.542   0.000  0.00  0.00    +0.185 A 
ATOM     19  N   UNL     1       0.966  -6.057   0.000  0.00  0.00    -0.060 NA
ATOM     20  O   UNL     1       1.221  -5.272   0.000  0.00  0.00    -0.336 OA
ENDROOT
BRANCH   7   5
ATOM      1  O   UNL     1       2.943  -2.510   0.000  0.00  0.00    -0.222 OA
ATOM      2  C   UNL     1       2.943  -3.335   0.000  0.00  0.00    +0.171 C 
ATOM      3  C   UNL     1       3.611  -3.820   0.000  0.00  0.00    +0.122 C 
ATOM      4  N   UNL     1       3.356  -4.605   0.000  0.00  0.00    -0.207 NA
ATOM      5  C   UNL     1       2.531  -4.605   0.000  0.00  0.00    +0.154 C 
ATOM      6  C   UNL     1       2.276  -3.820   0.000  0.00  0.00    +0.061 C 
ENDBRANCH   7   5
BRANCH   9  10
ATOM     10  C   UNL     1       1.633  -7.367   0.000  0.00  0.00    +0.096 C 
BRANCH  10  11
ATOM     11  C   UNL     1       0.919  -7.779   0.000  0.00  0.00    -0.004 A 
ATOM     12  C   UNL     1       0.919  -8.604   0.000  0.00  0.00    -0.001 A 
ATOM     13  C   UNL     1       0.204  -9.017   0.000  0.00  0.00    +0.029 A 
ATOM     14  C   UNL     1      -0.510  -8.604   0.000  0.00  0.00    +0.141 A 
ATOM     15  F   UNL     1      -1.225  -9.017   0.000  0.00  0.00    -0.204 F 
ATOM     16  C   UNL     1      -0.510  -7.779   0.000  0.00  0.00    +0.041 A 
ATOM     17  C   UNL     1       0.204  -7.367   0.000  0.00  0.00    +0.056 A 
ATOM     18 CL   UNL     1       0.204  -6.542   0.000  0.00  0.00    -0.082 Cl
ENDBRANCH  10  11
ENDBRANCH   9  10
TORSDOF 3
