MODEL 1
REMARK VINA RESULT:      -9.2      0.000      0.000
REMARK  Name = 
REMARK  9 active torsions:
REMARK  status: ('A' for Active; 'I' for Inactive)
REMARK    1  A    between atoms: O_2  and  C_3
REMARK    2  A    between atoms: C_5  and  N_6
REMARK    3  A    between atoms: N_9  and  C_10
REMARK    4  A    between atoms: C_10  and  C_11
REMARK    5  A    between atoms: C_15  and  C_16
REMARK    6  A    between atoms: C_16  and  C_17
REMARK    7  A    between atoms: N_19  and  C_20
REMARK    8  A    between atoms: C_20  and  C_21
REMARK    9  A    between atoms: C_28  and  C_29
REMARK                            x       y       z     vdW  Elec       q    Type
REMARK                         _______ _______ _______ _____ _____    ______ ____
ROOT
ATOM     11  C   UNL     1      -0.441   0.613  24.144  0.00  0.00    +0.043 C 
ATOM     12  C   UNL     1      -0.574  -0.195  24.242  0.00  0.00    -0.033 C 
ATOM     13  C   UNL     1      -1.306  -0.464  24.510  0.00  0.00    -0.048 C 
ATOM     14  C   UNL     1      -1.439  -1.273  24.609  0.00  0.00    +0.026 C 
ATOM     15  C   UNL     1      -1.907   0.075  24.678  0.00  0.00    +0.027 C 
ATOM     27  C   UNL     1      -1.775   0.884  24.580  0.00  0.00    +0.005 C 
ATOM     28  C   UNL     1      -1.042   1.152  24.312  0.00  0.00    +0.006 C 
ENDROOT
BRANCH  28  29
ATOM     29  C   UNL     1      -0.911   1.961  24.214  0.00  0.00    +0.000 C 
ATOM     30  C   UNL     1      -0.611   2.409  24.839  0.00  0.00    +0.000 C 
ATOM     31  C   UNL     1      -1.079   2.321  23.492  0.00  0.00    +0.000 C 
ENDBRANCH  28  29
BRANCH  11  10
ATOM     10  C   UNL     1       0.291   0.881  23.876  0.00  0.00    +0.121 C 
BRANCH  10   9
ATOM      6  N   UNL     1       2.069   0.040  22.930  0.00  0.00    -0.161 NA
ATOM      7  C   UNL     1       1.584   0.536  23.376  0.00  0.00    +0.344 C 
ATOM      8  O   UNL     1       1.909   1.187  23.768  0.00  0.00    -0.249 OA
ATOM      9  N   UNL     1       0.776   0.384  23.430  0.00  0.00    -0.187 NA
BRANCH   6   5
ATOM      3  C   UNL     1       4.226  -0.146  23.209  0.00  0.00    +0.140 A 
ATOM      4  C   UNL     1       3.417  -0.299  23.264  0.00  0.00    +0.054 A 
ATOM      5  C   UNL     1       2.877   0.192  22.875  0.00  0.00    +0.078 A 
ATOM     32  C   UNL     1       3.148   0.833  22.433  0.00  0.00    +0.017 A 
ATOM     33  C   UNL     1       3.957   0.985  22.378  0.00  0.00    +0.004 A 
ATOM     34  C   UNL     1       4.496   0.495  22.767  0.00  0.00    +0.037 A 
BRANCH   3   2
ATOM      1  C   UNL     1       5.429  -0.311  23.962  0.00  0.00    +0.252 C 
ATOM      2  O   UNL     1       4.765  -0.636  23.597  0.00  0.00    -0.471 OA
ENDBRANCH   3   2
ENDBRANCH   6   5
ENDBRANCH  10   9
ENDBRANCH  11  10
BRANCH  15  16
ATOM     16  C   UNL     1      -2.640  -0.193  24.946  0.00  0.00    +0.091 C 
BRANCH  16  17
ATOM     17  C   UNL     1      -3.334   0.089  24.600  0.00  0.00    +0.242 C 
ATOM     18  O   UNL     1      -3.559  -0.174  23.851  0.00  0.00    -0.273 OA
ATOM     19  N   UNL     1      -3.802   0.636  25.003  0.00  0.00    -0.199 NA
BRANCH  19  20
ATOM     20  C   UNL     1      -4.496   0.919  24.657  0.00  0.00    +0.160 C 
BRANCH  20  21
ATOM     21  C   UNL     1      -4.886   1.567  24.987  0.00  0.00    +0.081 A 
ATOM     22  N   UNL     1      -5.450   1.451  25.578  0.00  0.00    -0.246 NA
ATOM     23  C   UNL     1      -5.840   2.099  25.908  0.00  0.00    +0.099 A 
ATOM     24  C   UNL     1      -5.666   2.861  25.648  0.00  0.00    +0.021 A 
ATOM     25  C   UNL     1      -5.102   2.977  25.058  0.00  0.00    +0.003 A 
ATOM     26  C   UNL     1      -4.712   2.329  24.727  0.00  0.00    +0.017 A 
ENDBRANCH  20  21
ENDBRANCH  19  20
ENDBRANCH  16  17
ENDBRANCH  15  16
TORSDOF 9
ENDMDL
MODEL 2
REMARK VINA RESULT:      -8.9      1.352      7.031
REMARK  Name = 
REMARK  9 active torsions:
REMARK  status: ('A' for Active; 'I' for Inactive)
REMARK    1  A    between atoms: O_2  and  C_3
REMARK    2  A    between atoms: C_5  and  N_6
REMARK    3  A    between atoms: N_9  and  C_10
REMARK    4  A    between atoms: C_10  and  C_11
REMARK    5  A    between atoms: C_15  and  C_16
REMARK    6  A    between atoms: C_16  and  C_17
REMARK    7  A    between atoms: N_19  and  C_20
REMARK    8  A    between atoms: C_20  and  C_21
REMARK    9  A    between atoms: C_28  and  C_29
REMARK                            x       y       z     vdW  Elec       q    Type
REMARK                         _______ _______ _______ _____ _____    ______ ____
ROOT
ATOM     11  C   UNL     1      -1.111   1.289  24.478  0.00  0.00    +0.043 C 
ATOM     12  C   UNL     1      -1.350   0.532  24.253  0.00  0.00    -0.033 C 
ATOM     13  C   UNL     1      -0.792  -0.017  23.993  0.00  0.00    -0.048 C 
ATOM     14  C   UNL     1      -1.030  -0.774  23.768  0.00  0.00    +0.026 C 
ATOM     15  C   UNL     1       0.006   0.191  23.957  0.00  0.00    +0.027 C 
ATOM     27  C   UNL     1       0.245   0.949  24.181  0.00  0.00    +0.005 C 
ATOM     28  C   UNL     1      -0.313   1.497  24.442  0.00  0.00    +0.006 C 
ENDROOT
BRANCH  28  29
ATOM     29  C   UNL     1      -0.073   2.254  24.666  0.00  0.00    +0.000 C 
ATOM     30  C   UNL     1       0.151   2.400  25.447  0.00  0.00    +0.000 C 
ATOM     31  C   UNL     1      -0.058   2.863  24.111  0.00  0.00    +0.000 C 
ENDBRANCH  28  29
BRANCH  11  10
ATOM     10  C   UNL     1      -1.668   1.837  24.738  0.00  0.00    +0.121 C 
BRANCH  10   9
ATOM      6  N   UNL     1      -3.784   2.254  24.397  0.00  0.00    -0.161 NA
ATOM      7  C   UNL     1      -3.049   2.203  24.769  0.00  0.00    +0.344 C 
ATOM      8  O   UNL     1      -2.962   2.468  25.547  0.00  0.00    -0.249 OA
ATOM      9  N   UNL     1      -2.403   1.888  24.366  0.00  0.00    -0.187 NA
BRANCH   6   5
ATOM      3  C   UNL     1      -5.667   2.384  25.494  0.00  0.00    +0.140 A 
ATOM      4  C   UNL     1      -5.020   2.068  25.090  0.00  0.00    +0.054 A 
ATOM      5  C   UNL     1      -4.431   2.569  24.801  0.00  0.00    +0.078 A 
ATOM     32  C   UNL     1      -4.489   3.384  24.915  0.00  0.00    +0.017 A 
ATOM     33  C   UNL     1      -5.135   3.699  25.319  0.00  0.00    +0.004 A 
ATOM     34  C   UNL     1      -5.725   3.198  25.608  0.00  0.00    +0.037 A 
BRANCH   3   2
ATOM      1  C   UNL     1      -6.379   1.818  26.596  0.00  0.00    +0.252 C 
ATOM      2  O   UNL     1      -6.256   1.884  25.783  0.00  0.00    -0.471 OA
ENDBRANCH   3   2
ENDBRANCH   6   5
ENDBRANCH  10   9
ENDBRANCH  11  10
BRANCH  15  16
ATOM     16  C   UNL     1       0.565  -0.358  23.696  0.00  0.00    +0.091 C 
BRANCH  16  17
ATOM     17  C   UNL     1       1.086  -0.158  23.088  0.00  0.00    +0.242 C 
ATOM     18  O   UNL     1       0.797   0.002  22.332  0.00  0.00    -0.273 OA
ATOM     19  N   UNL     1       1.896  -0.119  23.238  0.00  0.00    -0.199 NA
BRANCH  19  20
ATOM     20  C   UNL     1       2.418   0.080  22.630  0.00  0.00    +0.160 C 
BRANCH  20  21
ATOM     21  C   UNL     1       3.218   0.191  22.794  0.00  0.00    +0.081 A 
ATOM     22  N   UNL     1       3.665  -0.431  23.103  0.00  0.00    -0.246 NA
ATOM     23  C   UNL     1       4.466  -0.321  23.268  0.00  0.00    +0.099 A 
ATOM     24  C   UNL     1       4.820   0.409  23.123  0.00  0.00    +0.021 A 
ATOM     25  C   UNL     1       4.374   1.031  22.814  0.00  0.00    +0.003 A 
ATOM     26  C   UNL     1       3.572   0.921  22.650  0.00  0.00    +0.017 A 
ENDBRANCH  20  21
ENDBRANCH  19  20
ENDBRANCH  16  17
ENDBRANCH  15  16
TORSDOF 9
ENDMDL
MODEL 3
REMARK VINA RESULT:      -8.6      1.409      2.267
REMARK  Name = 
REMARK  9 active torsions:
REMARK  status: ('A' for Active; 'I' for Inactive)
REMARK    1  A    between atoms: O_2  and  C_3
REMARK    2  A    between atoms: C_5  and  N_6
REMARK    3  A    between atoms: N_9  and  C_10
REMARK    4  A    between atoms: C_10  and  C_11
REMARK    5  A    between atoms: C_15  and  C_16
REMARK    6  A    between atoms: C_16  and  C_17
REMARK    7  A    between atoms: N_19  and  C_20
REMARK    8  A    between atoms: C_20  and  C_21
REMARK    9  A    between atoms: C_28  and  C_29
REMARK                            x       y       z     vdW  Elec       q    Type
REMARK                         _______ _______ _______ _____ _____    ______ ____
ROOT
ATOM     11  C   UNL     1      -0.656   2.050  24.652  0.00  0.00    +0.043 C 
ATOM     12  C   UNL     1      -0.459   2.848  24.715  0.00  0.00    -0.033 C 
ATOM     13  C   UNL     1      -1.002   3.384  25.030  0.00  0.00    -0.048 C 
ATOM     14  C   UNL     1      -0.806   4.183  25.093  0.00  0.00    +0.026 C 
ATOM     15  C   UNL     1      -1.743   3.121  25.281  0.00  0.00    +0.027 C 
ATOM     27  C   UNL     1      -1.940   2.321  25.218  0.00  0.00    +0.005 C 
ATOM     28  C   UNL     1      -1.396   1.787  24.904  0.00  0.00    +0.006 C 
ENDROOT
BRANCH  28  29
ATOM     29  C   UNL     1      -1.593   0.988  24.841  0.00  0.00    +0.000 C 
ATOM     30  C   UNL     1      -1.432   0.473  25.466  0.00  0.00    +0.000 C 
ATOM     31  C   UNL     1      -1.951   0.704  24.155  0.00  0.00    +0.000 C 
ENDBRANCH  28  29
BRANCH  11  10
ATOM     10  C   UNL     1      -0.113   1.515  24.338  0.00  0.00    +0.121 C 
BRANCH  10   9
ATOM      6  N   UNL     1       1.911   1.514  23.519  0.00  0.00    -0.161 NA
ATOM      7  C   UNL     1       1.154   1.260  23.729  0.00  0.00    +0.344 C 
ATOM      8  O   UNL     1       0.909   0.495  23.539  0.00  0.00    -0.249 OA
ATOM      9  N   UNL     1       0.644   1.770  24.128  0.00  0.00    -0.187 NA
BRANCH   6   5
ATOM      3  C   UNL     1       3.749   0.607  22.769  0.00  0.00    +0.140 A 
ATOM      4  C   UNL     1       3.238   1.117  23.169  0.00  0.00    +0.054 A 
ATOM      5  C   UNL     1       2.422   1.005  23.120  0.00  0.00    +0.078 A 
ATOM     32  C   UNL     1       2.118   0.383  22.671  0.00  0.00    +0.017 A 
ATOM     33  C   UNL     1       2.628  -0.126  22.272  0.00  0.00    +0.004 A 
ATOM     34  C   UNL     1       3.445  -0.014  22.321  0.00  0.00    +0.037 A 
BRANCH   3   2
ATOM      1  C   UNL     1       5.034   0.171  23.219  0.00  0.00    +0.252 C 
ATOM      2  O   UNL     1       4.565   0.719  22.819  0.00  0.00    -0.471 OA
ENDBRANCH   3   2
ENDBRANCH   6   5
ENDBRANCH  10   9
ENDBRANCH  11  10
BRANCH  15  16
ATOM     16  C   UNL     1      -2.287   3.656  25.596  0.00  0.00    +0.091 C 
BRANCH  16  17
ATOM     17  C   UNL     1      -3.025   3.750  25.240  0.00  0.00    +0.242 C 
ATOM     18  O   UNL     1      -3.096   4.197  24.550  0.00  0.00    -0.273 OA
ATOM     19  N   UNL     1      -3.691   3.398  25.575  0.00  0.00    -0.199 NA
BRANCH  19  20
ATOM     20  C   UNL     1      -4.430   3.492  25.219  0.00  0.00    +0.160 C 
BRANCH  20  21
ATOM     21  C   UNL     1      -5.034   2.953  25.376  0.00  0.00    +0.081 A 
ATOM     22  N   UNL     1      -5.431   2.976  26.099  0.00  0.00    -0.246 NA
ATOM     23  C   UNL     1      -6.035   2.437  26.256  0.00  0.00    +0.099 A 
ATOM     24  C   UNL     1      -6.242   1.875  25.690  0.00  0.00    +0.021 A 
ATOM     25  C   UNL     1      -5.847   1.851  24.967  0.00  0.00    +0.003 A 
ATOM     26  C   UNL     1      -5.242   2.391  24.810  0.00  0.00    +0.017 A 
ENDBRANCH  20  21
ENDBRANCH  19  20
ENDBRANCH  16  17
ENDBRANCH  15  16
TORSDOF 9
ENDMDL
MODEL 4
REMARK VINA RESULT:      -8.4      1.374      2.295
REMARK  Name = 
REMARK  9 active torsions:
REMARK  status: ('A' for Active; 'I' for Inactive)
REMARK    1  A    between atoms: O_2  and  C_3
REMARK    2  A    between atoms: C_5  and  N_6
REMARK    3  A    between atoms: N_9  and  C_10
REMARK    4  A    between atoms: C_10  and  C_11
REMARK    5  A    between atoms: C_15  and  C_16
REMARK    6  A    between atoms: C_16  and  C_17
REMARK    7  A    between atoms: N_19  and  C_20
REMARK    8  A    between atoms: C_20  and  C_21
REMARK    9  A    between atoms: C_28  and  C_29
REMARK                            x       y       z     vdW  Elec       q    Type
REMARK                         _______ _______ _______ _____ _____    ______ ____
ROOT
ATOM     11  C   UNL     1      -0.622   1.414  24.028  0.00  0.00    +0.043 C 
ATOM     12  C   UNL     1      -0.998   1.447  23.295  0.00  0.00    -0.033 C 
ATOM     13  C   UNL     1      -1.820   1.504  23.254  0.00  0.00    -0.048 C 
ATOM     14  C   UNL     1      -2.196   1.536  22.520  0.00  0.00    +0.026 C 
ATOM     15  C   UNL     1      -2.266   1.528  23.947  0.00  0.00    +0.027 C 
ATOM     27  C   UNL     1      -1.891   1.496  24.682  0.00  0.00    +0.005 C 
ATOM     28  C   UNL     1      -1.069   1.439  24.722  0.00  0.00    +0.006 C 
ENDROOT
BRANCH  28  29
ATOM     29  C   UNL     1      -0.694   1.406  25.456  0.00  0.00    +0.000 C 
ATOM     30  C   UNL     1      -0.606   0.681  25.842  0.00  0.00    +0.000 C 
ATOM     31  C   UNL     1      -0.408   2.096  25.804  0.00  0.00    +0.000 C 
ENDBRANCH  28  29
BRANCH  11  10
ATOM     10  C   UNL     1       0.199   1.357  24.069  0.00  0.00    +0.121 C 
BRANCH  10   9
ATOM      6  N   UNL     1       1.836   0.419  22.972  0.00  0.00    -0.161 NA
ATOM      7  C   UNL     1       1.429   0.905  23.499  0.00  0.00    +0.344 C 
ATOM      8  O   UNL     1       1.846   1.426  23.986  0.00  0.00    -0.249 OA
ATOM      9  N   UNL     1       0.606   0.871  23.541  0.00  0.00    -0.187 NA
BRANCH   6   5
ATOM      3  C   UNL     1       3.937  -0.138  23.179  0.00  0.00    +0.140 A 
ATOM      4  C   UNL     1       3.113  -0.173  23.221  0.00  0.00    +0.054 A 
ATOM      5  C   UNL     1       2.659   0.453  22.930  0.00  0.00    +0.078 A 
ATOM     32  C   UNL     1       3.029   1.111  22.597  0.00  0.00    +0.017 A 
ATOM     33  C   UNL     1       3.852   1.145  22.555  0.00  0.00    +0.004 A 
ATOM     34  C   UNL     1       4.306   0.520  22.846  0.00  0.00    +0.037 A 
BRANCH   3   2
ATOM      1  C   UNL     1       5.098  -0.610  23.865  0.00  0.00    +0.252 C 
ATOM      2  O   UNL     1       4.391  -0.763  23.470  0.00  0.00    -0.471 OA
ENDBRANCH   3   2
ENDBRANCH   6   5
ENDBRANCH  10   9
ENDBRANCH  11  10
BRANCH  15  16
ATOM     16  C   UNL     1      -3.089   1.585  23.906  0.00  0.00    +0.091 C 
BRANCH  16  17
ATOM     17  C   UNL     1      -3.560   1.081  24.358  0.00  0.00    +0.242 C 
ATOM     18  O   UNL     1      -3.945   1.366  25.030  0.00  0.00    -0.273 OA
ATOM     19  N   UNL     1      -3.644   0.290  24.139  0.00  0.00    -0.199 NA
BRANCH  19  20
ATOM     20  C   UNL     1      -4.115  -0.216  24.591  0.00  0.00    +0.160 C 
BRANCH  20  21
ATOM     21  C   UNL     1      -4.030  -1.033  24.517  0.00  0.00    +0.081 A 
ATOM     22  N   UNL     1      -4.334  -1.420  23.854  0.00  0.00    -0.246 NA
ATOM     23  C   UNL     1      -4.249  -2.237  23.780  0.00  0.00    +0.099 A 
ATOM     24  C   UNL     1      -3.862  -2.667  24.367  0.00  0.00    +0.021 A 
ATOM     25  C   UNL     1      -3.558  -2.280  25.030  0.00  0.00    +0.003 A 
ATOM     26  C   UNL     1      -3.643  -1.462  25.104  0.00  0.00    +0.017 A 
ENDBRANCH  20  21
ENDBRANCH  19  20
ENDBRANCH  16  17
ENDBRANCH  15  16
TORSDOF 9
ENDMDL
MODEL 5
REMARK VINA RESULT:      -7.9      3.710      5.592
REMARK  Name = 
REMARK  9 active torsions:
REMARK  status: ('A' for Active; 'I' for Inactive)
REMARK    1  A    between atoms: O_2  and  C_3
REMARK    2  A    between atoms: C_5  and  N_6
REMARK    3  A    between atoms: N_9  and  C_10
REMARK    4  A    between atoms: C_10  and  C_11
REMARK    5  A    between atoms: C_15  and  C_16
REMARK    6  A    between atoms: C_16  and  C_17
REMARK    7  A    between atoms: N_19  and  C_20
REMARK    8  A    between atoms: C_20  and  C_21
REMARK    9  A    between atoms: C_28  and  C_29
REMARK                            x       y       z     vdW  Elec       q    Type
REMARK                         _______ _______ _______ _____ _____    ______ ____
ROOT
ATOM     11  C   UNL     1      -4.744   1.296  24.521  0.00  0.00    +0.043 C 
ATOM     12  C   UNL     1      -4.176   1.489  23.956  0.00  0.00    -0.033 C 
ATOM     13  C   UNL     1      -4.005   2.281  23.795  0.00  0.00    -0.048 C 
ATOM     14  C   UNL     1      -3.436   2.474  23.229  0.00  0.00    +0.026 C 
ATOM     15  C   UNL     1      -4.404   2.879  24.200  0.00  0.00    +0.027 C 
ATOM     27  C   UNL     1      -4.973   2.686  24.766  0.00  0.00    +0.005 C 
ATOM     28  C   UNL     1      -5.142   1.894  24.926  0.00  0.00    +0.006 C 
ENDROOT
BRANCH  28  29
ATOM     29  C   UNL     1      -5.711   1.702  25.492  0.00  0.00    +0.000 C 
ATOM     30  C   UNL     1      -6.494   1.574  25.262  0.00  0.00    +0.000 C 
ATOM     31  C   UNL     1      -5.499   1.637  26.285  0.00  0.00    +0.000 C 
ENDBRANCH  28  29
BRANCH  11  10
ATOM     10  C   UNL     1      -4.914   0.506  24.681  0.00  0.00    +0.121 C 
BRANCH  10   9
ATOM      6  N   UNL     1      -3.987  -1.311  23.903  0.00  0.00    -0.161 NA
ATOM      7  C   UNL     1      -4.227  -0.721  24.428  0.00  0.00    +0.344 C 
ATOM      8  O   UNL     1      -4.021  -0.771  25.226  0.00  0.00    -0.249 OA
ATOM      9  N   UNL     1      -4.673  -0.084  24.156  0.00  0.00    -0.187 NA
BRANCH   6   5
ATOM      3  C   UNL     1      -2.270  -2.543  24.448  0.00  0.00    +0.140 A 
ATOM      4  C   UNL     1      -2.716  -1.905  24.176  0.00  0.00    +0.054 A 
ATOM      5  C   UNL     1      -3.541  -1.949  24.175  0.00  0.00    +0.078 A 
ATOM     32  C   UNL     1      -3.917  -2.631  24.445  0.00  0.00    +0.017 A 
ATOM     33  C   UNL     1      -3.471  -3.269  24.717  0.00  0.00    +0.004 A 
ATOM     34  C   UNL     1      -2.646  -3.225  24.718  0.00  0.00    +0.037 A 
BRANCH   3   2
ATOM      1  C   UNL     1      -1.052  -2.159  25.089  0.00  0.00    +0.252 C 
ATOM      2  O   UNL     1      -1.446  -2.500  24.450  0.00  0.00    -0.471 OA
ENDBRANCH   3   2
ENDBRANCH   6   5
ENDBRANCH  10   9
ENDBRANCH  11  10
BRANCH  15  16
ATOM     16  C   UNL     1      -4.233   3.671  24.040  0.00  0.00    +0.091 C 
BRANCH  16  17
ATOM     17  C   UNL     1      -3.828   4.125  24.595  0.00  0.00    +0.242 C 
ATOM     18  O   UNL     1      -4.246   4.571  25.150  0.00  0.00    -0.273 OA
ATOM     19  N   UNL     1      -3.003   4.134  24.596  0.00  0.00    -0.199 NA
BRANCH  19  20
ATOM     20  C   UNL     1      -2.596   4.589  25.153  0.00  0.00    +0.160 C 
BRANCH  20  21
ATOM     21  C   UNL     1      -1.772   4.590  25.160  0.00  0.00    +0.081 A 
ATOM     22  N   UNL     1      -1.361   3.928  25.434  0.00  0.00    -0.246 NA
ATOM     23  C   UNL     1      -0.536   3.929  25.441  0.00  0.00    +0.099 A 
ATOM     24  C   UNL     1      -0.122   4.590  25.176  0.00  0.00    +0.021 A 
ATOM     25  C   UNL     1      -0.532   5.252  24.903  0.00  0.00    +0.003 A 
ATOM     26  C   UNL     1      -1.357   5.251  24.895  0.00  0.00    +0.017 A 
ENDBRANCH  20  21
ENDBRANCH  19  20
ENDBRANCH  16  17
ENDBRANCH  15  16
TORSDOF 9
ENDMDL
MODEL 6
REMARK VINA RESULT:      -6.0     16.499     17.614
REMARK  Name = 
REMARK  9 active torsions:
REMARK  status: ('A' for Active; 'I' for Inactive)
REMARK    1  A    between atoms: O_2  and  C_3
REMARK    2  A    between atoms: C_5  and  N_6
REMARK    3  A    between atoms: N_9  and  C_10
REMARK    4  A    between atoms: C_10  and  C_11
REMARK    5  A    between atoms: C_15  and  C_16
REMARK    6  A    between atoms: C_16  and  C_17
REMARK    7  A    between atoms: N_19  and  C_20
REMARK    8  A    between atoms: C_20  and  C_21
REMARK    9  A    between atoms: C_28  and  C_29
REMARK                            x       y       z     vdW  Elec       q    Type
REMARK                         _______ _______ _______ _____ _____    ______ ____
ROOT
ATOM     11  C   UNL     1      -6.616  -9.129  10.979  0.00  0.00    +0.043 C 
ATOM     12  C   UNL     1      -7.424  -9.268  11.070  0.00  0.00    -0.033 C 
ATOM     13  C   UNL     1      -7.942  -9.113  10.446  0.00  0.00    -0.048 C 
ATOM     14  C   UNL     1      -8.751  -9.251  10.536  0.00  0.00    +0.026 C 
ATOM     15  C   UNL     1      -7.651  -8.820   9.732  0.00  0.00    +0.027 C 
ATOM     27  C   UNL     1      -6.842  -8.681   9.641  0.00  0.00    +0.005 C 
ATOM     28  C   UNL     1      -6.326  -8.836  10.265  0.00  0.00    +0.006 C 
ENDROOT
BRANCH  28  29
ATOM     29  C   UNL     1      -5.518  -8.698  10.174  0.00  0.00    +0.000 C 
ATOM     30  C   UNL     1      -5.032  -9.284   9.854  0.00  0.00    +0.000 C 
ATOM     31  C   UNL     1      -5.195  -7.974  10.402  0.00  0.00    +0.000 C 
ENDBRANCH  28  29
BRANCH  11  10
ATOM     10  C   UNL     1      -6.099  -9.284  11.602  0.00  0.00    +0.121 C 
BRANCH  10   9
ATOM      6  N   UNL     1      -6.125 -10.294  13.538  0.00  0.00    -0.161 NA
ATOM      7  C   UNL     1      -5.888  -9.805  12.916  0.00  0.00    +0.344 C 
ATOM      8  O   UNL     1      -5.203  -9.349  12.987  0.00  0.00    -0.249 OA
ATOM      9  N   UNL     1      -6.335  -9.772  12.224  0.00  0.00    -0.187 NA
BRANCH   6   5
ATOM      3  C   UNL     1      -5.493  -9.973  15.602  0.00  0.00    +0.140 A 
ATOM      4  C   UNL     1      -5.940  -9.939  14.910  0.00  0.00    +0.054 A 
ATOM      5  C   UNL     1      -5.677 -10.327  14.230  0.00  0.00    +0.078 A 
ATOM     32  C   UNL     1      -4.967 -10.747  14.243  0.00  0.00    +0.017 A 
ATOM     33  C   UNL     1      -4.520 -10.780  14.935  0.00  0.00    +0.004 A 
ATOM     34  C   UNL     1      -4.783 -10.392  15.615  0.00  0.00    +0.037 A 
BRANCH   3   2
ATOM      1  C   UNL     1      -5.718  -9.965  17.014  0.00  0.00    +0.252 C 
ATOM      2  O   UNL     1      -5.755  -9.586  16.282  0.00  0.00    -0.471 OA
ENDBRANCH   3   2
ENDBRANCH   6   5
ENDBRANCH  10   9
ENDBRANCH  11  10
BRANCH  15  16
ATOM     16  C   UNL     1      -8.169  -8.665   9.108  0.00  0.00    +0.091 C 
BRANCH  16  17
ATOM     17  C   UNL     1      -8.091  -7.970   8.671  0.00  0.00    +0.242 C 
ATOM     18  O   UNL     1      -7.478  -7.893   8.124  0.00  0.00    -0.273 OA
ATOM     19  N   UNL     1      -8.626  -7.352   8.781  0.00  0.00    -0.199 NA
BRANCH  19  20
ATOM     20  C   UNL     1      -8.548  -6.656   8.344  0.00  0.00    +0.160 C 
BRANCH  20  21
ATOM     21  C   UNL     1      -9.078  -6.035   8.460  0.00  0.00    +0.081 A 
ATOM     22  N   UNL     1      -8.796  -5.265   8.559  0.00  0.00    -0.246 NA
ATOM     23  C   UNL     1      -9.326  -4.644   8.675  0.00  0.00    +0.099 A 
ATOM     24  C   UNL     1     -10.136  -4.791   8.693  0.00  0.00    +0.021 A 
ATOM     25  C   UNL     1     -10.419  -5.560   8.594  0.00  0.00    +0.003 A 
ATOM     26  C   UNL     1      -9.888  -6.182   8.478  0.00  0.00    +0.017 A 
ENDBRANCH  20  21
ENDBRANCH  19  20
ENDBRANCH  16  17
ENDBRANCH  15  16
TORSDOF 9
ENDMDL
MODEL 7
REMARK VINA RESULT:      -5.9     16.862     17.657
REMARK  Name = 
REMARK  9 active torsions:
REMARK  status: ('A' for Active; 'I' for Inactive)
REMARK    1  A    between atoms: O_2  and  C_3
REMARK    2  A    between atoms: C_5  and  N_6
REMARK    3  A    between atoms: N_9  and  C_10
REMARK    4  A    between atoms: C_10  and  C_11
REMARK    5  A    between atoms: C_15  and  C_16
REMARK    6  A    between atoms: C_16  and  C_17
REMARK    7  A    between atoms: N_19  and  C_20
REMARK    8  A    between atoms: C_20  and  C_21
REMARK    9  A    between atoms: C_28  and  C_29
REMARK                            x       y       z     vdW  Elec       q    Type
REMARK                         _______ _______ _______ _____ _____    ______ ____
ROOT
ATOM     11  C   UNL     1      -6.051  -9.288  10.615  0.00  0.00    +0.043 C 
ATOM     12  C   UNL     1      -6.683  -9.586  11.053  0.00  0.00    -0.033 C 
ATOM     13  C   UNL     1      -7.457  -9.467  10.795  0.00  0.00    -0.048 C 
ATOM     14  C   UNL     1      -8.090  -9.765  11.233  0.00  0.00    +0.026 C 
ATOM     15  C   UNL     1      -7.600  -9.050  10.098  0.00  0.00    +0.027 C 
ATOM     27  C   UNL     1      -6.967  -8.751   9.659  0.00  0.00    +0.005 C 
ATOM     28  C   UNL     1      -6.193  -8.870   9.918  0.00  0.00    +0.006 C 
ENDROOT
BRANCH  28  29
ATOM     29  C   UNL     1      -5.562  -8.572   9.479  0.00  0.00    +0.000 C 
ATOM     30  C   UNL     1      -5.211  -9.036   8.894  0.00  0.00    +0.000 C 
ATOM     31  C   UNL     1      -5.282  -7.811   9.625  0.00  0.00    +0.000 C 
ENDBRANCH  28  29
BRANCH  11  10
ATOM     10  C   UNL     1      -5.277  -9.407  10.874  0.00  0.00    +0.121 C 
BRANCH  10   9
ATOM      6  N   UNL     1      -4.219 -10.321  12.550  0.00  0.00    -0.161 NA
ATOM      7  C   UNL     1      -4.361  -9.937  11.834  0.00  0.00    +0.344 C 
ATOM      8  O   UNL     1      -3.728  -9.698  11.361  0.00  0.00    -0.249 OA
ATOM      9  N   UNL     1      -5.135  -9.791  11.590  0.00  0.00    -0.187 NA
BRANCH   6   5
ATOM      3  C   UNL     1      -2.480 -10.591  13.841  0.00  0.00    +0.140 A 
ATOM      4  C   UNL     1      -3.254 -10.445  13.597  0.00  0.00    +0.054 A 
ATOM      5  C   UNL     1      -3.445 -10.467  12.794  0.00  0.00    +0.078 A 
ATOM     32  C   UNL     1      -2.861 -10.635  12.236  0.00  0.00    +0.017 A 
ATOM     33  C   UNL     1      -2.087 -10.781  12.480  0.00  0.00    +0.004 A 
ATOM     34  C   UNL     1      -1.896 -10.759  13.283  0.00  0.00    +0.037 A 
BRANCH   3   2
ATOM      1  C   UNL     1      -1.505 -10.472  14.879  0.00  0.00    +0.252 C 
ATOM      2  O   UNL     1      -2.289 -10.569  14.643  0.00  0.00    -0.471 OA
ENDBRANCH   3   2
ENDBRANCH   6   5
ENDBRANCH  10   9
ENDBRANCH  11  10
BRANCH  15  16
ATOM     16  C   UNL     1      -8.375  -8.930   9.839  0.00  0.00    +0.091 C 
BRANCH  16  17
ATOM     17  C   UNL     1      -8.517  -8.498   9.151  0.00  0.00    +0.242 C 
ATOM     18  O   UNL     1      -8.344  -8.827   8.414  0.00  0.00    -0.273 OA
ATOM     19  N   UNL     1      -8.832  -7.738   9.201  0.00  0.00    -0.199 NA
BRANCH  19  20
ATOM     20  C   UNL     1      -8.974  -7.305   8.512  0.00  0.00    +0.160 C 
BRANCH  20  21
ATOM     21  C   UNL     1      -9.336  -6.565   8.558  0.00  0.00    +0.081 A 
ATOM     22  N   UNL     1     -10.146  -6.511   8.710  0.00  0.00    -0.246 NA
ATOM     23  C   UNL     1     -10.508  -5.771   8.756  0.00  0.00    +0.099 A 
ATOM     24  C   UNL     1     -10.062  -5.087   8.651  0.00  0.00    +0.021 A 
ATOM     25  C   UNL     1      -9.253  -5.140   8.500  0.00  0.00    +0.003 A 
ATOM     26  C   UNL     1      -8.890  -5.880   8.453  0.00  0.00    +0.017 A 
ENDBRANCH  20  21
ENDBRANCH  19  20
ENDBRANCH  16  17
ENDBRANCH  15  16
TORSDOF 9
ENDMDL
MODEL 8
REMARK VINA RESULT:      -5.4     14.889     17.129
REMARK  Name = 
REMARK  9 active torsions:
REMARK  status: ('A' for Active; 'I' for Inactive)
REMARK    1  A    between atoms: O_2  and  C_3
REMARK    2  A    between atoms: C_5  and  N_6
REMARK    3  A    between atoms: N_9  and  C_10
REMARK    4  A    between atoms: C_10  and  C_11
REMARK    5  A    between atoms: C_15  and  C_16
REMARK    6  A    between atoms: C_16  and  C_17
REMARK    7  A    between atoms: N_19  and  C_20
REMARK    8  A    between atoms: C_20  and  C_21
REMARK    9  A    between atoms: C_28  and  C_29
REMARK                            x       y       z     vdW  Elec       q    Type
REMARK                         _______ _______ _______ _____ _____    ______ ____
ROOT
ATOM     11  C   UNL     1      -7.409 -10.150  14.869  0.00  0.00    +0.043 C 
ATOM     12  C   UNL     1      -7.986 -10.179  14.281  0.00  0.00    -0.033 C 
ATOM     13  C   UNL     1      -7.765 -10.178  13.486  0.00  0.00    -0.048 C 
ATOM     14  C   UNL     1      -8.342 -10.207  12.896  0.00  0.00    +0.026 C 
ATOM     15  C   UNL     1      -6.967 -10.149  13.280  0.00  0.00    +0.027 C 
ATOM     27  C   UNL     1      -6.389 -10.120  13.869  0.00  0.00    +0.005 C 
ATOM     28  C   UNL     1      -6.611 -10.121  14.663  0.00  0.00    +0.006 C 
ENDROOT
BRANCH  28  29
ATOM     29  C   UNL     1      -6.033 -10.092  15.251  0.00  0.00    +0.000 C 
ATOM     30  C   UNL     1      -5.856  -9.375  15.621  0.00  0.00    +0.000 C 
ATOM     31  C   UNL     1      -5.633 -10.778  15.470  0.00  0.00    +0.000 C 
ENDBRANCH  28  29
BRANCH  11  10
ATOM     10  C   UNL     1      -7.630 -10.150  15.663  0.00  0.00    +0.121 C 
BRANCH  10   9
ATOM      6  N   UNL     1      -9.446 -10.550  16.807  0.00  0.00    -0.161 NA
ATOM      7  C   UNL     1      -8.725 -10.220  16.579  0.00  0.00    +0.344 C 
ATOM      8  O   UNL     1      -8.378  -9.628  17.039  0.00  0.00    -0.249 OA
ATOM      9  N   UNL     1      -8.351 -10.480  15.892  0.00  0.00    -0.187 NA
BRANCH   6   5
ATOM      3  C   UNL     1     -10.046 -10.405  18.901  0.00  0.00    +0.140 A 
ATOM      4  C   UNL     1      -9.671 -10.666  18.213  0.00  0.00    +0.054 A 
ATOM      5  C   UNL     1      -9.820 -10.289  17.494  0.00  0.00    +0.078 A 
ATOM     32  C   UNL     1     -10.344  -9.652  17.463  0.00  0.00    +0.017 A 
ATOM     33  C   UNL     1     -10.718  -9.392  18.150  0.00  0.00    +0.004 A 
ATOM     34  C   UNL     1     -10.569  -9.768  18.869  0.00  0.00    +0.037 A 
BRANCH   3   2
ATOM      1  C   UNL     1     -10.369 -10.618  20.277  0.00  0.00    +0.252 C 
ATOM      2  O   UNL     1      -9.897 -10.781  19.620  0.00  0.00    -0.471 OA
ENDBRANCH   3   2
ENDBRANCH   6   5
ENDBRANCH  10   9
ENDBRANCH  11  10
BRANCH  15  16
ATOM     16  C   UNL     1      -6.745 -10.148  12.484  0.00  0.00    +0.091 C 
BRANCH  16  17
ATOM     17  C   UNL     1      -6.280  -9.535  12.187  0.00  0.00    +0.242 C 
ATOM     18  O   UNL     1      -6.497  -8.751  12.320  0.00  0.00    -0.273 OA
ATOM     19  N   UNL     1      -5.599  -9.708  11.755  0.00  0.00    -0.199 NA
BRANCH  19  20
ATOM     20  C   UNL     1      -5.133  -9.095  11.457  0.00  0.00    +0.160 C 
BRANCH  20  21
ATOM     21  C   UNL     1      -4.476  -9.267  10.989  0.00  0.00    +0.081 A 
ATOM     22  N   UNL     1      -3.835  -9.675  11.313  0.00  0.00    -0.246 NA
ATOM     23  C   UNL     1      -3.178  -9.847  10.845  0.00  0.00    +0.099 A 
ATOM     24  C   UNL     1      -3.161  -9.611  10.055  0.00  0.00    +0.021 A 
ATOM     25  C   UNL     1      -3.801  -9.204   9.732  0.00  0.00    +0.003 A 
ATOM     26  C   UNL     1      -4.459  -9.031  10.200  0.00  0.00    +0.017 A 
ENDBRANCH  20  21
ENDBRANCH  19  20
ENDBRANCH  16  17
ENDBRANCH  15  16
TORSDOF 9
ENDMDL
