MODEL 1
REMARK VINA RESULT:      -8.4      0.000      0.000
REMARK  Name = 
REMARK  8 active torsions:
REMARK  status: ('A' for Active; 'I' for Inactive)
REMARK    1  A    between atoms: C_2  and  O_3
REMARK    2  A    between atoms: O_3  and  C_4
REMARK    3  A    between atoms: C_4  and  C_6
REMARK    4  A    between atoms: C_10  and  N_11
REMARK    5  A    between atoms: C_17  and  C_18
REMARK    6  A    between atoms: C_18  and  C_19
REMARK    7  A    between atoms: N_21  and  C_22
REMARK    8  A    between atoms: C_28  and  C_29
REMARK                            x       y       z     vdW  Elec       q    Type
REMARK                         _______ _______ _______ _____ _____    ______ ____
ROOT
ATOM     11  N   UNL     1       1.162   0.304  23.055  0.00  0.00    -0.162 NA
ATOM     12  C   UNL     1       0.839  -0.364  23.417  0.00  0.00    +0.327 C 
ATOM     13  O   UNL     1       1.237  -1.085  23.381  0.00  0.00    -0.250 OA
ATOM     14  N   UNL     1       0.118  -0.309  23.815  0.00  0.00    -0.263 N 
ATOM     15  C   UNL     1      -0.204  -0.977  24.177  0.00  0.00    +0.095 C 
ATOM     16  C   UNL     1      -0.925  -0.923  24.575  0.00  0.00    +0.022 C 
ATOM     17  C   UNL     1      -1.323  -0.201  24.611  0.00  0.00    +0.012 C 
ATOM     28  C   UNL     1      -1.000   0.467  24.249  0.00  0.00    +0.020 C 
ATOM     31  C   UNL     1      -0.280   0.412  23.852  0.00  0.00    +0.095 C 
ENDROOT
BRANCH  11  10
ATOM      6  C   UNL     1       3.297   0.452  22.625  0.00  0.00    +0.077 A 
ATOM      7  C   UNL     1       3.324   0.141  21.862  0.00  0.00    +0.007 A 
ATOM      8  C   UNL     1       2.630  -0.116  21.496  0.00  0.00    +0.002 A 
ATOM      9  C   UNL     1       1.910  -0.061  21.894  0.00  0.00    +0.017 A 
ATOM     10  C   UNL     1       1.882   0.250  22.657  0.00  0.00    +0.075 A 
ATOM     32  C   UNL     1       2.576   0.506  23.023  0.00  0.00    +0.023 A 
BRANCH   6   4
ATOM      4  C   UNL     1       3.990   0.708  22.991  0.00  0.00    +0.341 C 
ATOM      5  O   UNL     1       4.154   1.515  23.044  0.00  0.00    -0.245 OA
BRANCH   4   3
ATOM      3  O   UNL     1       4.519   0.158  23.304  0.00  0.00    -0.445 OA
BRANCH   3   2
ATOM      1  C   UNL     1       5.728  -0.131  24.008  0.00  0.00    +0.051 C 
ATOM      2  C   UNL     1       5.227   0.413  23.643  0.00  0.00    +0.209 C 
ENDBRANCH   3   2
ENDBRANCH   4   3
ENDBRANCH   6   4
ENDBRANCH  11  10
BRANCH  28  29
ATOM     29  C   UNL     1      -1.398   1.188  24.286  0.00  0.00    +0.002 C 
ATOM     30  C   UNL     1      -1.294   1.747  23.687  0.00  0.00    +0.000 C 
ENDBRANCH  28  29
BRANCH  17  18
ATOM     18  C   UNL     1      -2.044  -0.147  25.009  0.00  0.00    +0.087 C 
BRANCH  18  19
ATOM     19  C   UNL     1      -2.176  -0.603  25.685  0.00  0.00    +0.246 C 
ATOM     20  O   UNL     1      -1.550  -0.780  26.193  0.00  0.00    -0.273 OA
ATOM     21  N   UNL     1      -2.934  -0.882  25.851  0.00  0.00    -0.179 NA
BRANCH  21  22
ATOM     22  C   UNL     1      -3.559  -0.706  25.344  0.00  0.00    +0.073 A 
ATOM     23  C   UNL     1      -3.758  -1.227  24.736  0.00  0.00    +0.017 A 
ATOM     24  C   UNL     1      -4.383  -1.051  24.228  0.00  0.00    +0.001 A 
ATOM     25  C   UNL     1      -4.810  -0.353  24.328  0.00  0.00    +0.000 A 
ATOM     26  C   UNL     1      -4.612   0.169  24.934  0.00  0.00    +0.001 A 
ATOM     27  C   UNL     1      -3.987  -0.007  25.442  0.00  0.00    +0.017 A 
ENDBRANCH  21  22
ENDBRANCH  18  19
ENDBRANCH  17  18
TORSDOF 8
ENDMDL
MODEL 2
REMARK VINA RESULT:      -8.3      4.043      5.896
REMARK  Name = 
REMARK  8 active torsions:
REMARK  status: ('A' for Active; 'I' for Inactive)
REMARK    1  A    between atoms: C_2  and  O_3
REMARK    2  A    between atoms: O_3  and  C_4
REMARK    3  A    between atoms: C_4  and  C_6
REMARK    4  A    between atoms: C_10  and  N_11
REMARK    5  A    between atoms: C_17  and  C_18
REMARK    6  A    between atoms: C_18  and  C_19
REMARK    7  A    between atoms: N_21  and  C_22
REMARK    8  A    between atoms: C_28  and  C_29
REMARK                            x       y       z     vdW  Elec       q    Type
REMARK                         _______ _______ _______ _____ _____    ______ ____
ROOT
ATOM     11  N   UNL     1      -3.698  -0.173  23.991  0.00  0.00    -0.162 NA
ATOM     12  C   UNL     1      -3.774   0.265  24.687  0.00  0.00    +0.327 C 
ATOM     13  O   UNL     1      -4.000  -0.108  25.386  0.00  0.00    -0.250 OA
ATOM     14  N   UNL     1      -3.623   1.076  24.681  0.00  0.00    -0.263 N 
ATOM     15  C   UNL     1      -3.698   1.514  25.376  0.00  0.00    +0.095 C 
ATOM     16  C   UNL     1      -3.548   2.325  25.371  0.00  0.00    +0.022 C 
ATOM     17  C   UNL     1      -3.321   2.699  24.671  0.00  0.00    +0.012 C 
ATOM     28  C   UNL     1      -3.246   2.261  23.976  0.00  0.00    +0.020 C 
ATOM     31  C   UNL     1      -3.396   1.449  23.981  0.00  0.00    +0.095 C 
ENDROOT
BRANCH  11  10
ATOM      6  C   UNL     1      -3.430  -2.319  24.288  0.00  0.00    +0.077 A 
ATOM      7  C   UNL     1      -4.150  -2.606  24.007  0.00  0.00    +0.007 A 
ATOM      8  C   UNL     1      -4.720  -2.083  23.721  0.00  0.00    +0.002 A 
ATOM      9  C   UNL     1      -4.569  -1.272  23.716  0.00  0.00    +0.017 A 
ATOM     10  C   UNL     1      -3.849  -0.984  23.996  0.00  0.00    +0.075 A 
ATOM     32  C   UNL     1      -3.279  -1.507  24.283  0.00  0.00    +0.023 A 
BRANCH   6   4
ATOM      4  C   UNL     1      -2.860  -2.842  24.574  0.00  0.00    +0.341 C 
ATOM      5  O   UNL     1      -3.087  -3.482  25.044  0.00  0.00    -0.245 OA
BRANCH   4   3
ATOM      3  O   UNL     1      -2.064  -2.727  24.391  0.00  0.00    -0.445 OA
BRANCH   3   2
ATOM      1  C   UNL     1      -0.739  -2.544  24.893  0.00  0.00    +0.051 C 
ATOM      2  C   UNL     1      -1.483  -2.897  24.951  0.00  0.00    +0.209 C 
ENDBRANCH   3   2
ENDBRANCH   4   3
ENDBRANCH   6   4
ENDBRANCH  11  10
BRANCH  28  29
ATOM     29  C   UNL     1      -3.019   2.633  23.276  0.00  0.00    +0.002 C 
ATOM     30  C   UNL     1      -2.672   2.195  22.668  0.00  0.00    +0.000 C 
ENDBRANCH  28  29
BRANCH  17  18
ATOM     18  C   UNL     1      -3.171   3.510  24.666  0.00  0.00    +0.087 C 
BRANCH  18  19
ATOM     19  C   UNL     1      -3.505   3.994  25.245  0.00  0.00    +0.246 C 
ATOM     20  O   UNL     1      -4.288   3.878  25.478  0.00  0.00    -0.273 OA
ATOM     21  N   UNL     1      -3.056   4.594  25.590  0.00  0.00    -0.179 NA
BRANCH  21  22
ATOM     22  C   UNL     1      -2.274   4.710  25.357  0.00  0.00    +0.073 A 
ATOM     23  C   UNL     1      -2.094   5.271  24.781  0.00  0.00    +0.017 A 
ATOM     24  C   UNL     1      -1.311   5.387  24.548  0.00  0.00    +0.001 A 
ATOM     25  C   UNL     1      -0.708   4.941  24.892  0.00  0.00    +0.000 A 
ATOM     26  C   UNL     1      -0.888   4.380  25.468  0.00  0.00    +0.001 A 
ATOM     27  C   UNL     1      -1.671   4.264  25.701  0.00  0.00    +0.017 A 
ENDBRANCH  21  22
ENDBRANCH  18  19
ENDBRANCH  17  18
TORSDOF 8
ENDMDL
MODEL 3
REMARK VINA RESULT:      -8.2      1.417      6.534
REMARK  Name = 
REMARK  8 active torsions:
REMARK  status: ('A' for Active; 'I' for Inactive)
REMARK    1  A    between atoms: C_2  and  O_3
REMARK    2  A    between atoms: O_3  and  C_4
REMARK    3  A    between atoms: C_4  and  C_6
REMARK    4  A    between atoms: C_10  and  N_11
REMARK    5  A    between atoms: C_17  and  C_18
REMARK    6  A    between atoms: C_18  and  C_19
REMARK    7  A    between atoms: N_21  and  C_22
REMARK    8  A    between atoms: C_28  and  C_29
REMARK                            x       y       z     vdW  Elec       q    Type
REMARK                         _______ _______ _______ _____ _____    ______ ____
ROOT
ATOM     11  N   UNL     1      -1.564  -0.017  24.765  0.00  0.00    -0.162 NA
ATOM     12  C   UNL     1      -1.137  -0.578  24.333  0.00  0.00    +0.327 C 
ATOM     13  O   UNL     1      -1.435  -1.341  24.241  0.00  0.00    -0.250 OA
ATOM     14  N   UNL     1      -0.413  -0.372  23.996  0.00  0.00    -0.263 N 
ATOM     15  C   UNL     1       0.014  -0.932  23.565  0.00  0.00    +0.095 C 
ATOM     16  C   UNL     1       0.738  -0.728  23.227  0.00  0.00    +0.022 C 
ATOM     17  C   UNL     1       1.036   0.037  23.320  0.00  0.00    +0.012 C 
ATOM     28  C   UNL     1       0.609   0.596  23.750  0.00  0.00    +0.020 C 
ATOM     31  C   UNL     1      -0.115   0.391  24.088  0.00  0.00    +0.095 C 
ENDROOT
BRANCH  11  10
ATOM      6  C   UNL     1      -3.706  -0.058  25.185  0.00  0.00    +0.077 A 
ATOM      7  C   UNL     1      -3.737  -0.631  25.778  0.00  0.00    +0.007 A 
ATOM      8  C   UNL     1      -3.044  -1.000  26.032  0.00  0.00    +0.002 A 
ATOM      9  C   UNL     1      -2.321  -0.795  25.695  0.00  0.00    +0.017 A 
ATOM     10  C   UNL     1      -2.288  -0.222  25.102  0.00  0.00    +0.075 A 
ATOM     32  C   UNL     1      -2.981   0.147  24.848  0.00  0.00    +0.023 A 
BRANCH   6   4
ATOM      4  C   UNL     1      -4.398   0.311  24.931  0.00  0.00    +0.341 C 
ATOM      5  O   UNL     1      -4.807   0.015  24.278  0.00  0.00    -0.245 OA
BRANCH   4   3
ATOM      3  O   UNL     1      -4.682   0.975  25.329  0.00  0.00    -0.445 OA
BRANCH   3   2
ATOM      1  C   UNL     1      -5.608   2.059  25.422  0.00  0.00    +0.051 C 
ATOM      2  C   UNL     1      -5.298   1.418  25.005  0.00  0.00    +0.209 C 
ENDBRANCH   3   2
ENDBRANCH   4   3
ENDBRANCH   6   4
ENDBRANCH  11  10
BRANCH  28  29
ATOM     29  C   UNL     1       0.907   1.359  23.843  0.00  0.00    +0.002 C 
ATOM     30  C   UNL     1       0.490   1.913  24.293  0.00  0.00    +0.000 C 
ENDBRANCH  28  29
BRANCH  17  18
ATOM     18  C   UNL     1       1.760   0.240  22.982  0.00  0.00    +0.087 C 
BRANCH  18  19
ATOM     19  C   UNL     1       1.932   0.012  22.207  0.00  0.00    +0.246 C 
ATOM     20  O   UNL     1       1.321  -0.188  21.690  0.00  0.00    -0.273 OA
ATOM     21  N   UNL     1       2.716  -0.017  21.951  0.00  0.00    -0.179 NA
BRANCH  21  22
ATOM     22  C   UNL     1       3.327   0.182  22.467  0.00  0.00    +0.073 A 
ATOM     23  C   UNL     1       3.664  -0.396  22.950  0.00  0.00    +0.017 A 
ATOM     24  C   UNL     1       4.275  -0.197  23.467  0.00  0.00    +0.001 A 
ATOM     25  C   UNL     1       4.549   0.580  23.501  0.00  0.00    +0.000 A 
ATOM     26  C   UNL     1       4.212   1.158  23.020  0.00  0.00    +0.001 A 
ATOM     27  C   UNL     1       3.601   0.959  22.503  0.00  0.00    +0.017 A 
ENDBRANCH  21  22
ENDBRANCH  18  19
ENDBRANCH  17  18
TORSDOF 8
ENDMDL
MODEL 4
REMARK VINA RESULT:      -7.9      2.372      3.187
REMARK  Name = 
REMARK  8 active torsions:
REMARK  status: ('A' for Active; 'I' for Inactive)
REMARK    1  A    between atoms: C_2  and  O_3
REMARK    2  A    between atoms: O_3  and  C_4
REMARK    3  A    between atoms: C_4  and  C_6
REMARK    4  A    between atoms: C_10  and  N_11
REMARK    5  A    between atoms: C_17  and  C_18
REMARK    6  A    between atoms: C_18  and  C_19
REMARK    7  A    between atoms: N_21  and  C_22
REMARK    8  A    between atoms: C_28  and  C_29
REMARK                            x       y       z     vdW  Elec       q    Type
REMARK                         _______ _______ _______ _____ _____    ______ ____
ROOT
ATOM     11  N   UNL     1      -0.526   0.713  23.657  0.00  0.00    -0.162 NA
ATOM     12  C   UNL     1      -0.622   1.074  24.394  0.00  0.00    +0.327 C 
ATOM     13  O   UNL     1      -0.093   0.912  25.004  0.00  0.00    -0.250 OA
ATOM     14  N   UNL     1      -1.249   1.596  24.518  0.00  0.00    -0.263 N 
ATOM     15  C   UNL     1      -1.345   1.956  25.254  0.00  0.00    +0.095 C 
ATOM     16  C   UNL     1      -1.971   2.479  25.379  0.00  0.00    +0.022 C 
ATOM     17  C   UNL     1      -2.502   2.640  24.768  0.00  0.00    +0.012 C 
ATOM     28  C   UNL     1      -2.406   2.280  24.032  0.00  0.00    +0.020 C 
ATOM     31  C   UNL     1      -1.779   1.758  23.908  0.00  0.00    +0.095 C 
ENDROOT
BRANCH  11  10
ATOM      6  C   UNL     1       1.375  -0.097  22.954  0.00  0.00    +0.077 A 
ATOM      7  C   UNL     1       1.353  -0.853  23.283  0.00  0.00    +0.007 A 
ATOM      8  C   UNL     1       0.705  -1.087  23.737  0.00  0.00    +0.002 A 
ATOM      9  C   UNL     1       0.079  -0.566  23.861  0.00  0.00    +0.017 A 
ATOM     10  C   UNL     1       0.100   0.191  23.533  0.00  0.00    +0.075 A 
ATOM     32  C   UNL     1       0.748   0.425  23.079  0.00  0.00    +0.023 A 
BRANCH   6   4
ATOM      4  C   UNL     1       2.022   0.136  22.500  0.00  0.00    +0.341 C 
ATOM      5  O   UNL     1       2.031  -0.009  21.688  0.00  0.00    -0.245 OA
BRANCH   4   3
ATOM      3  O   UNL     1       2.661   0.516  22.858  0.00  0.00    -0.445 OA
BRANCH   3   2
ATOM      1  C   UNL     1       4.022   0.950  22.818  0.00  0.00    +0.051 C 
ATOM      2  C   UNL     1       3.368   0.614  22.444  0.00  0.00    +0.209 C 
ENDBRANCH   3   2
ENDBRANCH   4   3
ENDBRANCH   6   4
ENDBRANCH  11  10
BRANCH  28  29
ATOM     29  C   UNL     1      -2.935   2.442  23.421  0.00  0.00    +0.002 C 
ATOM     30  C   UNL     1      -2.894   2.016  22.715  0.00  0.00    +0.000 C 
ENDBRANCH  28  29
BRANCH  17  18
ATOM     18  C   UNL     1      -3.128   3.163  24.893  0.00  0.00    +0.087 C 
BRANCH  18  19
ATOM     19  C   UNL     1      -3.041   3.791  25.422  0.00  0.00    +0.246 C 
ATOM     20  O   UNL     1      -2.301   4.142  25.527  0.00  0.00    -0.273 OA
ATOM     21  N   UNL     1      -3.693   4.068  25.844  0.00  0.00    -0.179 NA
BRANCH  21  22
ATOM     22  C   UNL     1      -4.431   3.717  25.738  0.00  0.00    +0.073 A 
ATOM     23  C   UNL     1      -4.655   3.076  26.207  0.00  0.00    +0.017 A 
ATOM     24  C   UNL     1      -5.394   2.725  26.102  0.00  0.00    +0.001 A 
ATOM     25  C   UNL     1      -5.910   3.015  25.528  0.00  0.00    +0.000 A 
ATOM     26  C   UNL     1      -5.687   3.656  25.059  0.00  0.00    +0.001 A 
ATOM     27  C   UNL     1      -4.948   4.007  25.164  0.00  0.00    +0.017 A 
ENDBRANCH  21  22
ENDBRANCH  18  19
ENDBRANCH  17  18
TORSDOF 8
ENDMDL
MODEL 5
REMARK VINA RESULT:      -7.5      1.352      1.646
REMARK  Name = 
REMARK  8 active torsions:
REMARK  status: ('A' for Active; 'I' for Inactive)
REMARK    1  A    between atoms: C_2  and  O_3
REMARK    2  A    between atoms: O_3  and  C_4
REMARK    3  A    between atoms: C_4  and  C_6
REMARK    4  A    between atoms: C_10  and  N_11
REMARK    5  A    between atoms: C_17  and  C_18
REMARK    6  A    between atoms: C_18  and  C_19
REMARK    7  A    between atoms: N_21  and  C_22
REMARK    8  A    between atoms: C_28  and  C_29
REMARK                            x       y       z     vdW  Elec       q    Type
REMARK                         _______ _______ _______ _____ _____    ______ ____
ROOT
ATOM     11  N   UNL     1       1.193   0.791  23.184  0.00  0.00    -0.162 NA
ATOM     12  C   UNL     1       0.553   0.286  23.320  0.00  0.00    +0.327 C 
ATOM     13  O   UNL     1       0.595  -0.504  23.087  0.00  0.00    -0.250 OA
ATOM     14  N   UNL     1      -0.127   0.573  23.688  0.00  0.00    -0.263 N 
ATOM     15  C   UNL     1      -0.766   0.069  23.823  0.00  0.00    +0.095 C 
ATOM     16  C   UNL     1      -1.447   0.355  24.191  0.00  0.00    +0.022 C 
ATOM     17  C   UNL     1      -1.489   1.146  24.424  0.00  0.00    +0.012 C 
ATOM     28  C   UNL     1      -0.850   1.650  24.289  0.00  0.00    +0.020 C 
ATOM     31  C   UNL     1      -0.169   1.363  23.920  0.00  0.00    +0.095 C 
ENDROOT
BRANCH  11  10
ATOM      6  C   UNL     1       3.297   0.405  22.753  0.00  0.00    +0.077 A 
ATOM      7  C   UNL     1       3.234  -0.068  22.080  0.00  0.00    +0.007 A 
ATOM      8  C   UNL     1       2.490  -0.255  21.775  0.00  0.00    +0.002 A 
ATOM      9  C   UNL     1       1.810   0.031  22.143  0.00  0.00    +0.017 A 
ATOM     10  C   UNL     1       1.873   0.504  22.816  0.00  0.00    +0.075 A 
ATOM     32  C   UNL     1       2.616   0.691  23.121  0.00  0.00    +0.023 A 
BRANCH   6   4
ATOM      4  C   UNL     1       4.040   0.591  23.057  0.00  0.00    +0.341 C 
ATOM      5  O   UNL     1       4.317   1.369  23.024  0.00  0.00    -0.245 OA
BRANCH   4   3
ATOM      3  O   UNL     1       4.508   0.002  23.396  0.00  0.00    -0.445 OA
BRANCH   3   2
ATOM      1  C   UNL     1       5.698  -0.388  24.083  0.00  0.00    +0.051 C 
ATOM      2  C   UNL     1       5.258   0.186  23.686  0.00  0.00    +0.209 C 
ENDBRANCH   3   2
ENDBRANCH   4   3
ENDBRANCH   6   4
ENDBRANCH  11  10
BRANCH  28  29
ATOM     29  C   UNL     1      -0.891   2.440  24.521  0.00  0.00    +0.002 C 
ATOM     30  C   UNL     1      -0.262   2.950  24.363  0.00  0.00    +0.000 C 
ENDBRANCH  28  29
BRANCH  17  18
ATOM     18  C   UNL     1      -2.169   1.432  24.792  0.00  0.00    +0.087 C 
BRANCH  18  19
ATOM     19  C   UNL     1      -2.677   0.910  25.182  0.00  0.00    +0.246 C 
ATOM     20  O   UNL     1      -2.388   0.194  25.474  0.00  0.00    -0.273 OA
ATOM     21  N   UNL     1      -3.472   1.105  25.279  0.00  0.00    -0.179 NA
BRANCH  21  22
ATOM     22  C   UNL     1      -3.761   1.819  24.988  0.00  0.00    +0.073 A 
ATOM     23  C   UNL     1      -4.053   1.863  24.218  0.00  0.00    +0.017 A 
ATOM     24  C   UNL     1      -4.342   2.578  23.926  0.00  0.00    +0.001 A 
ATOM     25  C   UNL     1      -4.338   3.250  24.403  0.00  0.00    +0.000 A 
ATOM     26  C   UNL     1      -4.046   3.208  25.173  0.00  0.00    +0.001 A 
ATOM     27  C   UNL     1      -3.757   2.492  25.465  0.00  0.00    +0.017 A 
ENDBRANCH  21  22
ENDBRANCH  18  19
ENDBRANCH  17  18
TORSDOF 8
ENDMDL
MODEL 6
REMARK VINA RESULT:      -6.6      3.402      5.692
REMARK  Name = 
REMARK  8 active torsions:
REMARK  status: ('A' for Active; 'I' for Inactive)
REMARK    1  A    between atoms: C_2  and  O_3
REMARK    2  A    between atoms: O_3  and  C_4
REMARK    3  A    between atoms: C_4  and  C_6
REMARK    4  A    between atoms: C_10  and  N_11
REMARK    5  A    between atoms: C_17  and  C_18
REMARK    6  A    between atoms: C_18  and  C_19
REMARK    7  A    between atoms: N_21  and  C_22
REMARK    8  A    between atoms: C_28  and  C_29
REMARK                            x       y       z     vdW  Elec       q    Type
REMARK                         _______ _______ _______ _____ _____    ______ ____
ROOT
ATOM     11  N   UNL     1      -1.525  -0.591  24.456  0.00  0.00    -0.162 NA
ATOM     12  C   UNL     1      -1.280  -0.167  25.122  0.00  0.00    +0.327 C 
ATOM     13  O   UNL     1      -1.156  -0.558  25.837  0.00  0.00    -0.250 OA
ATOM     14  N   UNL     1      -1.161   0.648  25.070  0.00  0.00    -0.263 N 
ATOM     15  C   UNL     1      -0.917   1.072  25.734  0.00  0.00    +0.095 C 
ATOM     16  C   UNL     1      -0.797   1.886  25.683  0.00  0.00    +0.022 C 
ATOM     17  C   UNL     1      -0.922   2.277  24.967  0.00  0.00    +0.012 C 
ATOM     28  C   UNL     1      -1.166   1.854  24.303  0.00  0.00    +0.020 C 
ATOM     31  C   UNL     1      -1.285   1.039  24.355  0.00  0.00    +0.095 C 
ENDROOT
BRANCH  11  10
ATOM      6  C   UNL     1      -2.531  -2.524  24.590  0.00  0.00    +0.077 A 
ATOM      7  C   UNL     1      -1.883  -3.034  24.611  0.00  0.00    +0.007 A 
ATOM      8  C   UNL     1      -1.117  -2.731  24.580  0.00  0.00    +0.002 A 
ATOM      9  C   UNL     1      -0.997  -1.917  24.529  0.00  0.00    +0.017 A 
ATOM     10  C   UNL     1      -1.644  -1.405  24.508  0.00  0.00    +0.075 A 
ATOM     32  C   UNL     1      -2.411  -1.708  24.539  0.00  0.00    +0.023 A 
BRANCH   6   4
ATOM      4  C   UNL     1      -3.296  -2.826  24.621  0.00  0.00    +0.341 C 
ATOM      5  O   UNL     1      -3.608  -3.091  25.339  0.00  0.00    -0.245 OA
BRANCH   4   3
ATOM      3  O   UNL     1      -3.753  -2.866  23.935  0.00  0.00    -0.445 OA
BRANCH   3   2
ATOM      1  C   UNL     1      -5.020  -2.741  23.287  0.00  0.00    +0.051 C 
ATOM      2  C   UNL     1      -4.572  -2.784  23.979  0.00  0.00    +0.209 C 
ENDBRANCH   3   2
ENDBRANCH   4   3
ENDBRANCH   6   4
ENDBRANCH  11  10
BRANCH  28  29
ATOM     29  C   UNL     1      -1.290   2.245  23.588  0.00  0.00    +0.002 C 
ATOM     30  C   UNL     1      -1.882   1.985  23.073  0.00  0.00    +0.000 C 
ENDBRANCH  28  29
BRANCH  17  18
ATOM     18  C   UNL     1      -0.802   3.092  24.916  0.00  0.00    +0.087 C 
BRANCH  18  19
ATOM     19  C   UNL     1      -0.213   3.451  25.370  0.00  0.00    +0.246 C 
ATOM     20  O   UNL     1       0.441   3.014  25.618  0.00  0.00    -0.273 OA
ATOM     21  N   UNL     1      -0.280   4.247  25.576  0.00  0.00    -0.179 NA
BRANCH  21  22
ATOM     22  C   UNL     1      -0.934   4.684  25.330  0.00  0.00    +0.073 A 
ATOM     23  C   UNL     1      -0.874   5.182  24.675  0.00  0.00    +0.017 A 
ATOM     24  C   UNL     1      -1.529   5.619  24.428  0.00  0.00    +0.001 A 
ATOM     25  C   UNL     1      -2.243   5.558  24.835  0.00  0.00    +0.000 A 
ATOM     26  C   UNL     1      -2.303   5.060  25.489  0.00  0.00    +0.001 A 
ATOM     27  C   UNL     1      -1.648   4.623  25.737  0.00  0.00    +0.017 A 
ENDBRANCH  21  22
ENDBRANCH  18  19
ENDBRANCH  17  18
TORSDOF 8
ENDMDL
MODEL 7
REMARK VINA RESULT:      -6.5      2.555      6.650
REMARK  Name = 
REMARK  8 active torsions:
REMARK  status: ('A' for Active; 'I' for Inactive)
REMARK    1  A    between atoms: C_2  and  O_3
REMARK    2  A    between atoms: O_3  and  C_4
REMARK    3  A    between atoms: C_4  and  C_6
REMARK    4  A    between atoms: C_10  and  N_11
REMARK    5  A    between atoms: C_17  and  C_18
REMARK    6  A    between atoms: C_18  and  C_19
REMARK    7  A    between atoms: N_21  and  C_22
REMARK    8  A    between atoms: C_28  and  C_29
REMARK                            x       y       z     vdW  Elec       q    Type
REMARK                         _______ _______ _______ _____ _____    ______ ____
ROOT
ATOM     11  N   UNL     1      -2.514   2.818  24.684  0.00  0.00    -0.162 NA
ATOM     12  C   UNL     1      -2.461   2.262  24.076  0.00  0.00    +0.327 C 
ATOM     13  O   UNL     1      -3.096   2.151  23.561  0.00  0.00    -0.250 OA
ATOM     14  N   UNL     1      -1.772   1.816  23.983  0.00  0.00    -0.263 N 
ATOM     15  C   UNL     1      -1.719   1.261  23.376  0.00  0.00    +0.095 C 
ATOM     16  C   UNL     1      -1.031   0.815  23.283  0.00  0.00    +0.022 C 
ATOM     17  C   UNL     1      -0.396   0.926  23.798  0.00  0.00    +0.012 C 
ATOM     28  C   UNL     1      -0.449   1.482  24.406  0.00  0.00    +0.020 C 
ATOM     31  C   UNL     1      -1.138   1.927  24.498  0.00  0.00    +0.095 C 
ENDROOT
BRANCH  11  10
ATOM      6  C   UNL     1      -4.545   3.381  25.251  0.00  0.00    +0.077 A 
ATOM      7  C   UNL     1      -4.579   4.153  24.961  0.00  0.00    +0.007 A 
ATOM      8  C   UNL     1      -3.925   4.480  24.579  0.00  0.00    +0.002 A 
ATOM      9  C   UNL     1      -3.237   4.035  24.487  0.00  0.00    +0.017 A 
ATOM     10  C   UNL     1      -3.202   3.263  24.776  0.00  0.00    +0.075 A 
ATOM     32  C   UNL     1      -3.856   2.936  25.158  0.00  0.00    +0.023 A 
BRANCH   6   4
ATOM      4  C   UNL     1      -5.199   3.055  25.633  0.00  0.00    +0.341 C 
ATOM      5  O   UNL     1      -5.295   3.157  26.446  0.00  0.00    -0.245 OA
BRANCH   4   3
ATOM      3  O   UNL     1      -5.757   2.627  25.202  0.00  0.00    -0.445 OA
BRANCH   3   2
ATOM      1  C   UNL     1      -6.565   1.453  25.102  0.00  0.00    +0.051 C 
ATOM      2  C   UNL     1      -6.179   2.017  25.564  0.00  0.00    +0.209 C 
ENDBRANCH   3   2
ENDBRANCH   4   3
ENDBRANCH   6   4
ENDBRANCH  11  10
BRANCH  28  29
ATOM     29  C   UNL     1       0.186   1.592  24.920  0.00  0.00    +0.002 C 
ATOM     30  C   UNL     1       0.193   2.238  25.434  0.00  0.00    +0.000 C 
ENDBRANCH  28  29
BRANCH  17  18
ATOM     18  C   UNL     1       0.292   0.480  23.705  0.00  0.00    +0.087 C 
BRANCH  18  19
ATOM     19  C   UNL     1       0.250  -0.344  23.691  0.00  0.00    +0.246 C 
ATOM     20  O   UNL     1      -0.389  -0.731  24.040  0.00  0.00    -0.273 OA
ATOM     21  N   UNL     1       0.849  -0.781  23.327  0.00  0.00    -0.179 NA
BRANCH  21  22
ATOM     22  C   UNL     1       1.488  -0.394  22.979  0.00  0.00    +0.073 A 
ATOM     23  C   UNL     1       1.491  -0.251  22.167  0.00  0.00    +0.017 A 
ATOM     24  C   UNL     1       2.130   0.136  21.818  0.00  0.00    +0.001 A 
ATOM     25  C   UNL     1       2.767   0.380  22.281  0.00  0.00    +0.000 A 
ATOM     26  C   UNL     1       2.765   0.237  23.093  0.00  0.00    +0.001 A 
ATOM     27  C   UNL     1       2.125  -0.150  23.442  0.00  0.00    +0.017 A 
ENDBRANCH  21  22
ENDBRANCH  18  19
ENDBRANCH  17  18
TORSDOF 8
ENDMDL
