MODEL 1
REMARK VINA RESULT:      -9.8      0.000      0.000
REMARK  Name = 
REMARK  7 active torsions:
REMARK  status: ('A' for Active; 'I' for Inactive)
REMARK    1  A    between atoms: C_2  and  C_3
REMARK    2  A    between atoms: C_3  and  N_4
REMARK    3  A    between atoms: N_7  and  C_8
REMARK    4  A    between atoms: C_8  and  C_9
REMARK    5  A    between atoms: C_13  and  C_14
REMARK    6  A    between atoms: C_14  and  C_15
REMARK    7  A    between atoms: C_26  and  C_27
REMARK                            x       y       z     vdW  Elec       q    Type
REMARK                         _______ _______ _______ _____ _____    ______ ____
ROOT
ATOM      9  C   UNL     1      -1.497   0.623  23.835  0.00  0.00    +0.043 C 
ATOM     10  C   UNL     1      -1.601   1.189  23.242  0.00  0.00    -0.033 C 
ATOM     11  C   UNL     1      -2.348   1.514  23.110  0.00  0.00    -0.048 C 
ATOM     12  C   UNL     1      -2.452   2.079  22.518  0.00  0.00    +0.026 C 
ATOM     13  C   UNL     1      -2.990   1.274  23.569  0.00  0.00    +0.026 C 
ATOM     25  C   UNL     1      -2.885   0.709  24.160  0.00  0.00    +0.005 C 
ATOM     26  C   UNL     1      -2.139   0.383  24.294  0.00  0.00    +0.006 C 
ENDROOT
BRANCH  26  27
ATOM     27  C   UNL     1      -2.034  -0.182  24.885  0.00  0.00    +0.000 C 
ATOM     28  C   UNL     1      -2.214  -0.974  24.736  0.00  0.00    +0.000 C 
ATOM     29  C   UNL     1      -1.750   0.044  25.625  0.00  0.00    +0.000 C 
ENDBRANCH  26  27
BRANCH   9   8
ATOM      8  C   UNL     1      -0.750   0.298  23.967  0.00  0.00    +0.121 C 
BRANCH   8   7
ATOM      4  N   UNL     1       1.239   0.452  23.080  0.00  0.00    -0.187 NA
ATOM      5  C   UNL     1       0.580   0.141  23.468  0.00  0.00    +0.339 C 
ATOM      6  O   UNL     1       0.592  -0.636  23.744  0.00  0.00    -0.249 OA
ATOM      7  N   UNL     1      -0.091   0.609  23.579  0.00  0.00    -0.187 NA
BRANCH   4   3
ATOM      3  C   UNL     1       1.910  -0.015  22.969  0.00  0.00    +0.117 C 
BRANCH   3   2
ATOM      1  C   UNL     1       3.216   0.460  22.637  0.00  0.00    +0.002 C 
ATOM      2  C   UNL     1       2.470   0.197  22.401  0.00  0.00    +0.023 C 
ENDBRANCH   3   2
ENDBRANCH   4   3
ENDBRANCH   8   7
ENDBRANCH   9   8
BRANCH  13  14
ATOM     14  C   UNL     1      -3.736   1.599  23.436  0.00  0.00    +0.070 C 
BRANCH  14  15
ATOM     15  C   UNL     1      -4.176   1.894  24.069  0.00  0.00    +0.139 A 
ATOM     16  N   UNL     1      -4.821   1.523  24.426  0.00  0.00    -0.229 NA
ATOM     17  C   UNL     1      -5.091   2.012  25.034  0.00  0.00    +0.100 A 
ATOM     18  C   UNL     1      -4.614   2.684  25.052  0.00  0.00    +0.096 A 
ATOM     19  N   UNL     1      -4.048   2.611  24.455  0.00  0.00    -0.230 NA
ATOM     20  C   UNL     1      -4.755   3.276  25.608  0.00  0.00    -0.003 A 
ATOM     21  C   UNL     1      -4.278   3.949  25.627  0.00  0.00    +0.033 C 
ATOM     22  C   UNL     1      -5.375   3.195  26.147  0.00  0.00    -0.003 A 
ATOM     23  C   UNL     1      -5.852   2.522  26.129  0.00  0.00    +0.001 A 
ATOM     24  C   UNL     1      -5.710   1.931  25.572  0.00  0.00    +0.021 A 
ENDBRANCH  14  15
ENDBRANCH  13  14
TORSDOF 7
ENDMDL
MODEL 2
REMARK VINA RESULT:      -9.2      2.608      4.592
REMARK  Name = 
REMARK  7 active torsions:
REMARK  status: ('A' for Active; 'I' for Inactive)
REMARK    1  A    between atoms: C_2  and  C_3
REMARK    2  A    between atoms: C_3  and  N_4
REMARK    3  A    between atoms: N_7  and  C_8
REMARK    4  A    between atoms: C_8  and  C_9
REMARK    5  A    between atoms: C_13  and  C_14
REMARK    6  A    between atoms: C_14  and  C_15
REMARK    7  A    between atoms: C_26  and  C_27
REMARK                            x       y       z     vdW  Elec       q    Type
REMARK                         _______ _______ _______ _____ _____    ______ ____
ROOT
ATOM      9  C   UNL     1      -3.779   2.052  24.478  0.00  0.00    +0.043 C 
ATOM     10  C   UNL     1      -3.173   1.909  23.936  0.00  0.00    -0.033 C 
ATOM     11  C   UNL     1      -3.150   1.195  23.523  0.00  0.00    -0.048 C 
ATOM     12  C   UNL     1      -2.544   1.052  22.981  0.00  0.00    +0.026 C 
ATOM     13  C   UNL     1      -3.732   0.624  23.652  0.00  0.00    +0.026 C 
ATOM     25  C   UNL     1      -4.336   0.768  24.193  0.00  0.00    +0.005 C 
ATOM     26  C   UNL     1      -4.361   1.482  24.607  0.00  0.00    +0.006 C 
ENDROOT
BRANCH  26  27
ATOM     27  C   UNL     1      -4.966   1.625  25.148  0.00  0.00    +0.000 C 
ATOM     28  C   UNL     1      -4.907   1.337  25.919  0.00  0.00    +0.000 C 
ATOM     29  C   UNL     1      -5.630   2.057  24.919  0.00  0.00    +0.000 C 
ENDBRANCH  26  27
BRANCH   9   8
ATOM      8  C   UNL     1      -3.802   2.766  24.890  0.00  0.00    +0.121 C 
BRANCH   8   7
ATOM      4  N   UNL     1      -2.488   4.510  24.873  0.00  0.00    -0.187 NA
ATOM      5  C   UNL     1      -2.921   3.862  25.146  0.00  0.00    +0.339 C 
ATOM      6  O   UNL     1      -2.906   3.663  25.946  0.00  0.00    -0.249 OA
ATOM      7  N   UNL     1      -3.369   3.414  24.617  0.00  0.00    -0.187 NA
BRANCH   4   3
ATOM      3  C   UNL     1      -2.041   4.958  25.401  0.00  0.00    +0.117 C 
BRANCH   3   2
ATOM      1  C   UNL     1      -0.747   5.323  24.916  0.00  0.00    +0.002 C 
ATOM      2  C   UNL     1      -1.519   5.532  25.116  0.00  0.00    +0.023 C 
ENDBRANCH   3   2
ENDBRANCH   4   3
ENDBRANCH   8   7
ENDBRANCH   9   8
BRANCH  13  14
ATOM     14  C   UNL     1      -3.707  -0.089  23.238  0.00  0.00    +0.070 C 
BRANCH  14  15
ATOM     15  C   UNL     1      -3.583  -0.796  23.644  0.00  0.00    +0.139 A 
ATOM     16  N   UNL     1      -4.131  -1.406  23.736  0.00  0.00    -0.229 NA
ATOM     17  C   UNL     1      -3.775  -2.005  24.179  0.00  0.00    +0.100 A 
ATOM     18  C   UNL     1      -3.007  -1.765  24.360  0.00  0.00    +0.096 A 
ATOM     19  N   UNL     1      -2.888  -1.018  24.030  0.00  0.00    -0.230 NA
ATOM     20  C   UNL     1      -2.515  -2.257  24.803  0.00  0.00    -0.003 A 
ATOM     21  C   UNL     1      -1.747  -2.018  24.985  0.00  0.00    +0.033 C 
ATOM     22  C   UNL     1      -2.791  -2.990  25.063  0.00  0.00    -0.003 A 
ATOM     23  C   UNL     1      -3.559  -3.229  24.881  0.00  0.00    +0.001 A 
ATOM     24  C   UNL     1      -4.051  -2.737  24.439  0.00  0.00    +0.021 A 
ENDBRANCH  14  15
ENDBRANCH  13  14
TORSDOF 7
ENDMDL
MODEL 3
REMARK VINA RESULT:      -9.1      2.374      4.260
REMARK  Name = 
REMARK  7 active torsions:
REMARK  status: ('A' for Active; 'I' for Inactive)
REMARK    1  A    between atoms: C_2  and  C_3
REMARK    2  A    between atoms: C_3  and  N_4
REMARK    3  A    between atoms: N_7  and  C_8
REMARK    4  A    between atoms: C_8  and  C_9
REMARK    5  A    between atoms: C_13  and  C_14
REMARK    6  A    between atoms: C_14  and  C_15
REMARK    7  A    between atoms: C_26  and  C_27
REMARK                            x       y       z     vdW  Elec       q    Type
REMARK                         _______ _______ _______ _____ _____    ______ ____
ROOT
ATOM      9  C   UNL     1      -2.260   1.728  24.833  0.00  0.00    +0.043 C 
ATOM     10  C   UNL     1      -3.037   2.009  24.815  0.00  0.00    -0.033 C 
ATOM     11  C   UNL     1      -3.667   1.484  24.898  0.00  0.00    -0.048 C 
ATOM     12  C   UNL     1      -4.443   1.765  24.880  0.00  0.00    +0.026 C 
ATOM     13  C   UNL     1      -3.523   0.678  25.000  0.00  0.00    +0.026 C 
ATOM     25  C   UNL     1      -2.748   0.397  25.017  0.00  0.00    +0.005 C 
ATOM     26  C   UNL     1      -2.116   0.922  24.934  0.00  0.00    +0.006 C 
ENDROOT
BRANCH  26  27
ATOM     27  C   UNL     1      -1.341   0.641  24.952  0.00  0.00    +0.000 C 
ATOM     28  C   UNL     1      -0.947   0.561  25.673  0.00  0.00    +0.000 C 
ATOM     29  C   UNL     1      -0.959   0.440  24.249  0.00  0.00    +0.000 C 
ENDBRANCH  26  27
BRANCH   9   8
ATOM      8  C   UNL     1      -1.630   2.253  24.749  0.00  0.00    +0.121 C 
BRANCH   8   7
ATOM      4  N   UNL     1      -1.267   4.392  24.996  0.00  0.00    -0.187 NA
ATOM      5  C   UNL     1      -1.192   3.613  24.732  0.00  0.00    +0.339 C 
ATOM      6  O   UNL     1      -0.604   3.417  24.187  0.00  0.00    -0.249 OA
ATOM      7  N   UNL     1      -1.705   3.032  25.013  0.00  0.00    -0.187 NA
BRANCH   4   3
ATOM      3  C   UNL     1      -0.754   4.973  24.714  0.00  0.00    +0.117 C 
BRANCH   3   2
ATOM      1  C   UNL     1      -1.615   6.096  24.908  0.00  0.00    +0.002 C 
ATOM      2  C   UNL     1      -0.862   5.761  24.935  0.00  0.00    +0.023 C 
ENDBRANCH   3   2
ENDBRANCH   4   3
ENDBRANCH   8   7
ENDBRANCH   9   8
BRANCH  13  14
ATOM     14  C   UNL     1      -4.154   0.154  25.083  0.00  0.00    +0.070 C 
BRANCH  14  15
ATOM     15  C   UNL     1      -4.080  -0.626  24.822  0.00  0.00    +0.139 A 
ATOM     16  N   UNL     1      -4.328  -0.918  24.091  0.00  0.00    -0.229 NA
ATOM     17  C   UNL     1      -4.146  -1.722  24.063  0.00  0.00    +0.100 A 
ATOM     18  C   UNL     1      -3.786  -1.927  24.776  0.00  0.00    +0.096 A 
ATOM     19  N   UNL     1      -3.745  -1.249  25.245  0.00  0.00    -0.230 NA
ATOM     20  C   UNL     1      -3.541  -2.704  24.907  0.00  0.00    -0.003 A 
ATOM     21  C   UNL     1      -3.181  -2.909  25.621  0.00  0.00    +0.033 C 
ATOM     22  C   UNL     1      -3.657  -3.276  24.324  0.00  0.00    -0.003 A 
ATOM     23  C   UNL     1      -4.017  -3.071  23.611  0.00  0.00    +0.001 A 
ATOM     24  C   UNL     1      -4.261  -2.294  23.480  0.00  0.00    +0.021 A 
ENDBRANCH  14  15
ENDBRANCH  13  14
TORSDOF 7
ENDMDL
MODEL 4
REMARK VINA RESULT:      -8.9      1.651      2.035
REMARK  Name = 
REMARK  7 active torsions:
REMARK  status: ('A' for Active; 'I' for Inactive)
REMARK    1  A    between atoms: C_2  and  C_3
REMARK    2  A    between atoms: C_3  and  N_4
REMARK    3  A    between atoms: N_7  and  C_8
REMARK    4  A    between atoms: C_8  and  C_9
REMARK    5  A    between atoms: C_13  and  C_14
REMARK    6  A    between atoms: C_14  and  C_15
REMARK    7  A    between atoms: C_26  and  C_27
REMARK                            x       y       z     vdW  Elec       q    Type
REMARK                         _______ _______ _______ _____ _____    ______ ____
ROOT
ATOM      9  C   UNL     1      -0.175   1.833  24.496  0.00  0.00    +0.043 C 
ATOM     10  C   UNL     1       0.012   2.630  24.383  0.00  0.00    -0.033 C 
ATOM     11  C   UNL     1      -0.467   3.215  24.710  0.00  0.00    -0.048 C 
ATOM     12  C   UNL     1      -0.280   4.012  24.597  0.00  0.00    +0.026 C 
ATOM     13  C   UNL     1      -1.133   3.006  25.150  0.00  0.00    +0.026 C 
ATOM     25  C   UNL     1      -1.319   2.211  25.262  0.00  0.00    +0.005 C 
ATOM     26  C   UNL     1      -0.840   1.624  24.936  0.00  0.00    +0.006 C 
ENDROOT
BRANCH  26  27
ATOM     27  C   UNL     1      -1.027   0.829  25.048  0.00  0.00    +0.000 C 
ATOM     28  C   UNL     1      -1.459   0.421  24.476  0.00  0.00    +0.000 C 
ATOM     29  C   UNL     1      -0.781   0.441  25.734  0.00  0.00    +0.000 C 
ENDBRANCH  26  27
BRANCH   9   8
ATOM      8  C   UNL     1       0.305   1.247  24.168  0.00  0.00    +0.121 C 
BRANCH   8   7
ATOM      4  N   UNL     1       2.320   1.067  23.347  0.00  0.00    -0.187 NA
ATOM      5  C   UNL     1       1.526   0.906  23.510  0.00  0.00    +0.339 C 
ATOM      6  O   UNL     1       1.162   0.245  23.176  0.00  0.00    -0.249 OA
ATOM      7  N   UNL     1       1.099   1.408  24.006  0.00  0.00    -0.187 NA
BRANCH   4   3
ATOM      3  C   UNL     1       2.748   0.565  22.851  0.00  0.00    +0.117 C 
BRANCH   3   2
ATOM      1  C   UNL     1       4.174   0.616  22.925  0.00  0.00    +0.002 C 
ATOM      2  C   UNL     1       3.472   0.813  22.540  0.00  0.00    +0.023 C 
ENDBRANCH   3   2
ENDBRANCH   4   3
ENDBRANCH   8   7
ENDBRANCH   9   8
BRANCH  13  14
ATOM     14  C   UNL     1      -1.612   3.593  25.477  0.00  0.00    +0.070 C 
BRANCH  14  15
ATOM     15  C   UNL     1      -2.432   3.544  25.403  0.00  0.00    +0.139 A 
ATOM     16  N   UNL     1      -2.975   3.524  26.025  0.00  0.00    -0.229 NA
ATOM     17  C   UNL     1      -3.732   3.474  25.701  0.00  0.00    +0.100 A 
ATOM     18  C   UNL     1      -3.658   3.463  24.880  0.00  0.00    +0.096 A 
ATOM     19  N   UNL     1      -2.854   3.506  24.696  0.00  0.00    -0.230 NA
ATOM     20  C   UNL     1      -4.331   3.414  24.405  0.00  0.00    -0.003 A 
ATOM     21  C   UNL     1      -4.256   3.403  23.583  0.00  0.00    +0.033 C 
ATOM     22  C   UNL     1      -5.078   3.377  24.752  0.00  0.00    -0.003 A 
ATOM     23  C   UNL     1      -5.152   3.389  25.574  0.00  0.00    +0.001 A 
ATOM     24  C   UNL     1      -4.479   3.437  26.048  0.00  0.00    +0.021 A 
ENDBRANCH  14  15
ENDBRANCH  13  14
TORSDOF 7
ENDMDL
MODEL 5
REMARK VINA RESULT:      -8.3      2.721      4.402
REMARK  Name = 
REMARK  7 active torsions:
REMARK  status: ('A' for Active; 'I' for Inactive)
REMARK    1  A    between atoms: C_2  and  C_3
REMARK    2  A    between atoms: C_3  and  N_4
REMARK    3  A    between atoms: N_7  and  C_8
REMARK    4  A    between atoms: C_8  and  C_9
REMARK    5  A    between atoms: C_13  and  C_14
REMARK    6  A    between atoms: C_14  and  C_15
REMARK    7  A    between atoms: C_26  and  C_27
REMARK                            x       y       z     vdW  Elec       q    Type
REMARK                         _______ _______ _______ _____ _____    ______ ____
ROOT
ATOM      9  C   UNL     1      -0.556   0.927  24.820  0.00  0.00    +0.043 C 
ATOM     10  C   UNL     1      -0.874   0.774  25.567  0.00  0.00    -0.033 C 
ATOM     11  C   UNL     1      -1.128   0.013  25.758  0.00  0.00    -0.048 C 
ATOM     12  C   UNL     1      -1.446  -0.140  26.504  0.00  0.00    +0.026 C 
ATOM     13  C   UNL     1      -1.065  -0.595  25.203  0.00  0.00    +0.026 C 
ATOM     25  C   UNL     1      -0.748  -0.442  24.458  0.00  0.00    +0.005 C 
ATOM     26  C   UNL     1      -0.493   0.319  24.266  0.00  0.00    +0.006 C 
ENDROOT
BRANCH  26  27
ATOM     27  C   UNL     1      -0.176   0.472  23.520  0.00  0.00    +0.000 C 
ATOM     28  C   UNL     1      -0.666   0.725  22.907  0.00  0.00    +0.000 C 
ATOM     29  C   UNL     1       0.632   0.372  23.388  0.00  0.00    +0.000 C 
ENDBRANCH  26  27
BRANCH   9   8
ATOM      8  C   UNL     1      -0.302   1.688  24.629  0.00  0.00    +0.121 C 
BRANCH   8   7
ATOM      4  N   UNL     1      -0.759   3.730  25.251  0.00  0.00    -0.187 NA
ATOM      5  C   UNL     1      -0.533   3.090  24.782  0.00  0.00    +0.339 C 
ATOM      6  O   UNL     1      -0.312   3.212  23.996  0.00  0.00    -0.249 OA
ATOM      7  N   UNL     1      -0.528   2.328  25.098  0.00  0.00    -0.187 NA
BRANCH   4   3
ATOM      3  C   UNL     1      -0.764   4.491  24.934  0.00  0.00    +0.117 C 
BRANCH   3   2
ATOM      1  C   UNL     1      -1.302   5.815  24.907  0.00  0.00    +0.002 C 
ATOM      2  C   UNL     1      -1.325   5.041  25.190  0.00  0.00    +0.023 C 
ENDBRANCH   3   2
ENDBRANCH   4   3
ENDBRANCH   8   7
ENDBRANCH   9   8
BRANCH  13  14
ATOM     14  C   UNL     1      -1.320  -1.356  25.396  0.00  0.00    +0.070 C 
BRANCH  14  15
ATOM     15  C   UNL     1      -1.986  -1.673  25.026  0.00  0.00    +0.139 A 
ATOM     16  N   UNL     1      -2.056  -2.439  24.727  0.00  0.00    -0.229 NA
ATOM     17  C   UNL     1      -2.813  -2.520  24.407  0.00  0.00    +0.100 A 
ATOM     18  C   UNL     1      -3.210  -1.804  24.508  0.00  0.00    +0.096 A 
ATOM     19  N   UNL     1      -2.699  -1.281  24.891  0.00  0.00    -0.230 NA
ATOM     20  C   UNL     1      -3.985  -1.720  24.239  0.00  0.00    -0.003 A 
ATOM     21  C   UNL     1      -4.382  -1.004  24.340  0.00  0.00    +0.033 C 
ATOM     22  C   UNL     1      -4.362  -2.353  23.868  0.00  0.00    -0.003 A 
ATOM     23  C   UNL     1      -3.965  -3.069  23.767  0.00  0.00    +0.001 A 
ATOM     24  C   UNL     1      -3.191  -3.152  24.036  0.00  0.00    +0.021 A 
ENDBRANCH  14  15
ENDBRANCH  13  14
TORSDOF 7
ENDMDL
MODEL 6
REMARK VINA RESULT:      -8.3      2.314      3.458
REMARK  Name = 
REMARK  7 active torsions:
REMARK  status: ('A' for Active; 'I' for Inactive)
REMARK    1  A    between atoms: C_2  and  C_3
REMARK    2  A    between atoms: C_3  and  N_4
REMARK    3  A    between atoms: N_7  and  C_8
REMARK    4  A    between atoms: C_8  and  C_9
REMARK    5  A    between atoms: C_13  and  C_14
REMARK    6  A    between atoms: C_14  and  C_15
REMARK    7  A    between atoms: C_26  and  C_27
REMARK                            x       y       z     vdW  Elec       q    Type
REMARK                         _______ _______ _______ _____ _____    ______ ____
ROOT
ATOM      9  C   UNL     1      -0.051   0.328  24.159  0.00  0.00    +0.043 C 
ATOM     10  C   UNL     1       0.149  -0.427  24.427  0.00  0.00    -0.033 C 
ATOM     11  C   UNL     1      -0.398  -0.870  24.857  0.00  0.00    -0.048 C 
ATOM     12  C   UNL     1      -0.197  -1.625  25.125  0.00  0.00    +0.026 C 
ATOM     13  C   UNL     1      -1.145  -0.560  25.018  0.00  0.00    +0.026 C 
ATOM     25  C   UNL     1      -1.345   0.194  24.749  0.00  0.00    +0.005 C 
ATOM     26  C   UNL     1      -0.799   0.638  24.320  0.00  0.00    +0.006 C 
ENDROOT
BRANCH  26  27
ATOM     27  C   UNL     1      -0.998   1.392  24.052  0.00  0.00    +0.000 C 
ATOM     28  C   UNL     1      -1.328   1.489  23.302  0.00  0.00    +0.000 C 
ATOM     29  C   UNL     1      -0.869   2.049  24.534  0.00  0.00    +0.000 C 
ENDBRANCH  26  27
BRANCH   9   8
ATOM      8  C   UNL     1       0.496   0.771  23.730  0.00  0.00    +0.121 C 
BRANCH   8   7
ATOM      4  N   UNL     1       2.495   0.435  22.919  0.00  0.00    -0.187 NA
ATOM      5  C   UNL     1       1.850   0.809  23.273  0.00  0.00    +0.339 C 
ATOM      6  O   UNL     1       1.913   1.592  23.524  0.00  0.00    -0.249 OA
ATOM      7  N   UNL     1       1.142   0.398  23.376  0.00  0.00    -0.187 NA
BRANCH   4   3
ATOM      3  C   UNL     1       3.203   0.846  22.816  0.00  0.00    +0.117 C 
BRANCH   3   2
ATOM      1  C   UNL     1       4.602   0.560  22.878  0.00  0.00    +0.002 C 
ATOM      2  C   UNL     1       3.867   0.456  22.519  0.00  0.00    +0.023 C 
ENDBRANCH   3   2
ENDBRANCH   4   3
ENDBRANCH   8   7
ENDBRANCH   9   8
BRANCH  13  14
ATOM     14  C   UNL     1      -1.692  -1.004  25.447  0.00  0.00    +0.070 C 
BRANCH  14  15
ATOM     15  C   UNL     1      -2.353  -1.322  25.068  0.00  0.00    +0.139 A 
ATOM     16  N   UNL     1      -2.445  -2.108  24.832  0.00  0.00    -0.229 NA
ATOM     17  C   UNL     1      -3.186  -2.182  24.477  0.00  0.00    +0.100 A 
ATOM     18  C   UNL     1      -3.552  -1.443  24.494  0.00  0.00    +0.096 A 
ATOM     19  N   UNL     1      -3.036  -0.912  24.859  0.00  0.00    -0.230 NA
ATOM     20  C   UNL     1      -4.306  -1.348  24.175  0.00  0.00    -0.003 A 
ATOM     21  C   UNL     1      -4.672  -0.609  24.192  0.00  0.00    +0.033 C 
ATOM     22  C   UNL     1      -4.695  -1.993  23.839  0.00  0.00    -0.003 A 
ATOM     23  C   UNL     1      -4.329  -2.733  23.822  0.00  0.00    +0.001 A 
ATOM     24  C   UNL     1      -3.575  -2.827  24.141  0.00  0.00    +0.021 A 
ENDBRANCH  14  15
ENDBRANCH  13  14
TORSDOF 7
ENDMDL
MODEL 7
REMARK VINA RESULT:      -8.2      2.605      4.048
REMARK  Name = 
REMARK  7 active torsions:
REMARK  status: ('A' for Active; 'I' for Inactive)
REMARK    1  A    between atoms: C_2  and  C_3
REMARK    2  A    between atoms: C_3  and  N_4
REMARK    3  A    between atoms: N_7  and  C_8
REMARK    4  A    between atoms: C_8  and  C_9
REMARK    5  A    between atoms: C_13  and  C_14
REMARK    6  A    between atoms: C_14  and  C_15
REMARK    7  A    between atoms: C_26  and  C_27
REMARK                            x       y       z     vdW  Elec       q    Type
REMARK                         _______ _______ _______ _____ _____    ______ ____
ROOT
ATOM      9  C   UNL     1      -4.188   0.798  24.367  0.00  0.00    +0.043 C 
ATOM     10  C   UNL     1      -3.578   0.784  23.811  0.00  0.00    -0.033 C 
ATOM     11  C   UNL     1      -3.290   1.490  23.497  0.00  0.00    -0.048 C 
ATOM     12  C   UNL     1      -2.680   1.476  22.941  0.00  0.00    +0.026 C 
ATOM     13  C   UNL     1      -3.612   2.210  23.738  0.00  0.00    +0.026 C 
ATOM     25  C   UNL     1      -4.221   2.224  24.294  0.00  0.00    +0.005 C 
ATOM     26  C   UNL     1      -4.509   1.518  24.609  0.00  0.00    +0.006 C 
ENDROOT
BRANCH  26  27
ATOM     27  C   UNL     1      -5.118   1.532  25.164  0.00  0.00    +0.000 C 
ATOM     28  C   UNL     1      -4.943   1.599  25.968  0.00  0.00    +0.000 C 
ATOM     29  C   UNL     1      -5.903   1.480  24.916  0.00  0.00    +0.000 C 
ENDBRANCH  26  27
BRANCH   9   8
ATOM      8  C   UNL     1      -4.475   0.092  24.681  0.00  0.00    +0.121 C 
BRANCH   8   7
ATOM      4  N   UNL     1      -3.848  -1.985  24.432  0.00  0.00    -0.187 NA
ATOM      5  C   UNL     1      -4.042  -1.266  24.789  0.00  0.00    +0.339 C 
ATOM      6  O   UNL     1      -3.997  -1.187  25.609  0.00  0.00    -0.249 OA
ATOM      7  N   UNL     1      -4.281  -0.627  24.325  0.00  0.00    -0.187 NA
BRANCH   4   3
ATOM      3  C   UNL     1      -3.609  -2.623  24.896  0.00  0.00    +0.117 C 
BRANCH   3   2
ATOM      1  C   UNL     1      -2.525  -3.322  24.279  0.00  0.00    +0.002 C 
ATOM      2  C   UNL     1      -3.308  -3.304  24.537  0.00  0.00    +0.023 C 
ENDBRANCH   3   2
ENDBRANCH   4   3
ENDBRANCH   8   7
ENDBRANCH   9   8
BRANCH  13  14
ATOM     14  C   UNL     1      -3.323   2.916  23.423  0.00  0.00    +0.070 C 
BRANCH  14  15
ATOM     15  C   UNL     1      -2.854   3.413  23.886  0.00  0.00    +0.139 A 
ATOM     16  N   UNL     1      -3.088   4.135  24.213  0.00  0.00    -0.229 NA
ATOM     17  C   UNL     1      -2.448   4.443  24.633  0.00  0.00    +0.100 A 
ATOM     18  C   UNL     1      -1.819   3.912  24.566  0.00  0.00    +0.096 A 
ATOM     19  N   UNL     1      -2.071   3.276  24.105  0.00  0.00    -0.230 NA
ATOM     20  C   UNL     1      -1.099   4.077  24.933  0.00  0.00    -0.003 A 
ATOM     21  C   UNL     1      -0.471   3.546  24.867  0.00  0.00    +0.033 C 
ATOM     22  C   UNL     1      -1.008   4.772  25.368  0.00  0.00    -0.003 A 
ATOM     23  C   UNL     1      -1.637   5.302  25.434  0.00  0.00    +0.001 A 
ATOM     24  C   UNL     1      -2.356   5.138  25.067  0.00  0.00    +0.021 A 
ENDBRANCH  14  15
ENDBRANCH  13  14
TORSDOF 7
ENDMDL
