REMARK  Name = 
REMARK  8 active torsions:
REMARK  status: ('A' for Active; 'I' for Inactive)
REMARK    1  A    between atoms: C_2  and  C_4
REMARK    2  A    between atoms: C_4  and  C_5
REMARK    3  A    between atoms: C_4  and  N_15
REMARK    4  A    between atoms: C_5  and  C_6
REMARK    5  A    between atoms: C_16  and  C_18
REMARK    6  A    between atoms: C_19  and  N_31
REMARK    7  A    between atoms: C_23  and  C_25
REMARK    8  A    between atoms: N_34  and  C_35
REMARK                            x       y       z     vdW  Elec       q    Type
REMARK                         _______ _______ _______ _____ _____    ______ ____
ROOT
ATOM     18  C   UNL     1      -2.522   2.666   0.000  0.00  0.00    +0.174 C 
ATOM     19  C   UNL     1      -3.307   2.921   0.000  0.00  0.00    +0.126 C 
ATOM     20  C   UNL     1      -3.307   3.746   0.000  0.00  0.00    +0.045 C 
ATOM     21  C   UNL     1      -2.522   4.001   0.000  0.00  0.00    +0.096 C 
ATOM     22  N   UNL     1      -2.037   3.334   0.000  0.00  0.00    -0.267 N 
ATOM     23  C   UNL     1      -1.212   3.334   0.000  0.00  0.00    +0.269 C 
ATOM     24  O   UNL     1      -0.800   2.619   0.000  0.00  0.00    -0.268 OA
ENDROOT
BRANCH  23  25
ATOM     25  C   UNL     1      -0.800   4.048   0.000  0.00  0.00    +0.154 A 
ATOM     26  C   UNL     1      -1.212   4.763   0.000  0.00  0.00    +0.123 A 
ATOM     27  N   UNL     1      -0.800   5.477   0.000  0.00  0.00    -0.239 NA
ATOM     28  C   UNL     1       0.025   5.477   0.000  0.00  0.00    +0.120 A 
ATOM     29  C   UNL     1       0.438   4.763   0.000  0.00  0.00    +0.120 A 
ATOM     30  N   UNL     1       0.025   4.048   0.000  0.00  0.00    -0.236 NA
ENDBRANCH  23  25
BRANCH  19  31
ATOM     31  N   UNL     1      -3.974   2.436   0.000  0.00  0.00    -0.187 NA
ATOM     32  C   UNL     1      -4.728   2.772   0.000  0.00  0.00    +0.339 C 
ATOM     33  O   UNL     1      -4.814   3.592   0.000  0.00  0.00    -0.249 OA
ATOM     34  N   UNL     1      -5.395   2.287   0.000  0.00  0.00    -0.189 NA
BRANCH  34  35
ATOM     35  C   UNL     1      -6.149   2.623   0.000  0.00  0.00    +0.097 C 
ATOM     36  C   UNL     1      -6.817   2.138   0.000  0.00  0.00    +0.022 C 
ATOM     37  C   UNL     1      -7.570   2.473   0.000  0.00  0.00    +0.002 C 
ATOM     38  C   UNL     1      -7.657   3.294   0.000  0.00  0.00    +0.000 C 
ATOM     39  C   UNL     1      -6.989   3.779   0.000  0.00  0.00    +0.002 C 
ATOM     40  C   UNL     1      -6.235   3.443   0.000  0.00  0.00    +0.022 C 
ENDBRANCH  34  35
ENDBRANCH  19  31
BRANCH  18  16
ATOM     15  N   UNL     1      -1.460   1.710   0.000  0.00  0.00    -0.196 NA
ATOM     16  C   UNL     1      -2.267   1.882   0.000  0.00  0.00    +0.262 C 
ATOM     17  O   UNL     1      -2.819   1.269   0.000  0.00  0.00    -0.271 OA
BRANCH  15   4
ATOM      4  C   UNL     1      -1.205   0.926   0.000  0.00  0.00    +0.179 C 
BRANCH   4   2
ATOM      1  N   UNL     1      -2.564   0.484   0.000  0.00  0.00    -0.086 NA
ATOM      2  C   UNL     1      -1.758   0.313   0.000  0.00  0.00    +0.281 C 
ATOM      3  O   UNL     1      -1.502  -0.472   0.000  0.00  0.00    -0.270 OA
ENDBRANCH   4   2
BRANCH   4   5
ATOM      5  C   UNL     1      -0.398   0.754   0.000  0.00  0.00    +0.059 C 
BRANCH   5   6
ATOM      6  C   UNL     1      -0.143  -0.030   0.000  0.00  0.00    +0.001 A 
ATOM      7  C   UNL     1      -0.628  -0.698   0.000  0.00  0.00    +0.095 A 
ATOM      8  N   UNL     1      -0.143  -1.365   0.000  0.00  0.00    -0.244 NA
ATOM      9  C   UNL     1       0.641  -1.110   0.000  0.00  0.00    +0.081 A 
ATOM     10  C   UNL     1       0.641  -0.285   0.000  0.00  0.00    +0.015 A 
ATOM     11  C   UNL     1       1.356   0.127   0.000  0.00  0.00    +0.001 A 
ATOM     12  C   UNL     1       2.070  -0.285   0.000  0.00  0.00    +0.000 A 
ATOM     13  C   UNL     1       2.070  -1.110   0.000  0.00  0.00    +0.002 A 
ATOM     14  C   UNL     1       1.356  -1.523   0.000  0.00  0.00    +0.019 A 
ENDBRANCH   5   6
ENDBRANCH   4   5
ENDBRANCH  15   4
ENDBRANCH  18  16
TORSDOF 8
