MODEL 1
REMARK VINA RESULT:     -11.7      0.000      0.000
REMARK  Name = 
REMARK  5 active torsions:
REMARK  status: ('A' for Active; 'I' for Inactive)
REMARK    1  A    between atoms: C_2  and  C_4
REMARK    2  A    between atoms: C_4  and  C_5
REMARK    3  A    between atoms: CA_7  and  C_25
REMARK    4  A    between atoms: N_11  and  C_12
REMARK    5  A    between atoms: C_12  and  C_13
REMARK                            x       y       z     vdW  Elec       q    Type
REMARK                         _______ _______ _______ _____ _____    ______ ____
ROOT
ATOM      5  C   UNL     1      -3.119  -0.759  24.585  0.00  0.00    +0.096 C 
ATOM      6  N   UNL     1      -2.327  -0.986  24.630  0.00  0.00    -0.205 NA
ATOM      7  CA  UNL     1      -1.661  -0.512  24.746  0.00  0.00    +0.180 C 
ATOM      8  C   UNL     1      -1.624   0.306  24.845  0.00  0.00    +0.057 C 
ATOM      9  C   UNL     1      -2.243   0.852  24.854  0.00  0.00    -0.002 A 
ATOM     10  C   UNL     1      -2.133   1.663  24.959  0.00  0.00    +0.072 A 
ATOM     11  N   UNL     1      -2.873   2.027  24.935  0.00  0.00    -0.319 N 
ATOM     19  C   UNL     1      -3.441   1.441  24.815  0.00  0.00    +0.060 A 
ATOM     20  C   UNL     1      -3.052   0.715  24.765  0.00  0.00    +0.011 A 
ATOM     21  C   UNL     1      -3.441  -0.003  24.645  0.00  0.00    -0.005 A 
ATOM     22  C   UNL     1      -4.305   0.056  24.574  0.00  0.00    -0.003 A 
ATOM     23  C   UNL     1      -4.694   0.781  24.625  0.00  0.00    +0.001 A 
ATOM     24  C   UNL     1      -4.262   1.474  24.745  0.00  0.00    +0.017 A 
ENDROOT
BRANCH   7  25
ATOM     25  C   UNL     1      -0.938  -0.908  24.764  0.00  0.00    +0.381 C 
ATOM     26  O   UNL     1      -0.619  -1.150  25.486  0.00  0.00    -0.244 OA
ATOM     27  OXT UNL     1      -0.534  -1.062  24.062  0.00  0.00    -0.244 OA
ENDBRANCH   7  25
BRANCH   5   4
ATOM      4  C   UNL     1      -3.659  -1.371  24.465  0.00  0.00    +0.022 C 
BRANCH   4   2
ATOM      1  C   UNL     1      -3.496  -2.284  25.552  0.00  0.00    +0.000 C 
ATOM      2  C   UNL     1      -3.493  -2.130  24.742  0.00  0.00    +0.002 C 
ATOM      3  C   UNL     1      -3.323  -2.735  24.207  0.00  0.00    +0.000 C 
ENDBRANCH   4   2
ENDBRANCH   5   4
BRANCH  11  12
ATOM     12  C   UNL     1      -3.020   2.834  25.017  0.00  0.00    +0.170 C 
BRANCH  12  13
ATOM     13  C   UNL     1      -2.391   3.367  25.054  0.00  0.00    +0.144 A 
ATOM     14  N   UNL     1      -1.719   3.358  24.574  0.00  0.00    -0.227 NA
ATOM     15  C   UNL     1      -1.237   3.988  24.800  0.00  0.00    +0.119 A 
ATOM     16  C   UNL     1      -1.610   4.386  25.419  0.00  0.00    +0.098 A 
ATOM     17  N   UNL     1      -2.324   4.002  25.575  0.00  0.00    -0.310 N 
ATOM     18  C   UNL     1      -2.873   4.216  26.153  0.00  0.00    +0.132 C 
ENDBRANCH  12  13
ENDBRANCH  11  12
TORSDOF 5
ENDMDL
MODEL 2
REMARK VINA RESULT:     -11.7      1.236      4.273
REMARK  Name = 
REMARK  5 active torsions:
REMARK  status: ('A' for Active; 'I' for Inactive)
REMARK    1  A    between atoms: C_2  and  C_4
REMARK    2  A    between atoms: C_4  and  C_5
REMARK    3  A    between atoms: CA_7  and  C_25
REMARK    4  A    between atoms: N_11  and  C_12
REMARK    5  A    between atoms: C_12  and  C_13
REMARK                            x       y       z     vdW  Elec       q    Type
REMARK                         _______ _______ _______ _____ _____    ______ ____
ROOT
ATOM      5  C   UNL     1      -2.514   2.929  24.896  0.00  0.00    +0.096 C 
ATOM      6  N   UNL     1      -1.709   2.772  24.981  0.00  0.00    -0.205 NA
ATOM      7  CA  UNL     1      -1.324   2.041  24.977  0.00  0.00    +0.180 C 
ATOM      8  C   UNL     1      -1.650   1.289  24.887  0.00  0.00    +0.057 C 
ATOM      9  C   UNL     1      -2.441   1.080  24.778  0.00  0.00    -0.002 A 
ATOM     10  C   UNL     1      -2.698   0.301  24.695  0.00  0.00    +0.072 A 
ATOM     11  N   UNL     1      -3.517   0.311  24.598  0.00  0.00    -0.319 N 
ATOM     19  C   UNL     1      -3.767   1.097  24.622  0.00  0.00    +0.060 A 
ATOM     20  C   UNL     1      -3.101   1.573  24.734  0.00  0.00    +0.011 A 
ATOM     21  C   UNL     1      -3.133   2.396  24.786  0.00  0.00    -0.005 A 
ATOM     22  C   UNL     1      -3.929   2.737  24.715  0.00  0.00    -0.003 A 
ATOM     23  C   UNL     1      -4.595   2.262  24.603  0.00  0.00    +0.001 A 
ATOM     24  C   UNL     1      -4.513   1.442  24.557  0.00  0.00    +0.017 A 
ENDROOT
BRANCH   7  25
ATOM     25  C   UNL     1      -0.505   2.068  25.076  0.00  0.00    +0.381 C 
ATOM     26  O   UNL     1      -0.177   1.957  25.825  0.00  0.00    -0.244 OA
ATOM     27  OXT UNL     1      -0.016   2.206  24.426  0.00  0.00    -0.244 OA
ENDBRANCH   7  25
BRANCH   5   4
ATOM      4  C   UNL     1      -2.728   3.725  24.925  0.00  0.00    +0.022 C 
BRANCH   4   2
ATOM      1  C   UNL     1      -2.558   4.213  26.258  0.00  0.00    +0.000 C 
ATOM      2  C   UNL     1      -2.356   4.234  25.458  0.00  0.00    +0.002 C 
ATOM      3  C   UNL     1      -1.782   4.762  25.191  0.00  0.00    +0.000 C 
ENDBRANCH   4   2
ENDBRANCH   5   4
BRANCH  11  12
ATOM     12  C   UNL     1      -4.002  -0.347  24.495  0.00  0.00    +0.170 C 
BRANCH  12  13
ATOM     13  C   UNL     1      -3.792  -1.071  24.830  0.00  0.00    +0.144 A 
ATOM     14  N   UNL     1      -3.466  -1.183  25.580  0.00  0.00    -0.227 NA
ATOM     15  C   UNL     1      -3.344  -1.991  25.687  0.00  0.00    +0.119 A 
ATOM     16  C   UNL     1      -3.594  -2.380  25.004  0.00  0.00    +0.098 A 
ATOM     17  N   UNL     1      -3.871  -1.811  24.475  0.00  0.00    -0.310 N 
ATOM     18  C   UNL     1      -4.175  -1.957  23.721  0.00  0.00    +0.132 C 
ENDBRANCH  12  13
ENDBRANCH  11  12
TORSDOF 5
ENDMDL
MODEL 3
REMARK VINA RESULT:     -11.2      1.777      4.777
REMARK  Name = 
REMARK  5 active torsions:
REMARK  status: ('A' for Active; 'I' for Inactive)
REMARK    1  A    between atoms: C_2  and  C_4
REMARK    2  A    between atoms: C_4  and  C_5
REMARK    3  A    between atoms: CA_7  and  C_25
REMARK    4  A    between atoms: N_11  and  C_12
REMARK    5  A    between atoms: C_12  and  C_13
REMARK                            x       y       z     vdW  Elec       q    Type
REMARK                         _______ _______ _______ _____ _____    ______ ____
ROOT
ATOM      5  C   UNL     1      -2.043   2.861  25.018  0.00  0.00    +0.096 C 
ATOM      6  N   UNL     1      -2.740   3.043  24.617  0.00  0.00    -0.205 NA
ATOM      7  CA  UNL     1      -3.278   2.528  24.261  0.00  0.00    +0.180 C 
ATOM      8  C   UNL     1      -3.251   1.704  24.219  0.00  0.00    +0.057 C 
ATOM      9  C   UNL     1      -2.679   1.192  24.522  0.00  0.00    -0.002 A 
ATOM     10  C   UNL     1      -2.715   0.372  24.443  0.00  0.00    +0.072 A 
ATOM     11  N   UNL     1      -2.052   0.050  24.813  0.00  0.00    -0.319 N 
ATOM     19  C   UNL     1      -1.605   0.672  25.122  0.00  0.00    +0.060 A 
ATOM     20  C   UNL     1      -1.993   1.378  24.942  0.00  0.00    +0.011 A 
ATOM     21  C   UNL     1      -1.711   2.121  25.163  0.00  0.00    -0.005 A 
ATOM     22  C   UNL     1      -0.963   2.113  25.606  0.00  0.00    -0.003 A 
ATOM     23  C   UNL     1      -0.575   1.407  25.786  0.00  0.00    +0.001 A 
ATOM     24  C   UNL     1      -0.897   0.686  25.544  0.00  0.00    +0.017 A 
ENDROOT
BRANCH   7  25
ATOM     25  C   UNL     1      -3.929   2.883  23.900  0.00  0.00    +0.381 C 
ATOM     26  O   UNL     1      -4.645   2.942  24.307  0.00  0.00    -0.244 OA
ATOM     27  OXT UNL     1      -3.864   3.180  23.134  0.00  0.00    -0.244 OA
ENDBRANCH   7  25
BRANCH   5   4
ATOM      4  C   UNL     1      -1.623   3.507  25.314  0.00  0.00    +0.022 C 
BRANCH   4   2
ATOM      1  C   UNL     1      -2.512   4.201  26.191  0.00  0.00    +0.000 C 
ATOM      2  C   UNL     1      -2.022   4.197  25.528  0.00  0.00    +0.002 C 
ATOM      3  C   UNL     1      -1.929   4.882  25.078  0.00  0.00    +0.000 C 
ENDBRANCH   4   2
ENDBRANCH   5   4
BRANCH  11  12
ATOM     12  C   UNL     1      -1.866  -0.752  24.866  0.00  0.00    +0.170 C 
BRANCH  12  13
ATOM     13  C   UNL     1      -2.465  -1.307  24.984  0.00  0.00    +0.144 A 
ATOM     14  N   UNL     1      -3.164  -1.185  25.404  0.00  0.00    -0.227 NA
ATOM     15  C   UNL     1      -3.600  -1.884  25.381  0.00  0.00    +0.119 A 
ATOM     16  C   UNL     1      -3.171  -2.439  24.947  0.00  0.00    +0.098 A 
ATOM     17  N   UNL     1      -2.469  -2.082  24.701  0.00  0.00    -0.310 N 
ATOM     18  C   UNL     1      -1.876  -2.438  24.251  0.00  0.00    +0.132 C 
ENDBRANCH  12  13
ENDBRANCH  11  12
TORSDOF 5
ENDMDL
MODEL 4
REMARK VINA RESULT:     -10.9      1.971      4.018
REMARK  Name = 
REMARK  5 active torsions:
REMARK  status: ('A' for Active; 'I' for Inactive)
REMARK    1  A    between atoms: C_2  and  C_4
REMARK    2  A    between atoms: C_4  and  C_5
REMARK    3  A    between atoms: CA_7  and  C_25
REMARK    4  A    between atoms: N_11  and  C_12
REMARK    5  A    between atoms: C_12  and  C_13
REMARK                            x       y       z     vdW  Elec       q    Type
REMARK                         _______ _______ _______ _____ _____    ______ ____
ROOT
ATOM      5  C   UNL     1      -4.224   2.384  24.957  0.00  0.00    +0.096 C 
ATOM      6  N   UNL     1      -3.765   3.040  25.156  0.00  0.00    -0.205 NA
ATOM      7  CA  UNL     1      -2.947   3.084  25.258  0.00  0.00    +0.180 C 
ATOM      8  C   UNL     1      -2.387   2.483  25.187  0.00  0.00    +0.057 C 
ATOM      9  C   UNL     1      -2.506   1.689  24.996  0.00  0.00    -0.002 A 
ATOM     10  C   UNL     1      -1.895   1.138  24.942  0.00  0.00    +0.072 A 
ATOM     11  N   UNL     1      -2.225   0.409  24.742  0.00  0.00    -0.319 N 
ATOM     19  C   UNL     1      -3.041   0.509  24.672  0.00  0.00    +0.060 A 
ATOM     20  C   UNL     1      -3.215   1.301  24.829  0.00  0.00    +0.011 A 
ATOM     21  C   UNL     1      -3.979   1.611  24.812  0.00  0.00    -0.005 A 
ATOM     22  C   UNL     1      -4.602   1.039  24.613  0.00  0.00    -0.003 A 
ATOM     23  C   UNL     1      -4.429   0.248  24.456  0.00  0.00    +0.001 A 
ATOM     24  C   UNL     1      -3.648  -0.017  24.485  0.00  0.00    +0.017 A 
ENDROOT
BRANCH   7  25
ATOM     25  C   UNL     1      -2.651   3.828  25.458  0.00  0.00    +0.381 C 
ATOM     26  O   UNL     1      -2.484   4.378  24.866  0.00  0.00    -0.244 OA
ATOM     27  OXT UNL     1      -2.523   4.021  26.250  0.00  0.00    -0.244 OA
ENDBRANCH   7  25
BRANCH   5   4
ATOM      4  C   UNL     1      -5.035   2.521  24.896  0.00  0.00    +0.022 C 
BRANCH   4   2
ATOM      1  C   UNL     1      -5.647   2.644  26.182  0.00  0.00    +0.000 C 
ATOM      2  C   UNL     1      -5.421   2.980  25.463  0.00  0.00    +0.002 C 
ATOM      3  C   UNL     1      -5.580   3.775  25.311  0.00  0.00    +0.000 C 
ENDBRANCH   4   2
ENDBRANCH   5   4
BRANCH  11  12
ATOM     12  C   UNL     1      -1.813  -0.297  24.631  0.00  0.00    +0.170 C 
BRANCH  12  13
ATOM     13  C   UNL     1      -1.043  -0.283  24.336  0.00  0.00    +0.144 A 
ATOM     14  N   UNL     1      -0.745   0.249  23.779  0.00  0.00    -0.227 NA
ATOM     15  C   UNL     1       0.046   0.061  23.645  0.00  0.00    +0.119 A 
ATOM     16  C   UNL     1       0.239  -0.586  24.118  0.00  0.00    +0.098 A 
ATOM     17  N   UNL     1      -0.434  -0.799  24.545  0.00  0.00    -0.310 N 
ATOM     18  C   UNL     1      -0.489  -1.420  25.086  0.00  0.00    +0.132 C 
ENDBRANCH  12  13
ENDBRANCH  11  12
TORSDOF 5
ENDMDL
MODEL 5
REMARK VINA RESULT:     -10.9      2.187      4.876
REMARK  Name = 
REMARK  5 active torsions:
REMARK  status: ('A' for Active; 'I' for Inactive)
REMARK    1  A    between atoms: C_2  and  C_4
REMARK    2  A    between atoms: C_4  and  C_5
REMARK    3  A    between atoms: CA_7  and  C_25
REMARK    4  A    between atoms: N_11  and  C_12
REMARK    5  A    between atoms: C_12  and  C_13
REMARK                            x       y       z     vdW  Elec       q    Type
REMARK                         _______ _______ _______ _____ _____    ______ ____
ROOT
ATOM      5  C   UNL     1      -3.867   2.440  24.423  0.00  0.00    +0.096 C 
ATOM      6  N   UNL     1      -4.620   2.439  24.758  0.00  0.00    -0.205 NA
ATOM      7  CA  UNL     1      -5.056   1.799  25.043  0.00  0.00    +0.180 C 
ATOM      8  C   UNL     1      -4.845   1.002  25.063  0.00  0.00    +0.057 C 
ATOM      9  C   UNL     1      -4.147   0.647  24.803  0.00  0.00    -0.002 A 
ATOM     10  C   UNL     1      -4.002  -0.163  24.854  0.00  0.00    +0.072 A 
ATOM     11  N   UNL     1      -3.252  -0.309  24.541  0.00  0.00    -0.319 N 
ATOM     19  C   UNL     1      -2.934   0.412  24.297  0.00  0.00    +0.060 A 
ATOM     20  C   UNL     1      -3.487   1.003  24.459  0.00  0.00    +0.011 A 
ATOM     21  C   UNL     1      -3.363   1.802  24.289  0.00  0.00    -0.005 A 
ATOM     22  C   UNL     1      -2.597   1.983  23.923  0.00  0.00    -0.003 A 
ATOM     23  C   UNL     1      -2.043   1.393  23.761  0.00  0.00    +0.001 A 
ATOM     24  C   UNL     1      -2.213   0.607  23.948  0.00  0.00    +0.017 A 
ENDROOT
BRANCH   7  25
ATOM     25  C   UNL     1      -5.801   1.980  25.348  0.00  0.00    +0.381 C 
ATOM     26  O   UNL     1      -5.891   2.129  26.156  0.00  0.00    -0.244 OA
ATOM     27  OXT UNL     1      -6.455   2.013  24.847  0.00  0.00    -0.244 OA
ENDBRANCH   7  25
BRANCH   5   4
ATOM      4  C   UNL     1      -3.580   3.177  24.190  0.00  0.00    +0.022 C 
BRANCH   4   2
ATOM      1  C   UNL     1      -3.295   3.940  25.365  0.00  0.00    +0.000 C 
ATOM      2  C   UNL     1      -3.715   3.841  24.662  0.00  0.00    +0.002 C 
ATOM      3  C   UNL     1      -4.270   4.405  24.429  0.00  0.00    +0.000 C 
ENDBRANCH   4   2
ENDBRANCH   5   4
BRANCH  11  12
ATOM     12  C   UNL     1      -2.885  -1.045  24.483  0.00  0.00    +0.170 C 
BRANCH  12  13
ATOM     13  C   UNL     1      -3.331  -1.717  24.311  0.00  0.00    +0.144 A 
ATOM     14  N   UNL     1      -4.012  -1.741  23.846  0.00  0.00    -0.227 NA
ATOM     15  C   UNL     1      -4.277  -2.521  23.822  0.00  0.00    +0.119 A 
ATOM     16  C   UNL     1      -3.760  -2.980  24.273  0.00  0.00    +0.098 A 
ATOM     17  N   UNL     1      -3.176  -2.482  24.575  0.00  0.00    -0.310 N 
ATOM     18  C   UNL     1      -2.546  -2.711  25.057  0.00  0.00    +0.132 C 
ENDBRANCH  12  13
ENDBRANCH  11  12
TORSDOF 5
ENDMDL
MODEL 6
REMARK VINA RESULT:     -10.5      1.639      2.389
REMARK  Name = 
REMARK  5 active torsions:
REMARK  status: ('A' for Active; 'I' for Inactive)
REMARK    1  A    between atoms: C_2  and  C_4
REMARK    2  A    between atoms: C_4  and  C_5
REMARK    3  A    between atoms: CA_7  and  C_25
REMARK    4  A    between atoms: N_11  and  C_12
REMARK    5  A    between atoms: C_12  and  C_13
REMARK                            x       y       z     vdW  Elec       q    Type
REMARK                         _______ _______ _______ _____ _____    ______ ____
ROOT
ATOM      5  C   UNL     1      -1.831  -0.349  24.625  0.00  0.00    +0.096 C 
ATOM      6  N   UNL     1      -1.229   0.209  24.707  0.00  0.00    -0.205 NA
ATOM      7  CA  UNL     1      -1.295   1.026  24.804  0.00  0.00    +0.180 C 
ATOM      8  C   UNL     1      -1.979   1.486  24.842  0.00  0.00    +0.057 C 
ATOM      9  C   UNL     1      -2.766   1.243  24.793  0.00  0.00    -0.002 A 
ATOM     10  C   UNL     1      -3.406   1.761  24.839  0.00  0.00    +0.072 A 
ATOM     11  N   UNL     1      -4.099   1.318  24.769  0.00  0.00    -0.319 N 
ATOM     19  C   UNL     1      -3.887   0.526  24.679  0.00  0.00    +0.060 A 
ATOM     20  C   UNL     1      -3.063   0.479  24.694  0.00  0.00    +0.011 A 
ATOM     21  C   UNL     1      -2.646  -0.229  24.619  0.00  0.00    -0.005 A 
ATOM     22  C   UNL     1      -3.140  -0.937  24.522  0.00  0.00    -0.003 A 
ATOM     23  C   UNL     1      -3.964  -0.891  24.507  0.00  0.00    +0.001 A 
ATOM     24  C   UNL     1      -4.337  -0.159  24.585  0.00  0.00    +0.017 A 
ENDROOT
BRANCH   7  25
ATOM     25  C   UNL     1      -0.583   1.437  24.871  0.00  0.00    +0.381 C 
ATOM     26  O   UNL     1      -0.282   1.621  25.618  0.00  0.00    -0.244 OA
ATOM     27  OXT UNL     1      -0.172   1.664  24.193  0.00  0.00    -0.244 OA
ENDBRANCH   7  25
BRANCH   5   4
ATOM      4  C   UNL     1      -1.583  -1.131  24.537  0.00  0.00    +0.022 C 
BRANCH   4   2
ATOM      1  C   UNL     1      -0.745  -1.556  25.615  0.00  0.00    +0.000 C 
ATOM      2  C   UNL     1      -0.842  -1.364  24.818  0.00  0.00    +0.002 C 
ATOM      3  C   UNL     1      -0.200  -1.405  24.302  0.00  0.00    +0.000 C 
ENDBRANCH   4   2
ENDBRANCH   5   4
BRANCH  11  12
ATOM     12  C   UNL     1      -4.868   1.615  24.785  0.00  0.00    +0.170 C 
BRANCH  12  13
ATOM     13  C   UNL     1      -5.008   2.388  25.038  0.00  0.00    +0.144 A 
ATOM     14  N   UNL     1      -4.596   3.060  24.793  0.00  0.00    -0.227 NA
ATOM     15  C   UNL     1      -4.917   3.711  25.183  0.00  0.00    +0.119 A 
ATOM     16  C   UNL     1      -5.527   3.442  25.669  0.00  0.00    +0.098 A 
ATOM     17  N   UNL     1      -5.583   2.624  25.579  0.00  0.00    -0.310 N 
ATOM     18  C   UNL     1      -6.120   2.129  25.964  0.00  0.00    +0.132 C 
ENDBRANCH  12  13
ENDBRANCH  11  12
TORSDOF 5
ENDMDL
MODEL 7
REMARK VINA RESULT:     -10.3      1.529      2.726
REMARK  Name = 
REMARK  5 active torsions:
REMARK  status: ('A' for Active; 'I' for Inactive)
REMARK    1  A    between atoms: C_2  and  C_4
REMARK    2  A    between atoms: C_4  and  C_5
REMARK    3  A    between atoms: CA_7  and  C_25
REMARK    4  A    between atoms: N_11  and  C_12
REMARK    5  A    between atoms: C_12  and  C_13
REMARK                            x       y       z     vdW  Elec       q    Type
REMARK                         _______ _______ _______ _____ _____    ______ ____
ROOT
ATOM      5  C   UNL     1      -1.814  -0.453  25.109  0.00  0.00    +0.096 C 
ATOM      6  N   UNL     1      -2.269  -1.137  25.033  0.00  0.00    -0.205 NA
ATOM      7  CA  UNL     1      -3.076  -1.204  24.877  0.00  0.00    +0.180 C 
ATOM      8  C   UNL     1      -3.628  -0.602  24.758  0.00  0.00    +0.057 C 
ATOM      9  C   UNL     1      -3.509   0.214  24.765  0.00  0.00    -0.002 A 
ATOM     10  C   UNL     1      -4.112   0.763  24.637  0.00  0.00    +0.072 A 
ATOM     11  N   UNL     1      -3.784   1.518  24.687  0.00  0.00    -0.319 N 
ATOM     19  C   UNL     1      -2.979   1.437  24.845  0.00  0.00    +0.060 A 
ATOM     20  C   UNL     1      -2.809   0.631  24.894  0.00  0.00    +0.011 A 
ATOM     21  C   UNL     1      -2.054   0.333  25.047  0.00  0.00    -0.005 A 
ATOM     22  C   UNL     1      -1.438   0.935  25.155  0.00  0.00    -0.003 A 
ATOM     23  C   UNL     1      -1.607   1.741  25.107  0.00  0.00    +0.001 A 
ATOM     24  C   UNL     1      -2.378   1.992  24.952  0.00  0.00    +0.017 A 
ENDROOT
BRANCH   7  25
ATOM     25  C   UNL     1      -3.370  -1.974  24.835  0.00  0.00    +0.381 C 
ATOM     26  O   UNL     1      -3.549  -2.386  25.528  0.00  0.00    -0.244 OA
ATOM     27  OXT UNL     1      -3.486  -2.331  24.101  0.00  0.00    -0.244 OA
ENDBRANCH   7  25
BRANCH   5   4
ATOM      4  C   UNL     1      -1.013  -0.572  25.267  0.00  0.00    +0.022 C 
BRANCH   4   2
ATOM      1  C   UNL     1      -0.392  -1.160  24.122  0.00  0.00    +0.000 C 
ATOM      2  C   UNL     1      -0.612  -1.202  24.916  0.00  0.00    +0.002 C 
ATOM      3  C   UNL     1      -0.430  -1.873  25.360  0.00  0.00    +0.000 C 
ENDBRANCH   4   2
ENDBRANCH   5   4
BRANCH  11  12
ATOM     12  C   UNL     1      -4.190   2.230  24.594  0.00  0.00    +0.170 C 
BRANCH  12  13
ATOM     13  C   UNL     1      -4.909   2.349  24.980  0.00  0.00    +0.144 A 
ATOM     14  N   UNL     1      -5.494   1.780  25.102  0.00  0.00    -0.227 NA
ATOM     15  C   UNL     1      -6.116   2.138  25.509  0.00  0.00    +0.119 A 
ATOM     16  C   UNL     1      -5.915   2.927  25.638  0.00  0.00    +0.098 A 
ATOM     17  N   UNL     1      -5.170   3.058  25.311  0.00  0.00    -0.310 N 
ATOM     18  C   UNL     1      -4.757   3.773  25.316  0.00  0.00    +0.132 C 
ENDBRANCH  12  13
ENDBRANCH  11  12
TORSDOF 5
ENDMDL
