REMARK  Name = 
REMARK  5 active torsions:
REMARK  status: ('A' for Active; 'I' for Inactive)
REMARK    1  A    between atoms: C_2  and  N_4
REMARK    2  A    between atoms: N_7  and  C_8
REMARK    3  A    between atoms: C_8  and  C_9
REMARK    4  A    between atoms: C_12  and  N_13
REMARK    5  A    between atoms: N_13  and  C_14
REMARK                            x       y       z     vdW  Elec       q    Type
REMARK                         _______ _______ _______ _____ _____    ______ ____
ROOT
ATOM      9  C   UNL     1       0.032  -4.663   0.000  0.00  0.00    +0.169 C 
ATOM     10  O   UNL     1       0.118  -3.842   0.000  0.00  0.00    -0.350 OA
ATOM     11  C   UNL     1       0.925  -3.671   0.000  0.00  0.00    +0.162 C 
ATOM     12  C   UNL     1       1.337  -4.386   0.000  0.00  0.00    +0.135 C 
ATOM     20  C   UNL     1       0.785  -4.999   0.000  0.00  0.00    +0.199 C 
ATOM     21  O   UNL     1       0.957  -5.806   0.000  0.00  0.00    -0.219 OA
ENDROOT
BRANCH   9   8
ATOM      8  C   UNL     1      -0.683  -5.075   0.000  0.00  0.00    +0.149 C 
BRANCH   8   7
ATOM      4  N   UNL     1      -2.826  -4.663   0.000  0.00  0.00    -0.189 NA
ATOM      5  C   UNL     1      -2.112  -5.075   0.000  0.00  0.00    +0.339 C 
ATOM      6  O   UNL     1      -2.112  -5.901   0.000  0.00  0.00    -0.249 OA
ATOM      7  N   UNL     1      -1.397  -4.663   0.000  0.00  0.00    -0.185 NA
BRANCH   4   2
ATOM      1  C   UNL     1      -4.255  -4.663   0.000  0.00  0.00    +0.023 C 
ATOM      2  C   UNL     1      -3.541  -5.075   0.000  0.00  0.00    +0.097 C 
ATOM      3  C   UNL     1      -3.541  -5.901   0.000  0.00  0.00    +0.023 C 
ENDBRANCH   4   2
ENDBRANCH   8   7
ENDBRANCH   9   8
BRANCH  12  13
ATOM     13  N   UNL     1       2.158  -4.472   0.000  0.00  0.00    -0.215 NA
BRANCH  13  14
ATOM     14  C   UNL     1       2.643  -3.804   0.000  0.00  0.00    +0.078 C 
ATOM     15  C   UNL     1       2.307  -3.051   0.000  0.00  0.00    +0.050 C 
ATOM     16  C   UNL     1       2.792  -2.383   0.000  0.00  0.00    +0.144 C 
ATOM     17  O   UNL     1       3.612  -2.469   0.000  0.00  0.00    -0.354 OA
ATOM     18  C   UNL     1       3.948  -3.223   0.000  0.00  0.00    +0.144 C 
ATOM     19  C   UNL     1       3.463  -3.890   0.000  0.00  0.00    +0.050 C 
ENDBRANCH  13  14
ENDBRANCH  12  13
TORSDOF 5
