REMARK  Name = 
REMARK  5 active torsions:
REMARK  status: ('A' for Active; 'I' for Inactive)
REMARK    1  A    between atoms: C_2  and  C_5
REMARK    2  A    between atoms: C_5  and  N_6
REMARK    3  A    between atoms: C_10  and  C_11
REMARK    4  A    between atoms: C_13  and  C_16
REMARK    5  A    between atoms: C_19  and  N_22
REMARK                            x       y       z     vdW  Elec       q    Type
REMARK                         _______ _______ _______ _____ _____    ______ ____
ROOT
ATOM     11  C   UNL     1      -2.047  -3.270   0.000  0.00  0.00    +0.251 A 
ATOM     12  N   UNL     1      -2.715  -3.755   0.000  0.00  0.00    -0.190 NA
ATOM     13  C   UNL     1      -3.382  -3.270   0.000  0.00  0.00    +0.205 A 
ATOM     14  N   UNL     1      -3.127  -2.486   0.000  0.00  0.00    -0.056 NA
ATOM     15  O   UNL     1      -2.303  -2.486   0.000  0.00  0.00    -0.336 OA
ENDROOT
BRANCH  13  16
ATOM     16  C   UNL     1      -4.167  -3.525   0.000  0.00  0.00    +0.058 A 
ATOM     17  C   UNL     1      -4.338  -4.332   0.000  0.00  0.00    +0.008 A 
ATOM     18  C   UNL     1      -5.123  -4.587   0.000  0.00  0.00    +0.038 A 
ATOM     19  C   UNL     1      -5.736  -4.035   0.000  0.00  0.00    +0.149 A 
ATOM     20  N   UNL     1      -5.565  -3.228   0.000  0.00  0.00    -0.226 NA
ATOM     21  C   UNL     1      -4.780  -2.973   0.000  0.00  0.00    +0.104 A 
BRANCH  19  22
ATOM     22  N   UNL     1      -6.521  -4.290   0.000  0.00  0.00    -0.271 N 
ATOM     23  C   UNL     1      -6.776  -5.075   0.000  0.00  0.00    +0.104 A 
ATOM     24  C   UNL     1      -7.601  -5.075   0.000  0.00  0.00    +0.120 A 
ATOM     25  N   UNL     1      -7.856  -4.290   0.000  0.00  0.00    -0.222 NA
ATOM     26  C   UNL     1      -7.188  -3.805   0.000  0.00  0.00    +0.184 A 
ENDBRANCH  19  22
ENDBRANCH  13  16
BRANCH  11  10
ATOM      6  N   UNL     1      -0.596  -3.041   0.000  0.00  0.00    -0.266 NA
ATOM      7  C   UNL     1       0.072  -3.525   0.000  0.00  0.00    +0.073 C 
ATOM      8  C   UNL     1      -0.183  -4.310   0.000  0.00  0.00    +0.019 C 
ATOM      9  C   UNL     1      -1.008  -4.310   0.000  0.00  0.00    +0.027 C 
ATOM     10  C   UNL     1      -1.263  -3.525   0.000  0.00  0.00    +0.138 C 
BRANCH   6   5
ATOM      5  C   UNL     1      -0.596  -2.216   0.000  0.00  0.00    +0.072 C 
BRANCH   5   2
ATOM      1  C   UNL     1       0.834  -1.391   0.000  0.00  0.00    +0.001 C 
ATOM      2  C   UNL     1       0.119  -1.803   0.000  0.00  0.00    +0.015 C 
ATOM      3  C   UNL     1      -0.293  -1.089   0.000  0.00  0.00    +0.001 C 
ATOM      4  C   UNL     1       0.531  -2.517   0.000  0.00  0.00    +0.001 C 
ENDBRANCH   5   2
ENDBRANCH   6   5
ENDBRANCH  11  10
TORSDOF 5
