REMARK  Name = 
REMARK  5 active torsions:
REMARK  status: ('A' for Active; 'I' for Inactive)
REMARK    1  A    between atoms: C_2  and  C_27
REMARK    2  A    between atoms: N_3  and  C_4
REMARK    3  A    between atoms: N_12  and  S_14
REMARK    4  A    between atoms: S_14  and  C_17
REMARK    5  A    between atoms: C_30  and  C_33
REMARK                            x       y       z     vdW  Elec       q    Type
REMARK                         _______ _______ _______ _____ _____    ______ ____
ROOT
ATOM      4  C   UNL     1      -1.296  -1.150   0.000  0.00  0.00    +0.130 A 
ATOM      5  C   UNL     1      -1.167  -0.335   0.000  0.00  0.00    +0.023 A 
ATOM      6  C   UNL     1      -0.397  -0.039   0.000  0.00  0.00    +0.014 A 
ATOM      7  C   UNL     1       0.244  -0.558   0.000  0.00  0.00    +0.041 A 
ATOM      8  C   UNL     1       1.163  -0.557   0.000  0.00  0.00    +0.056 C 
ATOM      9  C   UNL     1       1.713  -0.121   0.000  0.00  0.00    +0.011 C 
ATOM     10  C   UNL     1       1.582  -0.925   0.000  0.00  0.00    +0.041 C 
ATOM     11  C   UNL     1       1.629  -1.912   0.000  0.00  0.00    +0.098 C 
ATOM     12  N   UNL     1       0.813  -2.091   0.000  0.00  0.00    -0.155 NA
ATOM     13  C   UNL     1       1.225  -1.510   0.000  0.00  0.00    +0.102 C 
ATOM     23  C   UNL     1       0.622  -0.936   0.000  0.00  0.00    +0.110 C 
ATOM     24  N   UNL     1       0.115  -1.373   0.000  0.00  0.00    -0.298 N 
ATOM     25  C   UNL     1      -0.655  -1.669   0.000  0.00  0.00    +0.276 A 
ATOM     26  O   UNL     1      -0.784  -2.484   0.000  0.00  0.00    -0.266 OA
ENDROOT
BRANCH   4   3
ATOM      1  O   UNL     1      -3.478  -1.222   0.000  0.00  0.00    -0.268 OA
ATOM      2  C   UNL     1      -2.707  -0.926   0.000  0.00  0.00    +0.269 C 
ATOM      3  N   UNL     1      -2.066  -1.445   0.000  0.00  0.00    -0.171 NA
BRANCH   2  27
ATOM     27  C   UNL     1      -2.578  -0.111   0.000  0.00  0.00    +0.055 A 
ATOM     28  C   UNL     1      -3.220   0.408   0.000  0.00  0.00    +0.005 A 
ATOM     29  C   UNL     1      -3.091   1.223   0.000  0.00  0.00    +0.010 A 
ATOM     30  C   UNL     1      -2.321   1.518   0.000  0.00  0.00    +0.068 A 
ATOM     31  C   UNL     1      -1.679   0.999   0.000  0.00  0.00    +0.010 A 
ATOM     32  C   UNL     1      -1.808   0.184   0.000  0.00  0.00    +0.005 A 
BRANCH  30  33
ATOM     33  C   UNL     1      -2.192   2.333   0.000  0.00  0.00    +0.100 C 
ATOM     34  N   UNL     1      -2.063   3.148   0.000  0.00  0.00    -0.191 NA
ENDBRANCH  30  33
ENDBRANCH   2  27
ENDBRANCH   4   3
BRANCH  12  14
ATOM     14  S   UNL     1       0.125  -2.547   0.000  0.00  0.00    +0.063 S 
ATOM     15  O   UNL     1       0.581  -3.235   0.000  0.00  0.00    -0.153 OA
ATOM     16  O   UNL     1      -0.331  -1.859   0.000  0.00  0.00    -0.153 OA
BRANCH  14  17
ATOM     17  C   UNL     1      -0.563  -3.003   0.000  0.00  0.00    +0.122 A 
ATOM     18  C   UNL     1      -0.512  -3.826   0.000  0.00  0.00    +0.020 A 
ATOM     19  C   UNL     1      -1.200  -4.282   0.000  0.00  0.00    +0.001 A 
ATOM     20  C   UNL     1      -1.938  -3.914   0.000  0.00  0.00    +0.000 A 
ATOM     21  C   UNL     1      -1.989  -3.091   0.000  0.00  0.00    +0.001 A 
ATOM     22  C   UNL     1      -1.301  -2.635   0.000  0.00  0.00    +0.020 A 
ENDBRANCH  14  17
ENDBRANCH  12  14
TORSDOF 5
