REMARK  Name = 
REMARK  5 active torsions:
REMARK  status: ('A' for Active; 'I' for Inactive)
REMARK    1  A    between atoms: N_3  and  C_4
REMARK    2  A    between atoms: C_8  and  N_12
REMARK    3  A    between atoms: C_16  and  O_17
REMARK    4  A    between atoms: O_17  and  C_18
REMARK    5  A    between atoms: N_27  and  C_28
REMARK                            x       y       z     vdW  Elec       q    Type
REMARK                         _______ _______ _______ _____ _____    ______ ____
ROOT
ATOM      4  C   UNL     1       7.128   4.570   0.000  0.00  0.00    +0.156 C 
ATOM      5  C   UNL     1       7.680   3.957   0.000  0.00  0.00    +0.166 C 
ATOM      6  O   UNL     1       7.267   3.242   0.000  0.00  0.00    -0.350 OA
ATOM      7  C   UNL     1       6.460   3.413   0.000  0.00  0.00    +0.169 C 
ATOM      8  C   UNL     1       5.706   3.078   0.000  0.00  0.00    +0.170 C 
ATOM      9  C   UNL     1       5.154   3.691   0.000  0.00  0.00    +0.169 C 
ATOM     10  O   UNL     1       5.567   4.405   0.000  0.00  0.00    -0.350 OA
ATOM     11  C   UNL     1       6.374   4.234   0.000  0.00  0.00    +0.167 C 
ENDROOT
BRANCH   8  12
ATOM     12  N   UNL     1       5.535   2.271   0.000  0.00  0.00    -0.180 N 
ATOM     13  N   UNL     1       6.087   1.658   0.000  0.00  0.00    -0.040 NA
ATOM     14  N   UNL     1       5.674   0.943   0.000  0.00  0.00    -0.020 NA
ATOM     15  N   UNL     1       4.867   1.115   0.000  0.00  0.00    -0.071 NA
ATOM     16  C   UNL     1       4.781   1.935   0.000  0.00  0.00    +0.343 A 
BRANCH  16  17
ATOM     17  O   UNL     1       4.067   2.348   0.000  0.00  0.00    -0.421 OA
BRANCH  17  18
ATOM     18  C   UNL     1       3.352   1.935   0.000  0.00  0.00    +0.152 A 
ATOM     19  C   UNL     1       3.352   1.110   0.000  0.00  0.00    +0.041 A 
ATOM     20  C   UNL     1       2.638   0.698   0.000  0.00  0.00    +0.043 A 
ATOM     21  C   UNL     1       1.923   1.110   0.000  0.00  0.00    +0.177 A 
ATOM     22  O   UNL     1       1.139   0.856   0.000  0.00  0.00    -0.435 OA
ATOM     23  C   UNL     1       0.654   1.523   0.000  0.00  0.00    +0.429 C 
ATOM     24  O   UNL     1       1.139   2.190   0.000  0.00  0.00    -0.435 OA
ATOM     25  C   UNL     1       1.923   1.935   0.000  0.00  0.00    +0.179 A 
ATOM     26  C   UNL     1       2.638   2.348   0.000  0.00  0.00    +0.078 A 
ENDBRANCH  17  18
ENDBRANCH  16  17
ENDBRANCH   8  12
BRANCH   4   3
ATOM      1  O   UNL     1       8.697   5.079   0.000  0.00  0.00    -0.249 OA
ATOM      2  C   UNL     1       8.084   5.631   0.000  0.00  0.00    +0.344 C 
ATOM      3  N   UNL     1       7.299   5.377   0.000  0.00  0.00    -0.184 NA
ATOM     27  N   UNL     1       8.255   6.439   0.000  0.00  0.00    -0.161 NA
BRANCH  27  28
ATOM     28  C   UNL     1       9.040   6.693   0.000  0.00  0.00    +0.075 A 
ATOM     29  C   UNL     1       9.211   7.500   0.000  0.00  0.00    +0.017 A 
ATOM     30  C   UNL     1       9.996   7.755   0.000  0.00  0.00    +0.001 A 
ATOM     31  C   UNL     1      10.609   7.203   0.000  0.00  0.00    +0.000 A 
ATOM     32  C   UNL     1      10.438   6.396   0.000  0.00  0.00    +0.001 A 
ATOM     33  C   UNL     1       9.653   6.141   0.000  0.00  0.00    +0.017 A 
ENDBRANCH  27  28
ENDBRANCH   4   3
TORSDOF 5
