REMARK  Name = 
REMARK  6 active torsions:
REMARK  status: ('A' for Active; 'I' for Inactive)
REMARK    1  A    between atoms: O_2  and  C_3
REMARK    2  A    between atoms: C_3  and  C_4
REMARK    3  A    between atoms: N_6  and  C_7
REMARK    4  A    between atoms: C_7  and  C_8
REMARK    5  A    between atoms: C_15  and  C_16
REMARK    6  A    between atoms: C_18  and  C_22
REMARK                            x       y       z     vdW  Elec       q    Type
REMARK                         _______ _______ _______ _____ _____    ______ ____
ROOT
ATOM     16  C   UNL     1      -0.412  -3.744   0.000  0.00  0.00    +0.058 A 
ATOM     17  C   UNL     1      -0.667  -2.960   0.000  0.00  0.00    +0.035 A 
ATOM     18  C   UNL     1       0.000  -2.475   0.000  0.00  0.00    +0.102 A 
ATOM     19  N   UNL     1       0.667  -2.960   0.000  0.00  0.00    -0.170 NA
ATOM     20  N   UNL     1       0.412  -3.744   0.000  0.00  0.00    -0.253 N 
ATOM     21  C   UNL     1       0.897  -4.412   0.000  0.00  0.00    +0.153 C 
ENDROOT
BRANCH  18  22
ATOM     22  C   UNL     1       0.000  -1.650   0.000  0.00  0.00    +0.019 A 
ATOM     23  C   UNL     1       0.715  -1.238   0.000  0.00  0.00    +0.002 A 
ATOM     24  C   UNL     1       0.715  -0.412   0.000  0.00  0.00    +0.000 A 
ATOM     25  C   UNL     1       0.000   0.000   0.000  0.00  0.00    +0.000 A 
ATOM     26  C   UNL     1       0.000   0.825   0.000  0.00  0.00    +0.000 A 
ATOM     27  C   UNL     1       0.715   1.238   0.000  0.00  0.00    +0.000 A 
ATOM     28  C   UNL     1       1.429   0.825   0.000  0.00  0.00    +0.000 A 
ATOM     29  C   UNL     1       1.429   0.000   0.000  0.00  0.00    +0.000 A 
ATOM     30  C   UNL     1      -0.715  -0.412   0.000  0.00  0.00    +0.000 A 
ATOM     31  C   UNL     1      -0.715  -1.238   0.000  0.00  0.00    +0.002 A 
ENDBRANCH  18  22
BRANCH  16  15
ATOM      8  C   UNL     1      -1.838  -6.006   0.000  0.00  0.00    +0.079 C 
ATOM      9  C   UNL     1      -1.062  -5.946   0.000  0.00  0.00    +0.018 C 
ATOM     10  C   UNL     1      -0.644  -5.252   0.000  0.00  0.00    +0.010 C 
ATOM     11  C   UNL     1       0.241  -5.396   0.000  0.00  0.00    +0.018 C 
ATOM     12  C   UNL     1      -0.390  -5.567   0.000  0.00  0.00    +0.072 C 
ATOM     13  N   UNL     1      -1.404  -5.304   0.000  0.00  0.00    -0.272 NA
ATOM     14  C   UNL     1      -1.660  -4.428   0.000  0.00  0.00    +0.078 C 
ATOM     15  C   UNL     1      -0.897  -4.412   0.000  0.00  0.00    +0.056 C 
BRANCH   8   7
ATOM      7  C   UNL     1      -2.542  -6.435   0.000  0.00  0.00    +0.131 C 
BRANCH   7   6
ATOM      4  C   UNL     1      -1.799  -7.656   0.000  0.00  0.00    +0.272 C 
ATOM      5  O   UNL     1      -1.094  -7.226   0.000  0.00  0.00    -0.271 OA
ATOM      6  N   UNL     1      -2.523  -7.260   0.000  0.00  0.00    -0.202 NA
BRANCH   4   3
ATOM      3  C   UNL     1      -1.779  -8.480   0.000  0.00  0.00    +0.229 C 
BRANCH   3   2
ATOM      1  C   UNL     1      -1.036  -9.700   0.000  0.00  0.00    +0.175 C 
ATOM      2  O   UNL     1      -1.055  -8.876   0.000  0.00  0.00    -0.342 OA
ENDBRANCH   3   2
ENDBRANCH   4   3
ENDBRANCH   7   6
ENDBRANCH   8   7
ENDBRANCH  16  15
TORSDOF 6
