REMARK  Name = 
REMARK  9 active torsions:
REMARK  status: ('A' for Active; 'I' for Inactive)
REMARK    1  A    between atoms: C_2  and  C_4
REMARK    2  A    between atoms: C_6  and  C_7
REMARK    3  A    between atoms: C_7  and  C_8
REMARK    4  A    between atoms: C_11  and  C_13
REMARK    5  A    between atoms: C_16  and  N_19
REMARK    6  A    between atoms: C_25  and  C_26
REMARK    7  A    between atoms: C_26  and  N_27
REMARK    8  A    between atoms: N_27  and  C_29
REMARK    9  A    between atoms: C_29  and  C_30
REMARK                            x       y       z     vdW  Elec       q    Type
REMARK                         _______ _______ _______ _____ _____    ______ ____
ROOT
ATOM      4  C   UNL     1       3.800  -0.426   0.000  0.00  0.00    +0.006 C 
ATOM      5  C   UNL     1       3.800   0.399   0.000  0.00  0.00    +0.005 C 
ATOM      6  C   UNL     1       4.515   0.812   0.000  0.00  0.00    +0.027 C 
ATOM     22  C   UNL     1       5.229   0.399   0.000  0.00  0.00    -0.048 C 
ATOM     23  C   UNL     1       5.944   0.812   0.000  0.00  0.00    +0.026 C 
ATOM     24  C   UNL     1       5.229  -0.426   0.000  0.00  0.00    -0.034 C 
ATOM     25  C   UNL     1       4.515  -0.838   0.000  0.00  0.00    +0.037 C 
ENDROOT
BRANCH   4   2
ATOM      1  C   UNL     1       3.086  -1.663   0.000  0.00  0.00    +0.000 C 
ATOM      2  C   UNL     1       3.086  -0.838   0.000  0.00  0.00    +0.000 C 
ATOM      3  C   UNL     1       2.372  -0.426   0.000  0.00  0.00    +0.000 C 
ENDBRANCH   4   2
BRANCH   6   7
ATOM      7  C   UNL     1       4.515   1.637   0.000  0.00  0.00    +0.091 C 
BRANCH   7   8
ATOM      8  C   UNL     1       5.229   2.049   0.000  0.00  0.00    +0.227 A 
ATOM      9  N   UNL     1       5.316   2.870   0.000  0.00  0.00    -0.111 NA
ATOM     10  N   UNL     1       6.123   3.041   0.000  0.00  0.00    -0.107 NA
ATOM     11  C   UNL     1       6.535   2.327   0.000  0.00  0.00    +0.250 A 
ATOM     12  O   UNL     1       5.983   1.714   0.000  0.00  0.00    -0.420 OA
BRANCH  11  13
ATOM     13  C   UNL     1       7.356   2.240   0.000  0.00  0.00    +0.055 A 
ATOM     14  C   UNL     1       7.840   2.908   0.000  0.00  0.00    +0.006 A 
ATOM     15  C   UNL     1       8.661   2.822   0.000  0.00  0.00    +0.015 A 
ATOM     16  C   UNL     1       8.996   2.068   0.000  0.00  0.00    +0.048 A 
ATOM     17  C   UNL     1       8.512   1.401   0.000  0.00  0.00    +0.015 A 
ATOM     18  C   UNL     1       7.691   1.487   0.000  0.00  0.00    +0.006 A 
BRANCH  16  19
ATOM     19  N   UNL     1       9.817   1.982   0.000  0.00  0.00    -0.304 N 
ATOM     20  C   UNL     1      10.153   1.228   0.000  0.00  0.00    +0.112 C 
ATOM     21  C   UNL     1      10.302   2.649   0.000  0.00  0.00    +0.112 C 
ENDBRANCH  16  19
ENDBRANCH  11  13
ENDBRANCH   7   8
ENDBRANCH   6   7
BRANCH  25  26
ATOM     26  C   UNL     1       4.515  -1.663   0.000  0.00  0.00    +0.077 C 
BRANCH  26  27
ATOM     27  N   UNL     1       5.229  -2.076   0.000  0.00  0.00    -0.269 NA
ATOM     28  C   UNL     1       5.229  -2.901   0.000  0.00  0.00    +0.090 C 
BRANCH  27  29
ATOM     29  C   UNL     1       5.944  -1.663   0.000  0.00  0.00    +0.108 C 
BRANCH  29  30
ATOM     30  C   UNL     1       6.658  -2.076   0.000  0.00  0.00    +0.199 C 
ATOM     31  O   UNL     1       6.658  -2.901   0.000  0.00  0.00    -0.219 OA
ENDBRANCH  29  30
ENDBRANCH  27  29
ENDBRANCH  26  27
ENDBRANCH  25  26
TORSDOF 9
