REMARK  Name = 
REMARK  8 active torsions:
REMARK  status: ('A' for Active; 'I' for Inactive)
REMARK    1  A    between atoms: N_2  and  C_3
REMARK    2  A    between atoms: N_2  and  C_25
REMARK    3  A    between atoms: C_3  and  C_4
REMARK    4  A    between atoms: N_6  and  C_9
REMARK    5  A    between atoms: C_13  and  N_17
REMARK    6  A    between atoms: N_17  and  C_18
REMARK    7  A    between atoms: C_18  and  C_19
REMARK    8  A    between atoms: C_25  and  C_26
REMARK                            x       y       z     vdW  Elec       q    Type
REMARK                         _______ _______ _______ _____ _____    ______ ____
ROOT
ATOM      9  C   UNL     1       1.270  -0.922   0.000  0.00  0.00    +0.166 C 
ATOM     10  C   UNL     1       0.785  -0.255   0.000  0.00  0.00    +0.169 C 
ATOM     11  O   UNL     1       1.270   0.412   0.000  0.00  0.00    -0.350 OA
ATOM     12  C   UNL     1       2.054   0.158   0.000  0.00  0.00    +0.163 C 
ATOM     13  C   UNL     1       2.839   0.412   0.000  0.00  0.00    +0.132 C 
ATOM     14  C   UNL     1       3.324  -0.255   0.000  0.00  0.00    +0.162 C 
ATOM     15  O   UNL     1       2.839  -0.922   0.000  0.00  0.00    -0.350 OA
ATOM     16  C   UNL     1       2.054  -0.667   0.000  0.00  0.00    +0.168 C 
ENDROOT
BRANCH   9   6
ATOM      4  C   UNL     1       0.230  -2.787   0.000  0.00  0.00    +0.117 A 
ATOM      5  C   UNL     1       0.230  -1.962   0.000  0.00  0.00    +0.115 A 
ATOM      6  N   UNL     1       1.015  -1.707   0.000  0.00  0.00    -0.227 N 
ATOM      7  N   UNL     1       1.500  -2.374   0.000  0.00  0.00    -0.064 NA
ATOM      8  N   UNL     1       1.015  -3.042   0.000  0.00  0.00    -0.132 NA
BRANCH   4   3
ATOM      3  C   UNL     1      -0.438  -3.272   0.000  0.00  0.00    +0.122 C 
BRANCH   3   2
ATOM      1  C   UNL     1      -1.277  -2.116   0.000  0.00  0.00    +0.090 C 
ATOM      2  N   UNL     1      -1.191  -2.936   0.000  0.00  0.00    -0.263 NA
BRANCH   2  25
ATOM     25  C   UNL     1      -1.859  -3.421   0.000  0.00  0.00    +0.099 C 
BRANCH  25  26
ATOM     26  C   UNL     1      -1.772  -4.242   0.000  0.00  0.00    -0.006 A 
ATOM     27  C   UNL     1      -1.019  -4.577   0.000  0.00  0.00    -0.003 A 
ATOM     28  C   UNL     1      -0.932  -5.398   0.000  0.00  0.00    -0.000 A 
ATOM     29  C   UNL     1      -1.600  -5.883   0.000  0.00  0.00    -0.000 A 
ATOM     30  C   UNL     1      -2.353  -5.547   0.000  0.00  0.00    -0.000 A 
ATOM     31  C   UNL     1      -2.440  -4.727   0.000  0.00  0.00    -0.003 A 
ENDBRANCH  25  26
ENDBRANCH   2  25
ENDBRANCH   3   2
ENDBRANCH   4   3
ENDBRANCH   9   6
BRANCH  13  17
ATOM     17  N   UNL     1       3.094   1.197   0.000  0.00  0.00    -0.214 NA
BRANCH  17  18
ATOM     18  C   UNL     1       3.901   1.369   0.000  0.00  0.00    +0.089 C 
BRANCH  18  19
ATOM     19  C   UNL     1       4.156   2.153   0.000  0.00  0.00    +0.017 C 
ATOM     20  C   UNL     1       3.604   2.766   0.000  0.00  0.00    +0.001 C 
ATOM     21  C   UNL     1       3.858   3.551   0.000  0.00  0.00    +0.000 C 
ATOM     22  C   UNL     1       4.665   3.723   0.000  0.00  0.00    +0.000 C 
ATOM     23  C   UNL     1       5.218   3.109   0.000  0.00  0.00    +0.000 C 
ATOM     24  C   UNL     1       4.963   2.325   0.000  0.00  0.00    +0.001 C 
ENDBRANCH  18  19
ENDBRANCH  17  18
ENDBRANCH  13  17
TORSDOF 8
