REMARK  Name = 
REMARK  7 active torsions:
REMARK  status: ('A' for Active; 'I' for Inactive)
REMARK    1  A    between atoms: O_2  and  C_3
REMARK    2  A    between atoms: C_8  and  C_9
REMARK    3  A    between atoms: C_9  and  N_10
REMARK    4  A    between atoms: N_10  and  C_11
REMARK    5  A    between atoms: C_11  and  C_12
REMARK    6  A    between atoms: C_12  and  C_13
REMARK    7  A    between atoms: C_16  and  C_18
REMARK                            x       y       z     vdW  Elec       q    Type
REMARK                         _______ _______ _______ _____ _____    ______ ____
ROOT
ATOM     11  C   UNL     1       0.732  -3.554   0.000  0.00  0.00    +0.120 C 
ATOM     25  C   UNL     1       1.315  -4.137   0.000  0.00  0.00    +0.161 C 
ATOM     26  O   UNL     1       0.732  -4.721   0.000  0.00  0.00    -0.351 OA
ATOM     27  C   UNL     1       0.148  -4.137   0.000  0.00  0.00    +0.161 C 
ENDROOT
BRANCH  11  10
ATOM     10  N   UNL     1       1.315  -2.970   0.000  0.00  0.00    -0.211 NA
BRANCH  10   9
ATOM      9  C   UNL     1       1.102  -2.174   0.000  0.00  0.00    +0.118 C 
BRANCH   9   8
ATOM      3  C   UNL     1       1.471  -0.793   0.000  0.00  0.00    +0.136 A 
ATOM      4  C   UNL     1       2.055  -0.210   0.000  0.00  0.00    +0.037 A 
ATOM      5  C   UNL     1       2.852  -0.423   0.000  0.00  0.00    +0.003 A 
ATOM      6  C   UNL     1       3.065  -1.220   0.000  0.00  0.00    -0.000 A 
ATOM      7  C   UNL     1       2.482  -1.804   0.000  0.00  0.00    +0.000 A 
ATOM      8  C   UNL     1       1.685  -1.590   0.000  0.00  0.00    +0.029 A 
BRANCH   3   2
ATOM      1  C   UNL     1       0.461   0.217   0.000  0.00  0.00    +0.252 C 
ATOM      2  O   UNL     1       0.674  -0.580   0.000  0.00  0.00    -0.472 OA
ENDBRANCH   3   2
ENDBRANCH   9   8
ENDBRANCH  10   9
ENDBRANCH  11  10
BRANCH  11  12
ATOM     12  C   UNL     1       0.148  -2.970   0.000  0.00  0.00    +0.070 C 
BRANCH  12  13
ATOM     13  C   UNL     1      -0.648  -3.184   0.000  0.00  0.00    +0.102 A 
ATOM     14  N   UNL     1      -0.944  -3.954   0.000  0.00  0.00    -0.081 NA
ATOM     15  O   UNL     1      -1.768  -3.911   0.000  0.00  0.00    -0.354 OA
ATOM     16  C   UNL     1      -1.982  -3.114   0.000  0.00  0.00    +0.177 A 
ATOM     17  C   UNL     1      -1.290  -2.665   0.000  0.00  0.00    +0.058 A 
BRANCH  16  18
ATOM     18  C   UNL     1      -2.752  -2.818   0.000  0.00  0.00    +0.037 A 
ATOM     19  C   UNL     1      -3.393  -3.338   0.000  0.00  0.00    +0.005 A 
ATOM     20  C   UNL     1      -4.163  -3.042   0.000  0.00  0.00    +0.030 A 
ATOM     21  C   UNL     1      -4.292  -2.227   0.000  0.00  0.00    +0.140 A 
ATOM     22  F   UNL     1      -5.062  -1.931   0.000  0.00  0.00    -0.204 F 
ATOM     23  C   UNL     1      -3.651  -1.708   0.000  0.00  0.00    +0.030 A 
ATOM     24  C   UNL     1      -2.881  -2.004   0.000  0.00  0.00    +0.005 A 
ENDBRANCH  16  18
ENDBRANCH  12  13
ENDBRANCH  11  12
TORSDOF 7
