REMARK  Name = 
REMARK  5 active torsions:
REMARK  status: ('A' for Active; 'I' for Inactive)
REMARK    1  A    between atoms: C_4  and  N_19
REMARK    2  A    between atoms: C_6  and  C_7
REMARK    3  A    between atoms: C_9  and  C_12
REMARK    4  A    between atoms: C_20  and  C_22
REMARK    5  A    between atoms: C_22  and  C_23
REMARK                            x       y       z     vdW  Elec       q    Type
REMARK                         _______ _______ _______ _____ _____    ______ ____
ROOT
ATOM      1  C   UNL     1       2.751  -1.712   0.000  0.00  0.00    +0.090 C 
ATOM      2  N   UNL     1       2.751  -2.537   0.000  0.00  0.00    -0.264 NA
ATOM      3  C   UNL     1       3.419  -3.022   0.000  0.00  0.00    +0.094 C 
ATOM      4  C   UNL     1       3.164  -3.806   0.000  0.00  0.00    +0.113 C 
ATOM      5  C   UNL     1       2.339  -3.806   0.000  0.00  0.00    +0.049 C 
ATOM      6  C   UNL     1       2.084  -3.022   0.000  0.00  0.00    +0.139 C 
ENDROOT
BRANCH   6   7
ATOM      7  C   UNL     1       1.299  -2.767   0.000  0.00  0.00    +0.251 A 
ATOM      8  N   UNL     1       0.632  -3.252   0.000  0.00  0.00    -0.190 NA
ATOM      9  C   UNL     1      -0.036  -2.767   0.000  0.00  0.00    +0.203 A 
ATOM     10  N   UNL     1       0.219  -1.982   0.000  0.00  0.00    -0.056 NA
ATOM     11  O   UNL     1       1.044  -1.982   0.000  0.00  0.00    -0.336 OA
BRANCH   9  12
ATOM     12  C   UNL     1      -0.820  -3.022   0.000  0.00  0.00    +0.039 A 
ATOM     13  C   UNL     1      -0.992  -3.829   0.000  0.00  0.00    +0.003 A 
ATOM     14  C   UNL     1      -1.776  -4.083   0.000  0.00  0.00    -0.004 A 
ATOM     15  C   UNL     1      -2.390  -3.531   0.000  0.00  0.00    -0.022 A 
ATOM     16  C   UNL     1      -3.174  -3.786   0.000  0.00  0.00    +0.031 C 
ATOM     17  C   UNL     1      -2.218  -2.724   0.000  0.00  0.00    -0.004 A 
ATOM     18  C   UNL     1      -1.433  -2.470   0.000  0.00  0.00    +0.003 A 
ENDBRANCH   9  12
ENDBRANCH   6   7
BRANCH   4  19
ATOM     19  N   UNL     1       3.649  -4.474   0.000  0.00  0.00    -0.205 NA
ATOM     20  C   UNL     1       3.313  -5.227   0.000  0.00  0.00    +0.246 C 
ATOM     21  O   UNL     1       2.493  -5.314   0.000  0.00  0.00    -0.273 OA
BRANCH  20  22
ATOM     22  C   UNL     1       3.798  -5.895   0.000  0.00  0.00    +0.113 C 
BRANCH  22  23
ATOM     23  C   UNL     1       3.462  -6.648   0.000  0.00  0.00    -0.013 A 
ATOM     24  C   UNL     1       3.947  -7.316   0.000  0.00  0.00    -0.004 A 
ATOM     25  C   UNL     1       3.612  -8.069   0.000  0.00  0.00    -0.000 A 
ATOM     26  C   UNL     1       2.791  -8.156   0.000  0.00  0.00    -0.000 A 
ATOM     27  C   UNL     1       2.306  -7.488   0.000  0.00  0.00    -0.000 A 
ATOM     28  C   UNL     1       2.642  -6.735   0.000  0.00  0.00    -0.004 A 
ENDBRANCH  22  23
ENDBRANCH  20  22
ENDBRANCH   4  19
TORSDOF 5
