REMARK  Name = 
REMARK  5 active torsions:
REMARK  status: ('A' for Active; 'I' for Inactive)
REMARK    1  A    between atoms: C_2  and  C_4
REMARK    2  A    between atoms: C_4  and  C_5
REMARK    3  A    between atoms: C_4  and  N_15
REMARK    4  A    between atoms: C_5  and  C_6
REMARK    5  A    between atoms: C_16  and  C_18
REMARK                            x       y       z     vdW  Elec       q    Type
REMARK                         _______ _______ _______ _____ _____    ______ ____
ROOT
ATOM     15  N   UNL     1      -1.758   0.313   0.000  0.00  0.00    -0.196 NA
ATOM     16  C   UNL     1      -2.564   0.484   0.000  0.00  0.00    +0.261 C 
ATOM     17  O   UNL     1      -2.819   1.269   0.000  0.00  0.00    -0.271 OA
ENDROOT
BRANCH  16  18
ATOM     18  C   UNL     1      -3.116  -0.129   0.000  0.00  0.00    +0.172 C 
ATOM     19  C   UNL     1      -3.923   0.043   0.000  0.00  0.00    +0.118 C 
ATOM     20  N   UNL     1      -4.476  -0.571   0.000  0.00  0.00    -0.214 NA
ATOM     21  C   UNL     1      -4.221  -1.355   0.000  0.00  0.00    +0.110 C 
ATOM     22  C   UNL     1      -3.413  -1.527   0.000  0.00  0.00    +0.114 C 
ATOM     23  N   UNL     1      -2.861  -0.914   0.000  0.00  0.00    -0.255 N 
ATOM     24  C   UNL     1      -2.054  -1.085   0.000  0.00  0.00    +0.308 C 
ATOM     25  O   UNL     1      -1.502  -0.472   0.000  0.00  0.00    -0.252 OA
ATOM     26  N   UNL     1      -1.800  -1.870   0.000  0.00  0.00    -0.259 N 
ATOM     27  C   UNL     1      -0.993  -2.041   0.000  0.00  0.00    +0.127 C 
ATOM     28  C   UNL     1      -0.738  -2.826   0.000  0.00  0.00    +0.164 C 
ATOM     29  O   UNL     1      -1.290  -3.439   0.000  0.00  0.00    -0.350 OA
ATOM     30  C   UNL     1      -2.097  -3.268   0.000  0.00  0.00    +0.164 C 
ATOM     31  C   UNL     1      -2.352  -2.483   0.000  0.00  0.00    +0.127 C 
ENDBRANCH  16  18
BRANCH  15   4
ATOM      4  C   UNL     1      -1.205   0.926   0.000  0.00  0.00    +0.179 C 
BRANCH   4   2
ATOM      1  N   UNL     1      -2.267   1.882   0.000  0.00  0.00    -0.086 NA
ATOM      2  C   UNL     1      -1.460   1.710   0.000  0.00  0.00    +0.281 C 
ATOM      3  O   UNL     1      -0.908   2.323   0.000  0.00  0.00    -0.270 OA
ENDBRANCH   4   2
BRANCH   4   5
ATOM      5  C   UNL     1      -0.398   0.754   0.000  0.00  0.00    +0.059 C 
BRANCH   5   6
ATOM      6  C   UNL     1      -0.143  -0.030   0.000  0.00  0.00    +0.001 A 
ATOM      7  C   UNL     1      -0.628  -0.698   0.000  0.00  0.00    +0.095 A 
ATOM      8  N   UNL     1      -0.143  -1.365   0.000  0.00  0.00    -0.244 NA
ATOM      9  C   UNL     1       0.641  -1.110   0.000  0.00  0.00    +0.081 A 
ATOM     10  C   UNL     1       0.641  -0.285   0.000  0.00  0.00    +0.015 A 
ATOM     11  C   UNL     1       1.356   0.127   0.000  0.00  0.00    +0.001 A 
ATOM     12  C   UNL     1       2.070  -0.285   0.000  0.00  0.00    +0.000 A 
ATOM     13  C   UNL     1       2.070  -1.110   0.000  0.00  0.00    +0.002 A 
ATOM     14  C   UNL     1       1.356  -1.523   0.000  0.00  0.00    +0.019 A 
ENDBRANCH   5   6
ENDBRANCH   4   5
ENDBRANCH  15   4
TORSDOF 5
