REMARK  Name = 
REMARK  7 active torsions:
REMARK  status: ('A' for Active; 'I' for Inactive)
REMARK    1  A    between atoms: C_2  and  C_3
REMARK    2  A    between atoms: C_3  and  C_4
REMARK    3  A    between atoms: C_4  and  C_5
REMARK    4  A    between atoms: C_12  and  N_15
REMARK    5  A    between atoms: N_18  and  C_19
REMARK    6  A    between atoms: N_25  and  C_26
REMARK    7  A    between atoms: C_26  and  C_27
REMARK                            x       y       z     vdW  Elec       q    Type
REMARK                         _______ _______ _______ _____ _____    ______ ____
ROOT
ATOM      5  C   UNL     1       0.000  -1.650   0.000  0.00  0.00    +0.080 C 
ATOM      6  C   UNL     1       0.000  -2.475   0.000  0.00  0.00    +0.131 C 
ATOM      7  N   UNL     1      -0.715  -2.888   0.000  0.00  0.00    -0.203 NA
ATOM      8  C   UNL     1      -1.429  -2.475   0.000  0.00  0.00    +0.256 C 
ATOM      9  O   UNL     1      -2.143  -2.888   0.000  0.00  0.00    -0.272 OA
ATOM     10  C   UNL     1      -1.429  -1.650   0.000  0.00  0.00    +0.138 C 
ATOM     11  C   UNL     1      -2.042  -1.098   0.000  0.00  0.00    +0.049 C 
ATOM     12  C   UNL     1      -1.706  -0.344   0.000  0.00  0.00    +0.115 C 
ATOM     13  C   UNL     1      -0.886  -0.430   0.000  0.00  0.00    +0.094 C 
ATOM     14  N   UNL     1      -0.715  -1.238   0.000  0.00  0.00    -0.265 NA
ENDROOT
BRANCH  12  15
ATOM     15  N   UNL     1      -2.119   0.370   0.000  0.00  0.00    -0.187 NA
ATOM     16  C   UNL     1      -2.944   0.370   0.000  0.00  0.00    +0.343 C 
ATOM     17  O   UNL     1      -3.357  -0.344   0.000  0.00  0.00    -0.249 OA
ATOM     18  N   UNL     1      -3.357   1.085   0.000  0.00  0.00    -0.161 NA
BRANCH  18  19
ATOM     19  C   UNL     1      -4.181   1.085   0.000  0.00  0.00    +0.075 A 
ATOM     20  C   UNL     1      -4.594   0.370   0.000  0.00  0.00    +0.017 A 
ATOM     21  C   UNL     1      -5.419   0.370   0.000  0.00  0.00    +0.001 A 
ATOM     22  C   UNL     1      -5.832   1.085   0.000  0.00  0.00    +0.000 A 
ATOM     23  C   UNL     1      -5.419   1.799   0.000  0.00  0.00    +0.001 A 
ATOM     24  C   UNL     1      -4.594   1.799   0.000  0.00  0.00    +0.017 A 
ENDBRANCH  18  19
ENDBRANCH  12  15
BRANCH   5   4
ATOM      4  C   UNL     1       0.715  -1.238   0.000  0.00  0.00    +0.027 C 
BRANCH   4   3
ATOM      3  C   UNL     1       1.429  -1.650   0.000  0.00  0.00    +0.088 C 
BRANCH   3   2
ATOM      1  O   UNL     1       2.143  -0.412   0.000  0.00  0.00    -0.273 OA
ATOM      2  C   UNL     1       2.143  -1.238   0.000  0.00  0.00    +0.242 C 
ATOM     25  N   UNL     1       2.858  -1.650   0.000  0.00  0.00    -0.201 NA
BRANCH  25  26
ATOM     26  C   UNL     1       3.572  -1.238   0.000  0.00  0.00    +0.141 C 
BRANCH  26  27
ATOM     27  C   UNL     1       4.287  -1.650   0.000  0.00  0.00    -0.001 A 
ATOM     28  C   UNL     1       5.001  -1.238   0.000  0.00  0.00    -0.003 A 
ATOM     29  C   UNL     1       5.716  -1.650   0.000  0.00  0.00    -0.000 A 
ATOM     30  C   UNL     1       5.716  -2.475   0.000  0.00  0.00    -0.000 A 
ATOM     31  C   UNL     1       5.001  -2.888   0.000  0.00  0.00    -0.000 A 
ATOM     32  C   UNL     1       4.287  -2.475   0.000  0.00  0.00    -0.003 A 
ENDBRANCH  26  27
ENDBRANCH  25  26
ENDBRANCH   3   2
ENDBRANCH   4   3
ENDBRANCH   5   4
TORSDOF 7
