REMARK  Name = 
REMARK  7 active torsions:
REMARK  status: ('A' for Active; 'I' for Inactive)
REMARK    1  A    between atoms: S_2  and  N_5
REMARK    2  A    between atoms: C_10  and  C_11
REMARK    3  A    between atoms: N_13  and  C_14
REMARK    4  A    between atoms: C_21  and  C_23
REMARK    5  A    between atoms: C_23  and  S_24
REMARK    6  A    between atoms: S_24  and  C_25
REMARK    7  A    between atoms: C_25  and  C_26
REMARK                            x       y       z     vdW  Elec       q    Type
REMARK                         _______ _______ _______ _____ _____    ______ ____
ROOT
ATOM      5  N   UNL     1      -3.572  -2.888   0.000  0.00  0.00    -0.148 NA
ATOM      6  C   UNL     1      -2.858  -2.475   0.000  0.00  0.00    +0.117 C 
ATOM      7  C   UNL     1      -2.143  -2.888   0.000  0.00  0.00    +0.113 C 
ATOM      8  N   UNL     1      -2.143  -3.712   0.000  0.00  0.00    -0.275 N 
ATOM      9  C   UNL     1      -2.858  -4.125   0.000  0.00  0.00    +0.120 C 
ATOM     10  C   UNL     1      -3.572  -3.712   0.000  0.00  0.00    +0.176 C 
ATOM     21  C   UNL     1      -1.429  -4.125   0.000  0.00  0.00    +0.237 C 
ATOM     22  O   UNL     1      -1.429  -4.950   0.000  0.00  0.00    -0.274 OA
ENDROOT
BRANCH   5   2
ATOM      1  C   UNL     1      -5.001  -2.062   0.000  0.00  0.00    +0.196 C 
ATOM      2  S   UNL     1      -4.287  -2.475   0.000  0.00  0.00    +0.046 S 
ATOM      3  O   UNL     1      -4.699  -3.189   0.000  0.00  0.00    -0.157 OA
ATOM      4  O   UNL     1      -3.874  -1.760   0.000  0.00  0.00    -0.157 OA
ENDBRANCH   5   2
BRANCH  10  11
ATOM     11  C   UNL     1      -4.287  -4.125   0.000  0.00  0.00    +0.260 C 
ATOM     12  O   UNL     1      -4.287  -4.950   0.000  0.00  0.00    -0.272 OA
ATOM     13  N   UNL     1      -5.001  -3.712   0.000  0.00  0.00    -0.197 NA
BRANCH  13  14
ATOM     14  C   UNL     1      -5.716  -4.125   0.000  0.00  0.00    +0.173 C 
ATOM     15  C   UNL     1      -5.716  -4.950   0.000  0.00  0.00    +0.033 C 
ATOM     16  C   UNL     1      -6.430  -5.362   0.000  0.00  0.00    +0.026 C 
ATOM     17  C   UNL     1      -7.145  -4.950   0.000  0.00  0.00    +0.115 C 
ATOM     18  N   UNL     1      -7.145  -4.125   0.000  0.00  0.00    -0.204 NA
ATOM     19  C   UNL     1      -6.430  -3.712   0.000  0.00  0.00    +0.261 C 
ATOM     20  O   UNL     1      -6.430  -2.888   0.000  0.00  0.00    -0.271 OA
ENDBRANCH  13  14
ENDBRANCH  10  11
BRANCH  21  23
ATOM     23  C   UNL     1      -0.715  -3.712   0.000  0.00  0.00    +0.143 C 
BRANCH  23  24
ATOM     24  S   UNL     1       0.000  -4.125   0.000  0.00  0.00    -0.119 S 
BRANCH  24  25
ATOM     25  C   UNL     1       0.715  -3.712   0.000  0.00  0.00    +0.172 C 
BRANCH  25  26
ATOM     26  C   UNL     1       1.429  -4.125   0.000  0.00  0.00    +0.376 C 
ATOM     27  O   UNL     1       2.143  -3.712   0.000  0.00  0.00    -0.245 OA
ATOM     28  O   UNL     1       1.429  -4.950   0.000  0.00  0.00    -0.245 OA
ENDBRANCH  25  26
ENDBRANCH  24  25
ENDBRANCH  23  24
ENDBRANCH  21  23
TORSDOF 7
