REMARK  Name = 
REMARK  3 active torsions:
REMARK  status: ('A' for Active; 'I' for Inactive)
REMARK    1  A    between atoms: C_2  and  N_4
REMARK    2  A    between atoms: C_7  and  C_9
REMARK    3  A    between atoms: C_12  and  C_14
REMARK                            x       y       z     vdW  Elec       q    Type
REMARK                         _______ _______ _______ _____ _____    ______ ____
ROOT
ATOM      9  C   UNL     1       1.127  -4.977   0.000  0.00  0.00    +0.227 A 
ATOM     10  N   UNL     1       1.382  -5.762   0.000  0.00  0.00    -0.111 NA
ATOM     11  N   UNL     1       0.715  -6.247   0.000  0.00  0.00    -0.107 NA
ATOM     12  C   UNL     1       0.047  -5.762   0.000  0.00  0.00    +0.250 A 
ATOM     13  O   UNL     1       0.302  -4.977   0.000  0.00  0.00    -0.419 OA
ENDROOT
BRANCH  12  14
ATOM     14  C   UNL     1      -0.738  -6.017   0.000  0.00  0.00    +0.058 A 
ATOM     15  C   UNL     1      -0.909  -6.824   0.000  0.00  0.00    +0.025 A 
ATOM     16  C   UNL     1      -1.694  -7.079   0.000  0.00  0.00    +0.099 A 
ATOM     17  N   UNL     1      -2.307  -6.527   0.000  0.00  0.00    -0.242 NA
ATOM     18  C   UNL     1      -2.135  -5.720   0.000  0.00  0.00    +0.099 A 
ATOM     19  C   UNL     1      -1.351  -5.465   0.000  0.00  0.00    +0.025 A 
ENDBRANCH  12  14
BRANCH   9   7
ATOM      4  N   UNL     1       2.024  -3.041   0.000  0.00  0.00    -0.274 NA
ATOM      5  C   UNL     1       2.692  -3.525   0.000  0.00  0.00    +0.073 C 
ATOM      6  C   UNL     1       2.437  -4.310   0.000  0.00  0.00    +0.028 C 
ATOM      7  C   UNL     1       1.612  -4.310   0.000  0.00  0.00    +0.096 C 
ATOM      8  C   UNL     1       1.357  -3.525   0.000  0.00  0.00    +0.081 C 
BRANCH   4   2
ATOM      1  C   UNL     1       2.739  -1.803   0.000  0.00  0.00    +0.017 C 
ATOM      2  C   UNL     1       2.024  -2.216   0.000  0.00  0.00    +0.058 C 
ATOM      3  C   UNL     1       1.310  -1.803   0.000  0.00  0.00    +0.017 C 
ENDBRANCH   4   2
ENDBRANCH   9   7
TORSDOF 3
