REMARK  Name = 
REMARK  12 active torsions:
REMARK  status: ('A' for Active; 'I' for Inactive)
REMARK    1  A    between atoms: O_2  and  C_3
REMARK    2  A    between atoms: C_5  and  N_6
REMARK    3  A    between atoms: N_9  and  C_10
REMARK    4  A    between atoms: C_12  and  C_21
REMARK    5  A    between atoms: C_15  and  C_17
REMARK    6  A    between atoms: N_23  and  C_24
REMARK    7  A    between atoms: C_24  and  C_25
REMARK    8  A    between atoms: C_24  and  C_35
REMARK    9  A    between atoms: C_25  and  C_26
REMARK   10  A    between atoms: C_26  and  C_27
REMARK   11  A    between atoms: C_27  and  N_28
REMARK   12  A    between atoms: C_29  and  C_31
REMARK                            x       y       z     vdW  Elec       q    Type
REMARK                         _______ _______ _______ _____ _____    ______ ____
ROOT
ATOM     10  C   UNL     1      -4.726   5.713   0.000  0.00  0.00    +0.119 C 
ATOM     11  C   UNL     1      -4.173   6.326   0.000  0.00  0.00    +0.053 C 
ATOM     12  C   UNL     1      -3.420   5.991   0.000  0.00  0.00    +0.156 C 
ATOM     13  N   UNL     1      -3.506   5.170   0.000  0.00  0.00    -0.268 N 
ATOM     14  C   UNL     1      -4.313   4.999   0.000  0.00  0.00    +0.116 C 
ATOM     15  C   UNL     1      -2.893   4.618   0.000  0.00  0.00    +0.249 C 
ATOM     16  O   UNL     1      -3.064   3.811   0.000  0.00  0.00    -0.270 OA
ENDROOT
BRANCH  10   9
ATOM      6  N   UNL     1      -6.851   5.218   0.000  0.00  0.00    -0.161 NA
ATOM      7  C   UNL     1      -6.031   5.132   0.000  0.00  0.00    +0.343 C 
ATOM      8  O   UNL     1      -5.695   4.378   0.000  0.00  0.00    -0.249 OA
ATOM      9  N   UNL     1      -5.546   5.799   0.000  0.00  0.00    -0.187 NA
BRANCH   6   5
ATOM      3  C   UNL     1      -8.642   3.970   0.000  0.00  0.00    +0.140 A 
ATOM      4  C   UNL     1      -8.157   4.637   0.000  0.00  0.00    +0.054 A 
ATOM      5  C   UNL     1      -7.336   4.551   0.000  0.00  0.00    +0.078 A 
ATOM     38  C   UNL     1      -7.001   3.797   0.000  0.00  0.00    +0.017 A 
ATOM     39  C   UNL     1      -7.486   3.130   0.000  0.00  0.00    +0.004 A 
ATOM     40  C   UNL     1      -8.306   3.216   0.000  0.00  0.00    +0.037 A 
BRANCH   3   2
ATOM      1  C   UNL     1      -9.947   3.388   0.000  0.00  0.00    +0.252 C 
ATOM      2  O   UNL     1      -9.462   4.056   0.000  0.00  0.00    -0.471 OA
ENDBRANCH   3   2
ENDBRANCH   6   5
ENDBRANCH  10   9
BRANCH  15  17
ATOM     17  C   UNL     1      -2.108   4.873   0.000  0.00  0.00    +0.049 C 
ATOM     18  C   UNL     1      -1.495   4.321   0.000  0.00  0.00    -0.039 C 
ATOM     19  C   UNL     1      -1.667   3.514   0.000  0.00  0.00    +0.027 C 
ATOM     20  C   UNL     1      -0.711   4.576   0.000  0.00  0.00    +0.027 C 
ENDBRANCH  15  17
BRANCH  12  21
ATOM     21  C   UNL     1      -2.705   6.403   0.000  0.00  0.00    +0.260 C 
ATOM     22  O   UNL     1      -2.705   7.228   0.000  0.00  0.00    -0.272 OA
ATOM     23  N   UNL     1      -1.991   5.991   0.000  0.00  0.00    -0.196 NA
BRANCH  23  24
ATOM     24  C   UNL     1      -1.276   6.403   0.000  0.00  0.00    +0.174 C 
BRANCH  24  35
ATOM     35  C   UNL     1      -1.276   7.228   0.000  0.00  0.00    +0.281 C 
ATOM     36  N   UNL     1      -0.562   7.641   0.000  0.00  0.00    -0.086 NA
ATOM     37  O   UNL     1      -1.991   7.641   0.000  0.00  0.00    -0.270 OA
ENDBRANCH  24  35
BRANCH  24  25
ATOM     25  C   UNL     1      -0.562   5.991   0.000  0.00  0.00    +0.033 C 
BRANCH  25  26
ATOM     26  C   UNL     1       0.153   6.403   0.000  0.00  0.00    +0.026 C 
BRANCH  26  27
ATOM     27  C   UNL     1       0.867   5.991   0.000  0.00  0.00    +0.116 C 
BRANCH  27  28
ATOM     28  N   UNL     1       1.581   6.403   0.000  0.00  0.00    -0.202 NA
ATOM     29  C   UNL     1       2.296   5.991   0.000  0.00  0.00    +0.264 C 
ATOM     30  O   UNL     1       2.296   5.166   0.000  0.00  0.00    -0.268 OA
BRANCH  29  31
ATOM     31  C   UNL     1       3.010   6.403   0.000  0.00  0.00    +0.051 C 
ATOM     32  C   UNL     1       3.725   5.991   0.000  0.00  0.00    -0.039 C 
ATOM     33  C   UNL     1       4.439   6.403   0.000  0.00  0.00    +0.027 C 
ATOM     34  C   UNL     1       3.725   5.166   0.000  0.00  0.00    +0.027 C 
ENDBRANCH  29  31
ENDBRANCH  27  28
ENDBRANCH  26  27
ENDBRANCH  25  26
ENDBRANCH  24  25
ENDBRANCH  23  24
ENDBRANCH  12  21
TORSDOF 12
