REMARK  Name = 
REMARK  5 active torsions:
REMARK  status: ('A' for Active; 'I' for Inactive)
REMARK    1  A    between atoms: C_2  and  C_3
REMARK    2  A    between atoms: C_6  and  C_7
REMARK    3  A    between atoms: C_7  and  N_8
REMARK    4  A    between atoms: C_13  and  C_14
REMARK    5  A    between atoms: C_16  and  C_19
REMARK                            x       y       z     vdW  Elec       q    Type
REMARK                         _______ _______ _______ _____ _____    ______ ____
ROOT
ATOM      8  N   UNL     1       2.070   1.110   0.000  0.00  0.00    -0.254 NA
ATOM      9  C   UNL     1       1.356   0.698   0.000  0.00  0.00    +0.121 C 
ATOM     10  C   UNL     1       0.641   1.110   0.000  0.00  0.00    +0.090 A 
ATOM     11  C   UNL     1       0.641   1.935   0.000  0.00  0.00    +0.077 A 
ATOM     12  C   UNL     1       1.356   2.348   0.000  0.00  0.00    +0.073 C 
ATOM     13  C   UNL     1       2.070   1.935   0.000  0.00  0.00    +0.144 C 
ATOM     27  N   UNL     1      -0.143   2.190   0.000  0.00  0.00    -0.227 NA
ATOM     28  C   UNL     1      -0.628   1.523   0.000  0.00  0.00    +0.198 A 
ATOM     29  N   UNL     1      -0.143   0.856   0.000  0.00  0.00    -0.226 NA
ENDROOT
BRANCH  13  14
ATOM     14  C   UNL     1       2.784   2.348   0.000  0.00  0.00    +0.251 A 
ATOM     15  N   UNL     1       2.871   3.168   0.000  0.00  0.00    -0.190 NA
ATOM     16  C   UNL     1       3.678   3.340   0.000  0.00  0.00    +0.203 A 
ATOM     17  N   UNL     1       4.090   2.626   0.000  0.00  0.00    -0.056 NA
ATOM     18  O   UNL     1       3.538   2.012   0.000  0.00  0.00    -0.336 OA
BRANCH  16  19
ATOM     19  C   UNL     1       4.013   4.094   0.000  0.00  0.00    +0.040 A 
ATOM     20  C   UNL     1       3.528   4.761   0.000  0.00  0.00    +0.006 A 
ATOM     21  C   UNL     1       3.864   5.515   0.000  0.00  0.00    +0.031 A 
ATOM     22  C   UNL     1       4.684   5.601   0.000  0.00  0.00    +0.151 A 
ATOM     23  F   UNL     1       5.020   6.355   0.000  0.00  0.00    -0.203 F 
ATOM     24  C   UNL     1       5.169   4.934   0.000  0.00  0.00    +0.085 A 
ATOM     25 CL   UNL     1       5.990   5.020   0.000  0.00  0.00    -0.080 Cl
ATOM     26  C   UNL     1       4.834   4.180   0.000  0.00  0.00    +0.017 A 
ENDBRANCH  16  19
ENDBRANCH  13  14
BRANCH   8   7
ATOM      7  C   UNL     1       2.784   0.698   0.000  0.00  0.00    +0.138 C 
BRANCH   7   6
ATOM      3  C   UNL     1       3.197  -1.397   0.000  0.00  0.00    +0.156 A 
ATOM      4  C   UNL     1       2.372  -1.397   0.000  0.00  0.00    +0.038 A 
ATOM      5  C   UNL     1       2.117  -0.612   0.000  0.00  0.00    +0.037 A 
ATOM      6  C   UNL     1       2.784  -0.127   0.000  0.00  0.00    +0.139 A 
ATOM     30  O   UNL     1       3.452  -0.612   0.000  0.00  0.00    -0.458 OA
BRANCH   3   2
ATOM      1  O   UNL     1       3.346  -2.818   0.000  0.00  0.00    -0.212 OA
ATOM      2  C   UNL     1       3.682  -2.064   0.000  0.00  0.00    +0.246 C 
ENDBRANCH   3   2
ENDBRANCH   7   6
ENDBRANCH   8   7
TORSDOF 5
