REMARK  Name = 
REMARK  8 active torsions:
REMARK  status: ('A' for Active; 'I' for Inactive)
REMARK    1  A    between atoms: C_2  and  C_4
REMARK    2  A    between atoms: C_4  and  C_5
REMARK    3  A    between atoms: C_5  and  N_6
REMARK    4  A    between atoms: C_5  and  C_31
REMARK    5  A    between atoms: C_7  and  C_9
REMARK    6  A    between atoms: C_16  and  N_18
REMARK    7  A    between atoms: N_21  and  C_22
REMARK    8  A    between atoms: C_25  and  C_28
REMARK                            x       y       z     vdW  Elec       q    Type
REMARK                         _______ _______ _______ _____ _____    ______ ____
ROOT
ATOM      9  C   UNL     1       0.402  -6.747   0.000  0.00  0.00    +0.200 C 
ATOM     10  O   UNL     1      -0.128  -7.378   0.000  0.00  0.00    -0.216 OA
ATOM     11  C   UNL     1       0.684  -5.971   0.000  0.00  0.00    +0.075 C 
ATOM     12  C   UNL     1       1.497  -5.828   0.000  0.00  0.00    +0.187 C 
ATOM     13  O   UNL     1       1.779  -5.053   0.000  0.00  0.00    -0.220 OA
ATOM     14  C   UNL     1       2.027  -6.460   0.000  0.00  0.00    +0.202 C 
ATOM     15  O   UNL     1       2.840  -6.317   0.000  0.00  0.00    -0.219 OA
ATOM     16  C   UNL     1       1.745  -7.235   0.000  0.00  0.00    +0.133 C 
ATOM     17  C   UNL     1       0.933  -7.378   0.000  0.00  0.00    +0.064 C 
ENDROOT
BRANCH  16  18
ATOM     18  N   UNL     1       2.275  -7.867   0.000  0.00  0.00    -0.186 NA
ATOM     19  C   UNL     1       1.993  -8.642   0.000  0.00  0.00    +0.344 C 
ATOM     20  O   UNL     1       1.181  -8.786   0.000  0.00  0.00    -0.249 OA
ATOM     21  N   UNL     1       2.524  -9.274   0.000  0.00  0.00    -0.161 NA
BRANCH  21  22
ATOM     22  C   UNL     1       3.336  -9.131   0.000  0.00  0.00    +0.075 A 
ATOM     23  C   UNL     1       3.618  -8.356   0.000  0.00  0.00    +0.017 A 
ATOM     24  C   UNL     1       4.431  -8.213   0.000  0.00  0.00    +0.004 A 
ATOM     25  C   UNL     1       4.961  -8.845   0.000  0.00  0.00    +0.035 A 
ATOM     26  C   UNL     1       4.679  -9.620   0.000  0.00  0.00    +0.004 A 
ATOM     27  C   UNL     1       3.866  -9.763   0.000  0.00  0.00    +0.017 A 
BRANCH  25  28
ATOM     28  C   UNL     1       5.773  -8.701   0.000  0.00  0.00    +0.173 C 
ATOM     29  C   UNL     1       6.056  -7.926   0.000  0.00  0.00    +0.077 C 
ATOM     30  O   UNL     1       6.304  -9.333   0.000  0.00  0.00    -0.291 OA
ENDBRANCH  25  28
ENDBRANCH  21  22
ENDBRANCH  16  18
BRANCH   9   7
ATOM      6  N   UNL     1      -1.027  -6.747   0.000  0.00  0.00    -0.196 NA
ATOM      7  C   UNL     1      -0.312  -6.334   0.000  0.00  0.00    +0.269 C 
ATOM      8  O   UNL     1      -0.312  -5.509   0.000  0.00  0.00    -0.271 OA
BRANCH   6   5
ATOM      5  C   UNL     1      -1.741  -6.334   0.000  0.00  0.00    +0.174 C 
BRANCH   5  31
ATOM     31  C   UNL     1      -1.741  -5.509   0.000  0.00  0.00    +0.281 C 
ATOM     32  N   UNL     1      -1.027  -5.096   0.000  0.00  0.00    -0.086 NA
ATOM     33  O   UNL     1      -2.455  -5.096   0.000  0.00  0.00    -0.270 OA
ENDBRANCH   5  31
BRANCH   5   4
ATOM      4  C   UNL     1      -2.455  -6.747   0.000  0.00  0.00    +0.031 C 
BRANCH   4   2
ATOM      1  C   UNL     1      -3.884  -6.747   0.000  0.00  0.00    +0.000 C 
ATOM      2  C   UNL     1      -3.170  -6.334   0.000  0.00  0.00    +0.002 C 
ATOM      3  C   UNL     1      -3.170  -5.509   0.000  0.00  0.00    +0.000 C 
ENDBRANCH   4   2
ENDBRANCH   5   4
ENDBRANCH   6   5
ENDBRANCH   9   7
TORSDOF 8
