REMARK  Name = 
REMARK  4 active torsions:
REMARK  status: ('A' for Active; 'I' for Inactive)
REMARK    1  A    between atoms: C_2  and  C_5
REMARK    2  A    between atoms: N_7  and  C_8
REMARK    3  A    between atoms: C_8  and  C_9
REMARK    4  A    between atoms: C_16  and  C_17
REMARK                            x       y       z     vdW  Elec       q    Type
REMARK                         _______ _______ _______ _____ _____    ______ ____
ROOT
ATOM      9  C   UNL     1       1.814  -2.106   0.000  0.00  0.00    +0.082 C 
ATOM     10  C   UNL     1       1.661  -1.343   0.000  0.00  0.00    +0.019 C 
ATOM     11  C   UNL     1       0.923  -1.010   0.000  0.00  0.00    +0.013 C 
ATOM     12  C   UNL     1       0.961  -0.114   0.000  0.00  0.00    +0.018 C 
ATOM     13  C   UNL     1       1.205  -0.720   0.000  0.00  0.00    +0.072 C 
ATOM     14  N   UNL     1       1.065  -1.759   0.000  0.00  0.00    -0.272 NA
ATOM     15  C   UNL     1       0.226  -2.118   0.000  0.00  0.00    +0.081 C 
ATOM     16  C   UNL     1       0.119  -1.362   0.000  0.00  0.00    +0.093 C 
ENDROOT
BRANCH  16  17
ATOM     17  C   UNL     1      -0.602  -0.960   0.000  0.00  0.00    +0.227 C 
ATOM     18  O   UNL     1      -1.310  -1.384   0.000  0.00  0.00    -0.275 OA
ATOM     19  N   UNL     1      -0.614  -0.136   0.000  0.00  0.00    -0.274 N 
ATOM     20  C   UNL     1      -1.335   0.266   0.000  0.00  0.00    +0.125 C 
ATOM     21  C   UNL     1      -1.347   1.091   0.000  0.00  0.00    +0.164 C 
ATOM     22  O   UNL     1      -0.639   1.514   0.000  0.00  0.00    -0.350 OA
ATOM     23  C   UNL     1       0.082   1.113   0.000  0.00  0.00    +0.164 C 
ATOM     24  C   UNL     1       0.094   0.288   0.000  0.00  0.00    +0.125 C 
ENDBRANCH  16  17
BRANCH   9   8
ATOM      8  C   UNL     1       2.324  -2.754   0.000  0.00  0.00    +0.145 C 
BRANCH   8   7
ATOM      5  C   UNL     1       1.164  -4.546   0.000  0.00  0.00    +0.100 A 
ATOM      6  C   UNL     1       1.219  -3.722   0.000  0.00  0.00    +0.113 A 
ATOM      7  N   UNL     1       2.018  -3.520   0.000  0.00  0.00    -0.229 N 
ATOM     25  N   UNL     1       2.458  -4.218   0.000  0.00  0.00    -0.064 NA
ATOM     26  N   UNL     1       1.930  -4.852   0.000  0.00  0.00    -0.133 NA
BRANCH   5   2
ATOM      1  C   UNL     1      -0.232  -5.425   0.000  0.00  0.00    +0.006 C 
ATOM      2  C   UNL     1       0.466  -4.986   0.000  0.00  0.00    +0.039 C 
ATOM      3  C   UNL     1       0.906  -5.684   0.000  0.00  0.00    +0.006 C 
ATOM      4  C   UNL     1       0.026  -4.288   0.000  0.00  0.00    +0.006 C 
ENDBRANCH   5   2
ENDBRANCH   8   7
ENDBRANCH   9   8
TORSDOF 4
