REMARK  Name = 
REMARK  11 active torsions:
REMARK  status: ('A' for Active; 'I' for Inactive)
REMARK    1  A    between atoms: C_2  and  C_3
REMARK    2  A    between atoms: C_3  and  C_4
REMARK    3  A    between atoms: C_4  and  C_5
REMARK    4  A    between atoms: C_5  and  C_6
REMARK    5  A    between atoms: C_15  and  C_17
REMARK    6  A    between atoms: C_25  and  C_26
REMARK    7  A    between atoms: C_26  and  C_27
REMARK    8  A    between atoms: N_29  and  CA_30
REMARK    9  A    between atoms: CA_30  and  C_31
REMARK   10  A    between atoms: CA_30  and  CB_33
REMARK   11  A    between atoms: CB_33  and  CG_34
REMARK                            x       y       z     vdW  Elec       q    Type
REMARK                         _______ _______ _______ _____ _____    ______ ____
ROOT
ATOM      6  C   UNK A   0      -1.078   3.602   0.000  0.00  0.00    +0.247 C 
ATOM      7  O   UNK A   0      -0.666   4.316   0.000  0.00  0.00    -0.273 OA
ATOM      8  N   UNK A   0      -0.666   2.888   0.000  0.00  0.00    -0.154 NA
ATOM      9  C   UNK A   0       0.159   2.888   0.000  0.00  0.00    +0.185 A 
ATOM     10  N   UNK A   0       0.644   2.220   0.000  0.00  0.00    -0.227 NA
ATOM     11  C   UNK A   0       1.429   2.475   0.000  0.00  0.00    +0.063 A 
ATOM     12  C   UNK A   0       1.429   3.300   0.000  0.00  0.00    +0.023 A 
ATOM     13  C   UNK A   0       2.143   3.712   0.000  0.00  0.00    +0.034 C 
ATOM     14  C   UNK A   0       2.858   3.300   0.000  0.00  0.00    +0.010 C 
ATOM     15  C   UNK A   0       3.572   3.712   0.000  0.00  0.00    +0.059 C 
ATOM     16  C   UNK A   0       3.042   4.345   0.000  0.00  0.00    +0.005 C 
ATOM     19  C   UNK A   0       4.287   3.300   0.000  0.00  0.00    +0.154 C 
ATOM     20  O   UNK A   0       5.001   3.712   0.000  0.00  0.00    -0.223 OA
ATOM     21  C   UNK A   0       4.287   2.475   0.000  0.00  0.00    +0.033 C 
ATOM     22  C   UNK A   0       3.572   2.062   0.000  0.00  0.00    +0.003 C 
ATOM     23  C   UNK A   0       2.858   2.475   0.000  0.00  0.00    +0.006 C 
ATOM     24  C   UNK A   0       2.858   1.650   0.000  0.00  0.00    +0.000 C 
ATOM     25  C   UNK A   0       2.143   2.062   0.000  0.00  0.00    +0.050 C 
ATOM     37  S   UNK A   0       0.644   3.555   0.000  0.00  0.00    -0.054 S 
ENDROOT
BRANCH  15  17
ATOM     17  C   UNK A   0       4.103   4.345   0.000  0.00  0.00    +0.184 C 
ATOM     18  O   UNK A   0       4.915   4.201   0.000  0.00  0.00    -0.220 OA
ENDBRANCH  15  17
BRANCH   6   5
ATOM      5  C   UNK A   0      -1.903   3.602   0.000  0.00  0.00    +0.087 C 
BRANCH   5   4
ATOM      4  C   UNK A   0      -2.316   4.316   0.000  0.00  0.00    +0.010 C 
BRANCH   4   3
ATOM      3  C   UNK A   0      -3.141   4.316   0.000  0.00  0.00    +0.001 C 
BRANCH   3   2
ATOM      1  C   UNK A   0      -4.378   5.031   0.000  0.00  0.00    +0.000 C 
ATOM      2  C   UNK A   0      -3.553   5.031   0.000  0.00  0.00    +0.000 C 
ENDBRANCH   3   2
ENDBRANCH   4   3
ENDBRANCH   5   4
ENDBRANCH   6   5
BRANCH  25  26
ATOM     26  C   UNK A   0       2.143   1.238   0.000  0.00  0.00    +0.093 C 
BRANCH  26  27
ATOM     27  C   UNK A   0       2.858   0.825   0.000  0.00  0.00    +0.242 C 
ATOM     28  O   UNK A   0       2.858   0.000   0.000  0.00  0.00    -0.273 OA
ATOM     29  N   LEU A   1       3.572   1.238   0.000  0.00  0.00    -0.204 NA
BRANCH  29  30
ATOM     30  CA  LEU A   1       4.287   0.825   0.000  0.00  0.00    +0.128 C 
BRANCH  30  31
ATOM     31  C   LEU A   1       4.287   0.000   0.000  0.00  0.00    +0.204 C 
ATOM     32  O   LEU A   1       5.001  -0.412   0.000  0.00  0.00    -0.219 OA
ENDBRANCH  30  31
BRANCH  30  33
ATOM     33  CB  LEU A   1       5.001   1.238   0.000  0.00  0.00    +0.024 C 
BRANCH  33  34
ATOM     34  CG  LEU A   1       5.716   0.825   0.000  0.00  0.00    +0.002 C 
ATOM     35  CD1 LEU A   1       6.430   1.238   0.000  0.00  0.00    +0.000 C 
ATOM     36  CD2 LEU A   1       5.716   0.000   0.000  0.00  0.00    +0.000 C 
ENDBRANCH  33  34
ENDBRANCH  30  33
ENDBRANCH  29  30
ENDBRANCH  26  27
ENDBRANCH  25  26
TORSDOF 11
