REMARK  Name = 
REMARK  8 active torsions:
REMARK  status: ('A' for Active; 'I' for Inactive)
REMARK    1  A    between atoms: N_2  and  C_4
REMARK    2  A    between atoms: C_4  and  C_5
REMARK    3  A    between atoms: C_5  and  N_6
REMARK    4  A    between atoms: N_6  and  C_8
REMARK    5  A    between atoms: C_11  and  C_12
REMARK    6  A    between atoms: C_15  and  C_16
REMARK    7  A    between atoms: C_16  and  N_17
REMARK    8  A    between atoms: N_20  and  C_21
REMARK                            x       y       z     vdW  Elec       q    Type
REMARK                         _______ _______ _______ _____ _____    ______ ____
ROOT
ATOM      8  C   UNL     1      -0.754  -2.811   0.000  0.00  0.00    +0.120 C 
ATOM      9  C   UNL     1      -1.306  -2.197   0.000  0.00  0.00    +0.198 C 
ATOM     10  O   UNL     1      -2.126  -2.284   0.000  0.00  0.00    -0.219 OA
ATOM     11  C   UNL     1      -0.893  -1.483   0.000  0.00  0.00    +0.180 C 
ATOM     14  O   UNL     1      -0.086  -1.655   0.000  0.00  0.00    -0.350 OA
ATOM     15  C   UNL     1       0.000  -2.475   0.000  0.00  0.00    +0.154 C 
ENDROOT
BRANCH   8   6
ATOM      6  N   UNL     1      -0.925  -3.618   0.000  0.00  0.00    -0.267 NA
ATOM      7  C   UNL     1      -0.312  -4.170   0.000  0.00  0.00    +0.090 C 
BRANCH   6   5
ATOM      5  C   UNL     1      -1.710  -3.873   0.000  0.00  0.00    +0.090 C 
BRANCH   5   4
ATOM      4  C   UNL     1      -1.881  -4.679   0.000  0.00  0.00    +0.090 C 
BRANCH   4   2
ATOM      1  C   UNL     1      -2.837  -5.741   0.000  0.00  0.00    +0.090 C 
ATOM      2  N   UNL     1      -2.666  -4.934   0.000  0.00  0.00    -0.269 NA
ATOM      3  C   UNL     1      -3.279  -4.382   0.000  0.00  0.00    +0.090 C 
ENDBRANCH   4   2
ENDBRANCH   5   4
ENDBRANCH   6   5
ENDBRANCH   8   6
BRANCH  11  12
ATOM     12  C   UNL     1      -1.229  -0.729   0.000  0.00  0.00    +0.214 C 
ATOM     13  O   UNL     1      -0.744  -0.062   0.000  0.00  0.00    -0.218 OA
ENDBRANCH  11  12
BRANCH  15  16
ATOM     16  C   UNL     1       0.715  -2.888   0.000  0.00  0.00    +0.148 C 
BRANCH  16  17
ATOM     17  N   UNL     1       1.429  -2.475   0.000  0.00  0.00    -0.184 NA
ATOM     18  C   UNL     1       2.143  -2.888   0.000  0.00  0.00    +0.344 C 
ATOM     19  O   UNL     1       2.143  -3.712   0.000  0.00  0.00    -0.249 OA
ATOM     20  N   UNL     1       2.858  -2.475   0.000  0.00  0.00    -0.161 NA
BRANCH  20  21
ATOM     21  C   UNL     1       3.572  -2.888   0.000  0.00  0.00    +0.076 A 
ATOM     22  C   UNL     1       4.287  -2.475   0.000  0.00  0.00    +0.028 A 
ATOM     23  C   UNL     1       5.001  -2.888   0.000  0.00  0.00    +0.059 A 
ATOM     24 CL   UNL     1       5.716  -2.475   0.000  0.00  0.00    -0.082 Cl
ATOM     25  C   UNL     1       5.001  -3.712   0.000  0.00  0.00    +0.011 A 
ATOM     26  C   UNL     1       4.287  -4.125   0.000  0.00  0.00    +0.002 A 
ATOM     27  C   UNL     1       3.572  -3.712   0.000  0.00  0.00    +0.017 A 
ENDBRANCH  20  21
ENDBRANCH  16  17
ENDBRANCH  15  16
TORSDOF 8
