REMARK  Name = 
REMARK  7 active torsions:
REMARK  status: ('A' for Active; 'I' for Inactive)
REMARK    1  A    between atoms: C_2  and  C_4
REMARK    2  A    between atoms: C_6  and  C_7
REMARK    3  A    between atoms: C_7  and  C_8
REMARK    4  A    between atoms: C_11  and  C_13
REMARK    5  A    between atoms: C_22  and  C_23
REMARK    6  A    between atoms: C_23  and  N_24
REMARK    7  A    between atoms: N_27  and  C_28
REMARK                            x       y       z     vdW  Elec       q    Type
REMARK                         _______ _______ _______ _____ _____    ______ ____
ROOT
ATOM      4  C   UNL     1       5.609  -5.012   0.000  0.00  0.00    +0.006 C 
ATOM      5  C   UNL     1       4.895  -5.424   0.000  0.00  0.00    +0.005 C 
ATOM      6  C   UNL     1       4.180  -5.012   0.000  0.00  0.00    +0.027 C 
ATOM     19  C   UNL     1       4.180  -4.187   0.000  0.00  0.00    -0.048 C 
ATOM     20  C   UNL     1       3.466  -3.774   0.000  0.00  0.00    +0.026 C 
ATOM     21  C   UNL     1       4.895  -3.774   0.000  0.00  0.00    -0.033 C 
ATOM     22  C   UNL     1       5.609  -4.187   0.000  0.00  0.00    +0.043 C 
ENDROOT
BRANCH   4   2
ATOM      1  C   UNL     1       7.038  -5.012   0.000  0.00  0.00    +0.000 C 
ATOM      2  C   UNL     1       6.324  -5.424   0.000  0.00  0.00    +0.000 C 
ATOM      3  C   UNL     1       6.324  -6.249   0.000  0.00  0.00    +0.000 C 
ENDBRANCH   4   2
BRANCH   6   7
ATOM      7  C   UNL     1       3.466  -5.424   0.000  0.00  0.00    +0.091 C 
BRANCH   7   8
ATOM      8  C   UNL     1       3.466  -6.249   0.000  0.00  0.00    +0.227 A 
ATOM      9  N   UNL     1       4.133  -6.734   0.000  0.00  0.00    -0.111 NA
ATOM     10  N   UNL     1       3.878  -7.519   0.000  0.00  0.00    -0.107 NA
ATOM     11  C   UNL     1       3.053  -7.519   0.000  0.00  0.00    +0.250 A 
ATOM     12  O   UNL     1       2.798  -6.734   0.000  0.00  0.00    -0.420 OA
BRANCH  11  13
ATOM     13  C   UNL     1       2.568  -8.186   0.000  0.00  0.00    +0.058 A 
ATOM     14  C   UNL     1       2.904  -8.940   0.000  0.00  0.00    +0.025 A 
ATOM     15  C   UNL     1       2.419  -9.607   0.000  0.00  0.00    +0.099 A 
ATOM     16  N   UNL     1       1.598  -9.521   0.000  0.00  0.00    -0.242 NA
ATOM     17  C   UNL     1       1.263  -8.767   0.000  0.00  0.00    +0.099 A 
ATOM     18  C   UNL     1       1.748  -8.100   0.000  0.00  0.00    +0.025 A 
ENDBRANCH  11  13
ENDBRANCH   7   8
ENDBRANCH   6   7
BRANCH  22  23
ATOM     23  C   UNL     1       6.324  -3.774   0.000  0.00  0.00    +0.121 C 
BRANCH  23  24
ATOM     24  N   UNL     1       6.324  -2.949   0.000  0.00  0.00    -0.187 NA
ATOM     25  C   UNL     1       7.038  -2.537   0.000  0.00  0.00    +0.344 C 
ATOM     26  O   UNL     1       7.753  -2.949   0.000  0.00  0.00    -0.249 OA
ATOM     27  N   UNL     1       7.038  -1.712   0.000  0.00  0.00    -0.161 NA
BRANCH  27  28
ATOM     28  C   UNL     1       7.753  -1.299   0.000  0.00  0.00    +0.075 A 
ATOM     29  C   UNL     1       7.753  -0.474   0.000  0.00  0.00    +0.017 A 
ATOM     30  C   UNL     1       8.467  -0.062   0.000  0.00  0.00    +0.001 A 
ATOM     31  C   UNL     1       9.181  -0.474   0.000  0.00  0.00    +0.000 A 
ATOM     32  C   UNL     1       9.181  -1.299   0.000  0.00  0.00    +0.001 A 
ATOM     33  C   UNL     1       8.467  -1.712   0.000  0.00  0.00    +0.017 A 
ENDBRANCH  27  28
ENDBRANCH  23  24
ENDBRANCH  22  23
TORSDOF 7
