REMARK  Name = 
REMARK  8 active torsions:
REMARK  status: ('A' for Active; 'I' for Inactive)
REMARK    1  A    between atoms: O_2  and  C_3
REMARK    2  A    between atoms: C_6  and  N_7
REMARK    3  A    between atoms: N_10  and  C_11
REMARK    4  A    between atoms: C_11  and  C_12
REMARK    5  A    between atoms: C_19  and  C_20
REMARK    6  A    between atoms: C_22  and  C_26
REMARK    7  A    between atoms: C_29  and  O_30
REMARK    8  A    between atoms: C_32  and  O_33
REMARK                            x       y       z     vdW  Elec       q    Type
REMARK                         _______ _______ _______ _____ _____    ______ ____
ROOT
ATOM     12  C   UNL     1       1.814  -2.106   0.000  0.00  0.00    +0.079 C 
ATOM     13  C   UNL     1       1.661  -1.343   0.000  0.00  0.00    +0.018 C 
ATOM     14  C   UNL     1       0.923  -1.010   0.000  0.00  0.00    +0.010 C 
ATOM     15  C   UNL     1       0.961  -0.114   0.000  0.00  0.00    +0.018 C 
ATOM     16  C   UNL     1       1.205  -0.720   0.000  0.00  0.00    +0.072 C 
ATOM     17  N   UNL     1       1.065  -1.759   0.000  0.00  0.00    -0.272 NA
ATOM     18  C   UNL     1       0.226  -2.118   0.000  0.00  0.00    +0.078 C 
ATOM     19  C   UNL     1       0.119  -1.362   0.000  0.00  0.00    +0.056 C 
ENDROOT
BRANCH  19  20
ATOM     20  C   UNL     1      -0.602  -0.960   0.000  0.00  0.00    +0.058 A 
ATOM     21  C   UNL     1      -1.350  -1.307   0.000  0.00  0.00    +0.035 A 
ATOM     22  C   UNL     1      -1.911  -0.703   0.000  0.00  0.00    +0.102 A 
ATOM     23  N   UNL     1      -1.510   0.018   0.000  0.00  0.00    -0.170 NA
ATOM     24  N   UNL     1      -0.700  -0.141   0.000  0.00  0.00    -0.253 N 
ATOM     25  C   UNL     1      -0.095   0.420   0.000  0.00  0.00    +0.153 C 
BRANCH  22  26
ATOM     26  C   UNL     1      -2.730  -0.801   0.000  0.00  0.00    +0.023 A 
ATOM     27  C   UNL     1      -3.055  -1.560   0.000  0.00  0.00    +0.005 A 
ATOM     28  C   UNL     1      -3.874  -1.658   0.000  0.00  0.00    +0.040 A 
ATOM     29  C   UNL     1      -4.369  -0.998   0.000  0.00  0.00    +0.172 A 
ATOM     32  C   UNL     1      -4.044  -0.239   0.000  0.00  0.00    +0.172 A 
ATOM     35  C   UNL     1      -3.225  -0.141   0.000  0.00  0.00    +0.042 A 
BRANCH  29  30
ATOM     30  O   UNL     1      -5.188  -1.097   0.000  0.00  0.00    -0.468 OA
ATOM     31  C   UNL     1      -5.683  -0.437   0.000  0.00  0.00    +0.253 C 
ENDBRANCH  29  30
BRANCH  32  33
ATOM     33  O   UNL     1      -4.539   0.421   0.000  0.00  0.00    -0.468 OA
ATOM     34  C   UNL     1      -4.215   1.179   0.000  0.00  0.00    +0.253 C 
ENDBRANCH  32  33
ENDBRANCH  22  26
ENDBRANCH  19  20
BRANCH  12  11
ATOM     11  C   UNL     1       2.324  -2.754   0.000  0.00  0.00    +0.133 C 
BRANCH  11  10
ATOM      7  N   UNL     1       2.223  -4.934   0.000  0.00  0.00    -0.161 NA
ATOM      8  C   UNL     1       2.529  -4.168   0.000  0.00  0.00    +0.344 C 
ATOM      9  O   UNL     1       3.345  -4.050   0.000  0.00  0.00    -0.249 OA
ATOM     10  N   UNL     1       2.018  -3.520   0.000  0.00  0.00    -0.185 NA
BRANCH   7   6
ATOM      3  C   UNL     1       3.754  -6.878   0.000  0.00  0.00    +0.139 A 
ATOM      4  C   UNL     1       2.938  -6.996   0.000  0.00  0.00    +0.038 A 
ATOM      5  C   UNL     1       2.427  -6.348   0.000  0.00  0.00    +0.020 A 
ATOM      6  C   UNL     1       2.733  -5.582   0.000  0.00  0.00    +0.075 A 
ATOM     36  C   UNL     1       3.550  -5.464   0.000  0.00  0.00    +0.020 A 
ATOM     37  C   UNL     1       4.060  -6.112   0.000  0.00  0.00    +0.038 A 
BRANCH   3   2
ATOM      1  C   UNL     1       5.081  -7.409   0.000  0.00  0.00    +0.252 C 
ATOM      2  O   UNL     1       4.264  -7.527   0.000  0.00  0.00    -0.471 OA
ENDBRANCH   3   2
ENDBRANCH   7   6
ENDBRANCH  11  10
ENDBRANCH  12  11
TORSDOF 8
