REMARK  Name = 
REMARK  8 active torsions:
REMARK  status: ('A' for Active; 'I' for Inactive)
REMARK    1  A    between atoms: O_2  and  C_3
REMARK    2  A    between atoms: C_3  and  C_4
REMARK    3  A    between atoms: C_4  and  C_5
REMARK    4  A    between atoms: N_7  and  C_8
REMARK    5  A    between atoms: C_8  and  C_9
REMARK    6  A    between atoms: C_13  and  C_14
REMARK    7  A    between atoms: C_14  and  C_15
REMARK    8  A    between atoms: C_30  and  C_31
REMARK                            x       y       z     vdW  Elec       q    Type
REMARK                         _______ _______ _______ _____ _____    ______ ____
ROOT
ATOM      9  C   UNL     1       6.430 -10.312   0.000  0.00  0.00    +0.043 C 
ATOM     10  C   UNL     1       7.145  -9.900   0.000  0.00  0.00    -0.033 C 
ATOM     11  C   UNL     1       7.859 -10.312   0.000  0.00  0.00    -0.048 C 
ATOM     12  C   UNL     1       8.574  -9.900   0.000  0.00  0.00    +0.026 C 
ATOM     13  C   UNL     1       7.859 -11.137   0.000  0.00  0.00    +0.027 C 
ATOM     29  C   UNL     1       7.145 -11.550   0.000  0.00  0.00    +0.005 C 
ATOM     30  C   UNL     1       6.430 -11.137   0.000  0.00  0.00    +0.006 C 
ENDROOT
BRANCH  30  31
ATOM     31  C   UNL     1       5.716 -11.550   0.000  0.00  0.00    +0.000 C 
ATOM     32  C   UNL     1       5.001 -11.137   0.000  0.00  0.00    +0.000 C 
ATOM     33  C   UNL     1       5.716 -12.375   0.000  0.00  0.00    +0.000 C 
ENDBRANCH  30  31
BRANCH   9   8
ATOM      8  C   UNL     1       5.716  -9.900   0.000  0.00  0.00    +0.119 C 
BRANCH   8   7
ATOM      5  C   UNL     1       4.287  -9.900   0.000  0.00  0.00    +0.244 C 
ATOM      6  O   UNL     1       4.287  -9.075   0.000  0.00  0.00    -0.273 OA
ATOM      7  N   UNL     1       5.001 -10.312   0.000  0.00  0.00    -0.205 NA
BRANCH   5   4
ATOM      4  C   UNL     1       3.572 -10.312   0.000  0.00  0.00    +0.119 C 
BRANCH   4   3
ATOM      3  C   UNL     1       2.858  -9.900   0.000  0.00  0.00    +0.152 C 
BRANCH   3   2
ATOM      1  C   UNL     1       1.429  -9.900   0.000  0.00  0.00    +0.174 C 
ATOM      2  O   UNL     1       2.143 -10.312   0.000  0.00  0.00    -0.351 OA
ENDBRANCH   3   2
ENDBRANCH   4   3
ENDBRANCH   5   4
ENDBRANCH   8   7
ENDBRANCH   9   8
BRANCH  13  14
ATOM     14  C   UNL     1       8.574 -11.550   0.000  0.00  0.00    +0.089 C 
BRANCH  14  15
ATOM     15  C   UNL     1       9.288 -11.137   0.000  0.00  0.00    +0.226 C 
ATOM     16  O   UNL     1       9.288 -10.312   0.000  0.00  0.00    -0.275 OA
ATOM     17  N   UNL     1      10.003 -11.550   0.000  0.00  0.00    -0.276 N 
ATOM     18  C   UNL     1      10.717 -11.137   0.000  0.00  0.00    +0.115 C 
ATOM     19  C   UNL     1      11.431 -11.550   0.000  0.00  0.00    +0.114 C 
ATOM     20  N   UNL     1      11.431 -12.375   0.000  0.00  0.00    -0.290 N 
ATOM     21  C   UNL     1      10.717 -12.787   0.000  0.00  0.00    +0.114 C 
ATOM     22  C   UNL     1      10.003 -12.375   0.000  0.00  0.00    +0.115 C 
ATOM     23  C   UNL     1      12.146 -12.787   0.000  0.00  0.00    +0.132 A 
ATOM     24  N   UNL     1      12.861 -12.375   0.000  0.00  0.00    -0.229 NA
ATOM     25  C   UNL     1      13.575 -12.787   0.000  0.00  0.00    +0.100 A 
ATOM     26  C   UNL     1      13.575 -13.613   0.000  0.00  0.00    +0.021 A 
ATOM     27  C   UNL     1      12.861 -14.025   0.000  0.00  0.00    +0.004 A 
ATOM     28  C   UNL     1      12.146 -13.613   0.000  0.00  0.00    +0.034 A 
ENDBRANCH  14  15
ENDBRANCH  13  14
TORSDOF 8
