REMARK  Name = 
REMARK  4 active torsions:
REMARK  status: ('A' for Active; 'I' for Inactive)
REMARK    1  A    between atoms: C_2  and  C_5
REMARK    2  A    between atoms: N_10  and  C_11
REMARK    3  A    between atoms: C_15  and  N_19
REMARK    4  A    between atoms: C_20  and  C_22
REMARK                            x       y       z     vdW  Elec       q    Type
REMARK                         _______ _______ _______ _____ _____    ______ ____
ROOT
ATOM     11  C   UNL     1       1.270  -0.922   0.000  0.00  0.00    +0.154 C 
ATOM     12  C   UNL     1       0.785  -0.255   0.000  0.00  0.00    +0.166 C 
ATOM     13  O   UNL     1       1.270   0.412   0.000  0.00  0.00    -0.350 OA
ATOM     14  C   UNL     1       2.054   0.158   0.000  0.00  0.00    +0.166 C 
ATOM     15  C   UNL     1       2.839   0.412   0.000  0.00  0.00    +0.155 C 
ATOM     16  C   UNL     1       3.324  -0.255   0.000  0.00  0.00    +0.166 C 
ATOM     17  O   UNL     1       2.839  -0.922   0.000  0.00  0.00    -0.350 OA
ATOM     18  C   UNL     1       2.054  -0.667   0.000  0.00  0.00    +0.166 C 
ENDROOT
BRANCH  11  10
ATOM      5  C   UNL     1      -0.854  -2.835   0.000  0.00  0.00    +0.063 A 
ATOM      6  C   UNL     1      -1.406  -2.222   0.000  0.00  0.00    +0.035 A 
ATOM      7  C   UNL     1      -1.151  -1.437   0.000  0.00  0.00    +0.103 A 
ATOM      8  N   UNL     1      -0.344  -1.265   0.000  0.00  0.00    -0.211 NA
ATOM      9  C   UNL     1       0.208  -1.879   0.000  0.00  0.00    +0.236 A 
ATOM     10  N   UNL     1       1.015  -1.707   0.000  0.00  0.00    -0.200 NA
ATOM     28  N   UNL     1      -0.047  -2.663   0.000  0.00  0.00    -0.217 NA
BRANCH   5   2
ATOM      1  C   UNL     1      -1.364  -4.404   0.000  0.00  0.00    +0.006 C 
ATOM      2  C   UNL     1      -1.109  -3.619   0.000  0.00  0.00    +0.036 C 
ATOM      3  C   UNL     1      -0.325  -3.874   0.000  0.00  0.00    +0.006 C 
ATOM      4  C   UNL     1      -1.894  -3.364   0.000  0.00  0.00    +0.006 C 
ENDBRANCH   5   2
ENDBRANCH  11  10
BRANCH  15  19
ATOM     19  N   UNL     1       3.094   1.197   0.000  0.00  0.00    -0.198 NA
ATOM     20  C   UNL     1       2.542   1.810   0.000  0.00  0.00    +0.265 C 
ATOM     21  O   UNL     1       1.735   1.639   0.000  0.00  0.00    -0.268 OA
BRANCH  20  22
ATOM     22  C   UNL     1       2.797   2.595   0.000  0.00  0.00    +0.055 A 
ATOM     23  C   UNL     1       2.245   3.208   0.000  0.00  0.00    +0.005 A 
ATOM     24  C   UNL     1       2.499   3.993   0.000  0.00  0.00    +0.000 A 
ATOM     25  C   UNL     1       3.307   4.164   0.000  0.00  0.00    +0.000 A 
ATOM     26  C   UNL     1       3.858   3.551   0.000  0.00  0.00    +0.000 A 
ATOM     27  C   UNL     1       3.604   2.766   0.000  0.00  0.00    +0.005 A 
ENDBRANCH  20  22
ENDBRANCH  15  19
TORSDOF 4
