REMARK  Name = 
REMARK  4 active torsions:
REMARK  status: ('A' for Active; 'I' for Inactive)
REMARK    1  A    between atoms: O_2  and  C_3
REMARK    2  A    between atoms: C_3  and  C_5
REMARK    3  A    between atoms: C_11  and  C_13
REMARK    4  A    between atoms: C_18  and  C_20
REMARK                            x       y       z     vdW  Elec       q    Type
REMARK                         _______ _______ _______ _____ _____    ______ ____
ROOT
ATOM      5  C   UNL     1       5.609   0.640   0.000  0.00  0.00    +0.195 C 
ATOM      6  C   UNL     1       6.324   1.053   0.000  0.00  0.00    +0.125 C 
ATOM      7  N   UNL     1       7.038   0.640   0.000  0.00  0.00    -0.272 N 
ATOM      8  C   UNL     1       7.038  -0.185   0.000  0.00  0.00    +0.115 C 
ATOM      9  C   UNL     1       6.324  -0.597   0.000  0.00  0.00    +0.116 C 
ATOM     10  N   UNL     1       5.609  -0.185   0.000  0.00  0.00    -0.264 N 
ATOM     11  C   UNL     1       4.895  -0.597   0.000  0.00  0.00    +0.255 C 
ATOM     12  O   UNL     1       4.180  -0.185   0.000  0.00  0.00    -0.269 OA
ATOM     18  C   UNL     1       7.753   1.053   0.000  0.00  0.00    +0.249 C 
ATOM     19  O   UNL     1       7.753   1.878   0.000  0.00  0.00    -0.270 OA
ENDROOT
BRANCH  18  20
ATOM     20  C   UNL     1       8.467   0.640   0.000  0.00  0.00    +0.056 A 
ATOM     21  C   UNL     1       9.181   1.053   0.000  0.00  0.00    +0.005 A 
ATOM     22  C   UNL     1       9.896   0.640   0.000  0.00  0.00    +0.002 A 
ATOM     23  C   UNL     1       9.896  -0.185   0.000  0.00  0.00    +0.030 A 
ATOM     24  C   UNL     1       9.181  -0.597   0.000  0.00  0.00    +0.140 A 
ATOM     25  F   UNL     1       9.181  -1.422   0.000  0.00  0.00    -0.204 F 
ATOM     26  C   UNL     1       8.467  -0.185   0.000  0.00  0.00    +0.034 A 
ENDBRANCH  18  20
BRANCH  11  13
ATOM     13  C   UNL     1       4.895  -1.422   0.000  0.00  0.00    +0.083 A 
ATOM     14  C   UNL     1       5.562  -1.907   0.000  0.00  0.00    +0.012 A 
ATOM     15  C   UNL     1       5.307  -2.692   0.000  0.00  0.00    +0.008 A 
ATOM     16  C   UNL     1       4.482  -2.692   0.000  0.00  0.00    +0.036 A 
ATOM     17  S   UNL     1       4.227  -1.907   0.000  0.00  0.00    -0.082 S 
ENDBRANCH  11  13
BRANCH   5   3
ATOM      3  C   UNL     1       4.895   1.053   0.000  0.00  0.00    +0.337 C 
ATOM      4  O   UNL     1       4.895   1.878   0.000  0.00  0.00    -0.248 OA
BRANCH   3   2
ATOM      1  C   UNL     1       3.466   1.053   0.000  0.00  0.00    +0.256 C 
ATOM      2  O   UNL     1       4.180   0.640   0.000  0.00  0.00    -0.443 OA
ENDBRANCH   3   2
ENDBRANCH   5   3
TORSDOF 4
