REMARK  Name = 
REMARK  8 active torsions:
REMARK  status: ('A' for Active; 'I' for Inactive)
REMARK    1  A    between atoms: C_2  and  O_3
REMARK    2  A    between atoms: O_3  and  C_4
REMARK    3  A    between atoms: C_4  and  C_6
REMARK    4  A    between atoms: C_6  and  C_7
REMARK    5  A    between atoms: C_9  and  C_10
REMARK    6  A    between atoms: C_13  and  C_14
REMARK    7  A    between atoms: C_14  and  N_15
REMARK    8  A    between atoms: C_16  and  C_18
REMARK                            x       y       z     vdW  Elec       q    Type
REMARK                         _______ _______ _______ _____ _____    ______ ____
ROOT
ATOM      7  C   UNL     1      -2.143  -4.537   0.000  0.00  0.00    +0.029 C 
ATOM      8  C   UNL     1      -1.429  -4.125   0.000  0.00  0.00    +0.005 C 
ATOM      9  C   UNL     1      -0.715  -4.537   0.000  0.00  0.00    +0.006 C 
ATOM     13  C   UNL     1      -0.715  -5.362   0.000  0.00  0.00    +0.043 C 
ATOM     24  C   UNL     1      -1.429  -5.775   0.000  0.00  0.00    -0.033 C 
ATOM     25  C   UNL     1      -2.143  -5.362   0.000  0.00  0.00    -0.048 C 
ATOM     26  C   UNL     1      -2.858  -5.775   0.000  0.00  0.00    +0.026 C 
ENDROOT
BRANCH   9  10
ATOM     10  C   UNL     1       0.000  -4.125   0.000  0.00  0.00    +0.000 C 
ATOM     11  C   UNL     1       0.715  -4.537   0.000  0.00  0.00    +0.000 C 
ATOM     12  C   UNL     1       0.000  -3.300   0.000  0.00  0.00    +0.000 C 
ENDBRANCH   9  10
BRANCH   7   6
ATOM      6  C   UNL     1      -2.858  -4.125   0.000  0.00  0.00    +0.114 C 
BRANCH   6   4
ATOM      4  C   UNL     1      -3.572  -4.537   0.000  0.00  0.00    +0.317 C 
ATOM      5  O   UNL     1      -3.572  -5.362   0.000  0.00  0.00    -0.250 OA
BRANCH   4   3
ATOM      3  O   UNL     1      -4.287  -4.125   0.000  0.00  0.00    -0.448 OA
BRANCH   3   2
ATOM      1  C   UNL     1      -5.716  -4.125   0.000  0.00  0.00    +0.051 C 
ATOM      2  C   UNL     1      -5.001  -4.537   0.000  0.00  0.00    +0.209 C 
ENDBRANCH   3   2
ENDBRANCH   4   3
ENDBRANCH   6   4
ENDBRANCH   7   6
BRANCH  13  14
ATOM     14  C   UNL     1       0.000  -5.775   0.000  0.00  0.00    +0.120 C 
BRANCH  14  15
ATOM     15  N   UNL     1       0.000  -6.600   0.000  0.00  0.00    -0.201 NA
ATOM     16  C   UNL     1       0.715  -7.013   0.000  0.00  0.00    +0.265 C 
ATOM     17  O   UNL     1       0.715  -7.838   0.000  0.00  0.00    -0.268 OA
BRANCH  16  18
ATOM     18  C   UNL     1       1.429  -6.600   0.000  0.00  0.00    +0.058 A 
ATOM     19  C   UNL     1       1.429  -5.775   0.000  0.00  0.00    +0.025 A 
ATOM     20  C   UNL     1       2.143  -5.362   0.000  0.00  0.00    +0.099 A 
ATOM     21  N   UNL     1       2.858  -5.775   0.000  0.00  0.00    -0.242 NA
ATOM     22  C   UNL     1       2.858  -6.600   0.000  0.00  0.00    +0.099 A 
ATOM     23  C   UNL     1       2.143  -7.013   0.000  0.00  0.00    +0.025 A 
ENDBRANCH  16  18
ENDBRANCH  14  15
ENDBRANCH  13  14
TORSDOF 8
