REMARK  Name = 
REMARK  3 active torsions:
REMARK  status: ('A' for Active; 'I' for Inactive)
REMARK    1  A    between atoms: C_2  and  C_3
REMARK    2  A    between atoms: C_12  and  O_14
REMARK    3  A    between atoms: O_14  and  C_15
REMARK                            x       y       z     vdW  Elec       q    Type
REMARK                         _______ _______ _______ _____ _____    ______ ____
ROOT
ATOM      1  O   UNL     1      -0.170   0.087   0.000  0.00  0.00    -0.275 OA
ATOM      2  C   UNL     1      -0.884  -0.326   0.000  0.00  0.00    +0.225 C 
ATOM      7  N   UNL     1      -1.599   0.087   0.000  0.00  0.00    -0.273 N 
ATOM      8  C   UNL     1      -2.280  -0.378   0.000  0.00  0.00    +0.126 C 
ATOM      9  C   UNL     1      -3.069  -0.135   0.000  0.00  0.00    +0.164 C 
ATOM     10  O   UNL     1      -3.370   0.633   0.000  0.00  0.00    -0.348 OA
ATOM     11  C   UNL     1      -2.958   1.348   0.000  0.00  0.00    +0.187 C 
ATOM     12  C   UNL     1      -2.142   1.471   0.000  0.00  0.00    +0.215 C 
ATOM     13  C   UNL     1      -1.537   0.910   0.000  0.00  0.00    +0.139 C 
ENDROOT
BRANCH   2   3
ATOM      3  C   UNL     1      -0.884  -1.151   0.000  0.00  0.00    +0.077 C 
ATOM      4  C   UNL     1      -0.301  -1.734   0.000  0.00  0.00    +0.009 C 
ATOM      5  C   UNL     1      -0.884  -2.317   0.000  0.00  0.00    +0.001 C 
ATOM      6  C   UNL     1      -1.468  -1.734   0.000  0.00  0.00    +0.009 C 
ENDBRANCH   2   3
BRANCH  12  14
ATOM     14  O   UNL     1      -1.899   2.259   0.000  0.00  0.00    -0.473 OA
BRANCH  14  15
ATOM     15  C   UNL     1      -1.095   2.443   0.000  0.00  0.00    +0.158 A 
ATOM     16  C   UNL     1      -0.851   3.231   0.000  0.00  0.00    +0.040 A 
ATOM     17  C   UNL     1      -0.047   3.415   0.000  0.00  0.00    +0.024 A 
ATOM     18  C   UNL     1       0.514   2.810   0.000  0.00  0.00    +0.099 A 
ATOM     19  N   UNL     1       0.271   2.022   0.000  0.00  0.00    -0.239 NA
ATOM     20  C   UNL     1      -0.533   1.838   0.000  0.00  0.00    +0.136 A 
ENDBRANCH  14  15
ENDBRANCH  12  14
TORSDOF 3
