REMARK  Name = 
REMARK  6 active torsions:
REMARK  status: ('A' for Active; 'I' for Inactive)
REMARK    1  A    between atoms: S_2  and  N_5
REMARK    2  A    between atoms: N_5  and  C_6
REMARK    3  A    between atoms: C_6  and  C_7
REMARK    4  A    between atoms: C_10  and  N_11
REMARK    5  A    between atoms: N_11  and  C_12
REMARK    6  A    between atoms: C_12  and  C_13
REMARK                            x       y       z     vdW  Elec       q    Type
REMARK                         _______ _______ _______ _____ _____    ______ ____
ROOT
ATOM      7  C   UNL     1       2.318  -1.961   0.000  0.00  0.00    +0.166 C 
ATOM      8  O   UNL     1       2.986  -2.446   0.000  0.00  0.00    -0.350 OA
ATOM      9  C   UNL     1       2.731  -3.231   0.000  0.00  0.00    +0.162 C 
ATOM     10  C   UNL     1       1.906  -3.231   0.000  0.00  0.00    +0.136 C 
ATOM     18  C   UNL     1       1.651  -2.446   0.000  0.00  0.00    +0.199 C 
ATOM     19  O   UNL     1       0.866  -2.191   0.000  0.00  0.00    -0.219 OA
ENDROOT
BRANCH   7   6
ATOM      6  C   UNL     1       2.318  -1.136   0.000  0.00  0.00    +0.147 C 
BRANCH   6   5
ATOM      5  N   UNL     1       3.033  -0.724   0.000  0.00  0.00    -0.079 NA
BRANCH   5   2
ATOM      1  C   UNL     1       3.033   0.926   0.000  0.00  0.00    +0.197 C 
ATOM      2  S   UNL     1       3.033   0.101   0.000  0.00  0.00    +0.059 S 
ATOM      3  O   UNL     1       2.208   0.101   0.000  0.00  0.00    -0.156 OA
ATOM      4  O   UNL     1       3.858   0.101   0.000  0.00  0.00    -0.156 OA
ENDBRANCH   5   2
ENDBRANCH   6   5
ENDBRANCH   7   6
BRANCH  10  11
ATOM     11  N   UNL     1       1.421  -3.898   0.000  0.00  0.00    -0.206 NA
BRANCH  11  12
ATOM     12  C   UNL     1       1.756  -4.652   0.000  0.00  0.00    +0.154 C 
BRANCH  12  13
ATOM     13  C   UNL     1       1.272  -5.319   0.000  0.00  0.00    +0.157 A 
ATOM     14  N   UNL     1       1.526  -6.104   0.000  0.00  0.00    -0.226 NA
ATOM     15  C   UNL     1       0.859  -6.589   0.000  0.00  0.00    +0.121 A 
ATOM     16  C   UNL     1       0.192  -6.104   0.000  0.00  0.00    +0.121 A 
ATOM     17  N   UNL     1       0.447  -5.319   0.000  0.00  0.00    -0.226 NA
ENDBRANCH  12  13
ENDBRANCH  11  12
ENDBRANCH  10  11
TORSDOF 6
