REMARK  Name = 
REMARK  6 active torsions:
REMARK  status: ('A' for Active; 'I' for Inactive)
REMARK    1  A    between atoms: C_8  and  C_10
REMARK    2  A    between atoms: C_10  and  C_11
REMARK    3  A    between atoms: C_11  and  C_12
REMARK    4  A    between atoms: C_19  and  N_22
REMARK    5  A    between atoms: N_22  and  C_23
REMARK    6  A    between atoms: C_23  and  C_24
REMARK                            x       y       z     vdW  Elec       q    Type
REMARK                         _______ _______ _______ _____ _____    ______ ____
ROOT
ATOM     12  C   UNL     1       3.279   1.238   0.000  0.00  0.00    +0.080 C 
ATOM     13  C   UNL     1       3.993   0.825   0.000  0.00  0.00    +0.131 C 
ATOM     14  N   UNL     1       3.993   0.000   0.000  0.00  0.00    -0.203 NA
ATOM     15  C   UNL     1       3.279  -0.412   0.000  0.00  0.00    +0.256 C 
ATOM     16  O   UNL     1       3.279  -1.238   0.000  0.00  0.00    -0.272 OA
ATOM     17  C   UNL     1       2.564   0.000   0.000  0.00  0.00    +0.138 C 
ATOM     18  C   UNL     1       1.780  -0.255   0.000  0.00  0.00    +0.044 C 
ATOM     19  C   UNL     1       1.295   0.412   0.000  0.00  0.00    +0.091 C 
ATOM     20  C   UNL     1       1.780   1.080   0.000  0.00  0.00    +0.090 C 
ATOM     21  N   UNL     1       2.564   0.825   0.000  0.00  0.00    -0.265 NA
ENDROOT
BRANCH  12  11
ATOM     11  C   UNL     1       3.279   2.062   0.000  0.00  0.00    +0.027 C 
BRANCH  11  10
ATOM     10  C   UNL     1       3.993   2.475   0.000  0.00  0.00    +0.087 C 
BRANCH  10   8
ATOM      1  O   UNL     1       6.851   4.950   0.000  0.00  0.00    -0.223 OA
ATOM      2  C   UNL     1       6.137   4.537   0.000  0.00  0.00    +0.155 C 
ATOM      3  C   UNL     1       6.137   3.712   0.000  0.00  0.00    +0.054 C 
ATOM      4  C   UNL     1       5.422   3.300   0.000  0.00  0.00    +0.096 C 
ATOM      5  N   UNL     1       4.708   3.712   0.000  0.00  0.00    -0.279 N 
ATOM      6  C   UNL     1       4.708   4.537   0.000  0.00  0.00    +0.096 C 
ATOM      7  C   UNL     1       5.422   4.950   0.000  0.00  0.00    +0.054 C 
ATOM      8  C   UNL     1       3.993   3.300   0.000  0.00  0.00    +0.226 C 
ATOM      9  O   UNL     1       3.279   3.712   0.000  0.00  0.00    -0.275 OA
ENDBRANCH  10   8
ENDBRANCH  11  10
ENDBRANCH  12  11
BRANCH  19  22
ATOM     22  N   UNL     1       0.470   0.412   0.000  0.00  0.00    -0.213 NA
BRANCH  22  23
ATOM     23  C   UNL     1       0.057  -0.302   0.000  0.00  0.00    +0.115 C 
BRANCH  23  24
ATOM     24  C   UNL     1      -0.768  -0.302   0.000  0.00  0.00    -0.005 A 
ATOM     25  C   UNL     1      -1.180  -1.016   0.000  0.00  0.00    -0.003 A 
ATOM     26  C   UNL     1      -2.005  -1.016   0.000  0.00  0.00    -0.000 A 
ATOM     27  C   UNL     1      -2.418  -0.302   0.000  0.00  0.00    -0.000 A 
ATOM     28  C   UNL     1      -2.005   0.412   0.000  0.00  0.00    -0.000 A 
ATOM     29  C   UNL     1      -1.180   0.412   0.000  0.00  0.00    -0.003 A 
ENDBRANCH  23  24
ENDBRANCH  22  23
ENDBRANCH  19  22
TORSDOF 6
