REMARK  Name = 
REMARK  8 active torsions:
REMARK  status: ('A' for Active; 'I' for Inactive)
REMARK    1  A    between atoms: C_2  and  O_3
REMARK    2  A    between atoms: O_3  and  C_4
REMARK    3  A    between atoms: C_4  and  C_6
REMARK    4  A    between atoms: C_10  and  N_11
REMARK    5  A    between atoms: C_17  and  C_18
REMARK    6  A    between atoms: C_18  and  C_19
REMARK    7  A    between atoms: N_21  and  C_22
REMARK    8  A    between atoms: C_28  and  C_29
REMARK                            x       y       z     vdW  Elec       q    Type
REMARK                         _______ _______ _______ _____ _____    ______ ____
ROOT
ATOM     11  N   UNL     1      -6.430  -5.362   0.000  0.00  0.00    -0.162 NA
ATOM     12  C   UNL     1      -6.430  -6.188   0.000  0.00  0.00    +0.327 C 
ATOM     13  O   UNL     1      -5.716  -6.600   0.000  0.00  0.00    -0.250 OA
ATOM     14  N   UNL     1      -7.145  -6.600   0.000  0.00  0.00    -0.263 N 
ATOM     15  C   UNL     1      -7.145  -7.425   0.000  0.00  0.00    +0.095 C 
ATOM     16  C   UNL     1      -7.859  -7.838   0.000  0.00  0.00    +0.022 C 
ATOM     17  C   UNL     1      -8.574  -7.425   0.000  0.00  0.00    +0.012 C 
ATOM     28  C   UNL     1      -8.574  -6.600   0.000  0.00  0.00    +0.020 C 
ATOM     31  C   UNL     1      -7.859  -6.188   0.000  0.00  0.00    +0.095 C 
ENDROOT
BRANCH  11  10
ATOM      6  C   UNL     1      -5.001  -3.712   0.000  0.00  0.00    +0.077 A 
ATOM      7  C   UNL     1      -4.287  -4.125   0.000  0.00  0.00    +0.007 A 
ATOM      8  C   UNL     1      -4.287  -4.950   0.000  0.00  0.00    +0.002 A 
ATOM      9  C   UNL     1      -5.001  -5.362   0.000  0.00  0.00    +0.017 A 
ATOM     10  C   UNL     1      -5.716  -4.950   0.000  0.00  0.00    +0.075 A 
ATOM     32  C   UNL     1      -5.716  -4.125   0.000  0.00  0.00    +0.023 A 
BRANCH   6   4
ATOM      4  C   UNL     1      -5.001  -2.888   0.000  0.00  0.00    +0.341 C 
ATOM      5  O   UNL     1      -5.716  -2.475   0.000  0.00  0.00    -0.245 OA
BRANCH   4   3
ATOM      3  O   UNL     1      -4.287  -2.475   0.000  0.00  0.00    -0.445 OA
BRANCH   3   2
ATOM      1  C   UNL     1      -3.572  -1.238   0.000  0.00  0.00    +0.051 C 
ATOM      2  C   UNL     1      -4.287  -1.650   0.000  0.00  0.00    +0.209 C 
ENDBRANCH   3   2
ENDBRANCH   4   3
ENDBRANCH   6   4
ENDBRANCH  11  10
BRANCH  28  29
ATOM     29  C   UNL     1      -9.288  -6.188   0.000  0.00  0.00    +0.002 C 
ATOM     30  C   UNL     1      -9.288  -5.362   0.000  0.00  0.00    +0.000 C 
ENDBRANCH  28  29
BRANCH  17  18
ATOM     18  C   UNL     1      -9.288  -7.838   0.000  0.00  0.00    +0.087 C 
BRANCH  18  19
ATOM     19  C   UNL     1     -10.003  -7.425   0.000  0.00  0.00    +0.246 C 
ATOM     20  O   UNL     1     -10.003  -6.600   0.000  0.00  0.00    -0.273 OA
ATOM     21  N   UNL     1     -10.717  -7.838   0.000  0.00  0.00    -0.179 NA
BRANCH  21  22
ATOM     22  C   UNL     1     -10.717  -8.662   0.000  0.00  0.00    +0.073 A 
ATOM     23  C   UNL     1     -10.003  -9.075   0.000  0.00  0.00    +0.017 A 
ATOM     24  C   UNL     1     -10.003  -9.900   0.000  0.00  0.00    +0.001 A 
ATOM     25  C   UNL     1     -10.717 -10.312   0.000  0.00  0.00    +0.000 A 
ATOM     26  C   UNL     1     -11.431  -9.900   0.000  0.00  0.00    +0.001 A 
ATOM     27  C   UNL     1     -11.431  -9.075   0.000  0.00  0.00    +0.017 A 
ENDBRANCH  21  22
ENDBRANCH  18  19
ENDBRANCH  17  18
TORSDOF 8
