REMARK  Name = 
REMARK  5 active torsions:
REMARK  status: ('A' for Active; 'I' for Inactive)
REMARK    1  A    between atoms: C_2  and  N_4
REMARK    2  A    between atoms: N_7  and  C_8
REMARK    3  A    between atoms: C_13  and  C_14
REMARK    4  A    between atoms: C_14  and  C_15
REMARK    5  A    between atoms: C_15  and  C_16
REMARK                            x       y       z     vdW  Elec       q    Type
REMARK                         _______ _______ _______ _____ _____    ______ ____
ROOT
ATOM      8  C   UNL     1       1.453  -3.862   0.000  0.00  0.00    +0.115 C 
ATOM      9  C   UNL     1       1.540  -4.682   0.000  0.00  0.00    +0.049 C 
ATOM     10  C   UNL     1       2.347  -4.854   0.000  0.00  0.00    +0.138 C 
ATOM     11  N   UNL     1       2.759  -4.139   0.000  0.00  0.00    -0.265 NA
ATOM     12  C   UNL     1       2.207  -3.526   0.000  0.00  0.00    +0.094 C 
ATOM     13  C   UNL     1       3.584  -4.139   0.000  0.00  0.00    +0.080 C 
ATOM     23  C   UNL     1       3.997  -4.854   0.000  0.00  0.00    +0.131 C 
ATOM     24  N   UNL     1       3.584  -5.568   0.000  0.00  0.00    -0.203 NA
ATOM     25  C   UNL     1       2.759  -5.568   0.000  0.00  0.00    +0.256 C 
ATOM     26  O   UNL     1       2.347  -6.283   0.000  0.00  0.00    -0.272 OA
ENDROOT
BRANCH   8   7
ATOM      4  N   UNL     1      -0.690  -3.449   0.000  0.00  0.00    -0.189 NA
ATOM      5  C   UNL     1       0.024  -3.862   0.000  0.00  0.00    +0.339 C 
ATOM      6  O   UNL     1       0.024  -4.687   0.000  0.00  0.00    -0.249 OA
ATOM      7  N   UNL     1       0.739  -3.449   0.000  0.00  0.00    -0.187 NA
BRANCH   4   2
ATOM      1  C   UNL     1      -2.119  -3.449   0.000  0.00  0.00    +0.023 C 
ATOM      2  C   UNL     1      -1.405  -3.862   0.000  0.00  0.00    +0.097 C 
ATOM      3  C   UNL     1      -1.405  -4.687   0.000  0.00  0.00    +0.023 C 
ENDBRANCH   4   2
ENDBRANCH   8   7
BRANCH  13  14
ATOM     14  C   UNL     1       3.997  -3.425   0.000  0.00  0.00    +0.027 C 
BRANCH  14  15
ATOM     15  C   UNL     1       4.822  -3.425   0.000  0.00  0.00    +0.087 C 
BRANCH  15  16
ATOM     16  C   UNL     1       5.234  -2.710   0.000  0.00  0.00    +0.226 C 
ATOM     17  O   UNL     1       4.822  -1.996   0.000  0.00  0.00    -0.275 OA
ATOM     18  N   UNL     1       6.059  -2.710   0.000  0.00  0.00    -0.280 N 
ATOM     19  C   UNL     1       6.544  -2.043   0.000  0.00  0.00    +0.093 C 
ATOM     20  C   UNL     1       7.329  -2.298   0.000  0.00  0.00    +0.023 C 
ATOM     21  C   UNL     1       7.329  -3.123   0.000  0.00  0.00    +0.023 C 
ATOM     22  C   UNL     1       6.544  -3.378   0.000  0.00  0.00    +0.093 C 
ENDBRANCH  15  16
ENDBRANCH  14  15
ENDBRANCH  13  14
TORSDOF 5
