REMARK  Name = 
REMARK  4 active torsions:
REMARK  status: ('A' for Active; 'I' for Inactive)
REMARK    1  A    between atoms: C_2  and  C_5
REMARK    2  A    between atoms: C_8  and  C_10
REMARK    3  A    between atoms: N_15  and  C_16
REMARK    4  A    between atoms: C_16  and  C_17
REMARK                            x       y       z     vdW  Elec       q    Type
REMARK                         _______ _______ _______ _____ _____    ______ ____
ROOT
ATOM     10  C   UNL     1       1.004  -4.474   0.000  0.00  0.00    +0.147 C 
ATOM     11  C   UNL     1       0.669  -5.227   0.000  0.00  0.00    +0.166 C 
ATOM     12  O   UNL     1       1.153  -5.895   0.000  0.00  0.00    -0.350 OA
ATOM     13  C   UNL     1       1.974  -5.809   0.000  0.00  0.00    +0.160 C 
ATOM     14  C   UNL     1       2.309  -5.055   0.000  0.00  0.00    +0.105 C 
ATOM     15  N   UNL     1       1.825  -4.387   0.000  0.00  0.00    -0.260 NA
ENDROOT
BRANCH  10   8
ATOM      5  C   UNL     1       0.107  -2.537   0.000  0.00  0.00    +0.079 A 
ATOM      6  C   UNL     1      -0.561  -3.022   0.000  0.00  0.00    +0.115 A 
ATOM      7  N   UNL     1      -0.306  -3.806   0.000  0.00  0.00    -0.227 NA
ATOM      8  C   UNL     1       0.519  -3.806   0.000  0.00  0.00    +0.156 A 
ATOM      9  N   UNL     1       0.774  -3.022   0.000  0.00  0.00    -0.232 NA
BRANCH   5   2
ATOM      1  C   UNL     1       0.107  -0.887   0.000  0.00  0.00    +0.006 C 
ATOM      2  C   UNL     1       0.107  -1.712   0.000  0.00  0.00    +0.037 C 
ATOM      3  C   UNL     1       0.932  -1.712   0.000  0.00  0.00    +0.006 C 
ATOM      4  C   UNL     1      -0.718  -1.712   0.000  0.00  0.00    +0.006 C 
ENDBRANCH   5   2
ENDBRANCH  10   8
BRANCH  15  16
ATOM     16  C   UNL     1       2.160  -3.634   0.000  0.00  0.00    +0.100 C 
BRANCH  16  17
ATOM     17  C   UNL     1       2.981  -3.547   0.000  0.00  0.00    -0.006 A 
ATOM     18  C   UNL     1       3.316  -2.794   0.000  0.00  0.00    -0.001 A 
ATOM     19  C   UNL     1       4.137  -2.708   0.000  0.00  0.00    +0.029 A 
ATOM     20  C   UNL     1       4.622  -3.375   0.000  0.00  0.00    +0.140 A 
ATOM     21  F   UNL     1       5.442  -3.289   0.000  0.00  0.00    -0.204 F 
ATOM     22  C   UNL     1       4.286  -4.129   0.000  0.00  0.00    +0.029 A 
ATOM     23  C   UNL     1       3.466  -4.215   0.000  0.00  0.00    -0.001 A 
ENDBRANCH  16  17
ENDBRANCH  15  16
TORSDOF 4
