REMARK  Name = 
REMARK  9 active torsions:
REMARK  status: ('A' for Active; 'I' for Inactive)
REMARK    1  A    between atoms: S_2  and  C_3
REMARK    2  A    between atoms: C_3  and  C_4
REMARK    3  A    between atoms: C_8  and  N_28
REMARK    4  A    between atoms: C_10  and  C_11
REMARK    5  A    between atoms: N_13  and  C_14
REMARK    6  A    between atoms: C_14  and  C_15
REMARK    7  A    between atoms: C_14  and  C_25
REMARK    8  A    between atoms: C_15  and  C_16
REMARK    9  A    between atoms: N_31  and  C_32
REMARK                            x       y       z     vdW  Elec       q    Type
REMARK                         _______ _______ _______ _____ _____    ______ ____
ROOT
ATOM      4  C   UNL     1      -8.849   2.008   0.000  0.00  0.00    +0.237 C 
ATOM      5  O   UNL     1      -9.185   2.762   0.000  0.00  0.00    -0.274 OA
ATOM      6  N   UNL     1      -8.029   1.922   0.000  0.00  0.00    -0.270 N 
ATOM      7  C   UNL     1      -7.477   2.535   0.000  0.00  0.00    +0.116 C 
ATOM      8  C   UNL     1      -6.723   2.199   0.000  0.00  0.00    +0.119 C 
ATOM      9  C   UNL     1      -6.809   1.379   0.000  0.00  0.00    +0.053 C 
ATOM     10  C   UNL     1      -7.616   1.207   0.000  0.00  0.00    +0.155 C 
ENDROOT
BRANCH   8  28
ATOM     28  N   UNL     1      -6.009   2.612   0.000  0.00  0.00    -0.187 NA
ATOM     29  C   UNL     1      -5.294   2.199   0.000  0.00  0.00    +0.339 C 
ATOM     30  O   UNL     1      -5.294   1.374   0.000  0.00  0.00    -0.249 OA
ATOM     31  N   UNL     1      -4.580   2.612   0.000  0.00  0.00    -0.189 NA
BRANCH  31  32
ATOM     32  C   UNL     1      -3.865   2.199   0.000  0.00  0.00    +0.097 C 
ATOM     33  C   UNL     1      -3.151   2.612   0.000  0.00  0.00    +0.023 C 
ATOM     34  C   UNL     1      -3.865   1.374   0.000  0.00  0.00    +0.023 C 
ENDBRANCH  31  32
ENDBRANCH   8  28
BRANCH  10  11
ATOM     11  C   UNL     1      -7.952   0.454   0.000  0.00  0.00    +0.260 C 
ATOM     12  O   UNL     1      -7.467  -0.214   0.000  0.00  0.00    -0.272 OA
ATOM     13  N   UNL     1      -8.772   0.367   0.000  0.00  0.00    -0.196 NA
BRANCH  13  14
ATOM     14  C   UNL     1      -9.108  -0.386   0.000  0.00  0.00    +0.179 C 
BRANCH  14  25
ATOM     25  C   UNL     1      -9.928  -0.473   0.000  0.00  0.00    +0.281 C 
ATOM     26  N   UNL     1     -10.413   0.195   0.000  0.00  0.00    -0.086 NA
ATOM     27  O   UNL     1     -10.264  -1.226   0.000  0.00  0.00    -0.270 OA
ENDBRANCH  14  25
BRANCH  14  15
ATOM     15  C   UNL     1      -8.623  -1.054   0.000  0.00  0.00    +0.059 C 
BRANCH  15  16
ATOM     16  C   UNL     1      -8.959  -1.808   0.000  0.00  0.00    +0.001 A 
ATOM     17  C   UNL     1      -9.765  -1.979   0.000  0.00  0.00    +0.095 A 
ATOM     18  N   UNL     1      -9.852  -2.800   0.000  0.00  0.00    -0.244 NA
ATOM     19  C   UNL     1      -9.098  -3.135   0.000  0.00  0.00    +0.081 A 
ATOM     20  C   UNL     1      -8.546  -2.522   0.000  0.00  0.00    +0.015 A 
ATOM     21  C   UNL     1      -7.739  -2.693   0.000  0.00  0.00    +0.001 A 
ATOM     22  C   UNL     1      -7.484  -3.478   0.000  0.00  0.00    +0.000 A 
ATOM     23  C   UNL     1      -8.036  -4.091   0.000  0.00  0.00    +0.002 A 
ATOM     24  C   UNL     1      -8.843  -3.920   0.000  0.00  0.00    +0.019 A 
ENDBRANCH  15  16
ENDBRANCH  14  15
ENDBRANCH  13  14
ENDBRANCH  10  11
BRANCH   4   3
ATOM      3  C   UNL     1      -9.334   1.341   0.000  0.00  0.00    +0.143 C 
BRANCH   3   2
ATOM      1  C   UNL     1     -10.640   0.759   0.000  0.00  0.00    +0.070 C 
ATOM      2  S   UNL     1     -10.155   1.427   0.000  0.00  0.00    -0.130 S 
ENDBRANCH   3   2
ENDBRANCH   4   3
TORSDOF 9
