REMARK  Name = 
REMARK  5 active torsions:
REMARK  status: ('A' for Active; 'I' for Inactive)
REMARK    1  A    between atoms: O_2  and  C_3
REMARK    2  A    between atoms: C_6  and  C_7
REMARK    3  A    between atoms: C_7  and  N_8
REMARK    4  A    between atoms: N_8  and  C_9
REMARK    5  A    between atoms: C_15  and  C_16
REMARK                            x       y       z     vdW  Elec       q    Type
REMARK                         _______ _______ _______ _____ _____    ______ ____
ROOT
ATOM      9  C   UNL     1       0.715  -1.238   0.000  0.00  0.00    +0.110 C 
ATOM     10  C   UNL     1       1.382  -1.722   0.000  0.00  0.00    +0.198 C 
ATOM     11  O   UNL     1       2.167  -1.468   0.000  0.00  0.00    -0.219 OA
ATOM     12  C   UNL     1       1.127  -2.507   0.000  0.00  0.00    +0.184 C 
ATOM     13  O   UNL     1       1.612  -3.175   0.000  0.00  0.00    -0.220 OA
ATOM     14  C   UNL     1       0.302  -2.507   0.000  0.00  0.00    +0.041 C 
ATOM     15  C   UNL     1       0.047  -1.722   0.000  0.00  0.00    +0.045 C 
ENDROOT
BRANCH  15  16
ATOM     16  C   UNL     1      -0.738  -1.468   0.000  0.00  0.00    -0.002 A 
ATOM     17  C   UNL     1      -1.351  -2.019   0.000  0.00  0.00    -0.001 A 
ATOM     18  C   UNL     1      -2.135  -1.765   0.000  0.00  0.00    +0.020 A 
ATOM     19  C   UNL     1      -2.307  -0.958   0.000  0.00  0.00    +0.099 A 
ATOM     20  N   UNL     1      -1.694  -0.406   0.000  0.00  0.00    -0.243 NA
ATOM     21  C   UNL     1      -0.909  -0.660   0.000  0.00  0.00    +0.095 A 
ENDBRANCH  15  16
BRANCH   9   8
ATOM      8  N   UNL     1       0.715  -0.412   0.000  0.00  0.00    -0.212 NA
BRANCH   8   7
ATOM      7  C   UNL     1       1.429   0.000   0.000  0.00  0.00    +0.115 C 
BRANCH   7   6
ATOM      3  C   UNL     1       1.429   2.475   0.000  0.00  0.00    +0.139 A 
ATOM      4  C   UNL     1       2.143   2.062   0.000  0.00  0.00    +0.037 A 
ATOM      5  C   UNL     1       2.143   1.238   0.000  0.00  0.00    +0.000 A 
ATOM      6  C   UNL     1       1.429   0.825   0.000  0.00  0.00    -0.005 A 
ATOM     22  C   UNL     1       0.715   1.238   0.000  0.00  0.00    +0.000 A 
ATOM     23  C   UNL     1       0.715   2.062   0.000  0.00  0.00    +0.037 A 
BRANCH   3   2
ATOM      1  C   UNL     1       0.715   3.712   0.000  0.00  0.00    +0.252 C 
ATOM      2  O   UNL     1       1.429   3.300   0.000  0.00  0.00    -0.471 OA
ENDBRANCH   3   2
ENDBRANCH   7   6
ENDBRANCH   8   7
ENDBRANCH   9   8
TORSDOF 5
