REMARK  Name = 
REMARK  5 active torsions:
REMARK  status: ('A' for Active; 'I' for Inactive)
REMARK    1  A    between atoms: C_4  and  C_8
REMARK    2  A    between atoms: C_11  and  C_13
REMARK    3  A    between atoms: N_18  and  C_19
REMARK    4  A    between atoms: C_19  and  C_20
REMARK    5  A    between atoms: C_23  and  C_26
REMARK                            x       y       z     vdW  Elec       q    Type
REMARK                         _______ _______ _______ _____ _____    ______ ____
ROOT
ATOM     13  C   UNL     1       2.070   1.110   0.000  0.00  0.00    +0.144 C 
ATOM     14  C   UNL     1       1.356   0.698   0.000  0.00  0.00    +0.073 C 
ATOM     15  C   UNL     1       0.641   1.110   0.000  0.00  0.00    +0.077 A 
ATOM     16  C   UNL     1       0.641   1.935   0.000  0.00  0.00    +0.090 A 
ATOM     17  C   UNL     1       1.356   2.348   0.000  0.00  0.00    +0.121 C 
ATOM     18  N   UNL     1       2.070   1.935   0.000  0.00  0.00    -0.257 NA
ATOM     29  N   UNL     1      -0.143   2.190   0.000  0.00  0.00    -0.226 NA
ATOM     30  C   UNL     1      -0.628   1.523   0.000  0.00  0.00    +0.198 A 
ATOM     31  N   UNL     1      -0.143   0.856   0.000  0.00  0.00    -0.227 NA
ENDROOT
BRANCH  13  11
ATOM      8  C   UNL     1       3.678  -0.294   0.000  0.00  0.00    +0.203 A 
ATOM      9  N   UNL     1       4.090   0.420   0.000  0.00  0.00    -0.056 NA
ATOM     10  O   UNL     1       3.538   1.034   0.000  0.00  0.00    -0.336 OA
ATOM     11  C   UNL     1       2.784   0.698   0.000  0.00  0.00    +0.251 A 
ATOM     12  N   UNL     1       2.871  -0.122   0.000  0.00  0.00    -0.190 NA
BRANCH   8   4
ATOM      1  C   UNL     1       3.379  -3.136   0.000  0.00  0.00    +0.031 C 
ATOM      2  C   UNL     1       3.864  -2.469   0.000  0.00  0.00    -0.022 A 
ATOM      3  C   UNL     1       3.528  -1.715   0.000  0.00  0.00    -0.001 A 
ATOM      4  C   UNL     1       4.013  -1.048   0.000  0.00  0.00    +0.039 A 
ATOM      5  C   UNL     1       4.834  -1.134   0.000  0.00  0.00    +0.003 A 
ATOM      6  C   UNL     1       5.169  -1.888   0.000  0.00  0.00    -0.000 A 
ATOM      7  C   UNL     1       4.684  -2.555   0.000  0.00  0.00    -0.004 A 
ENDBRANCH   8   4
ENDBRANCH  13  11
BRANCH  18  19
ATOM     19  C   UNL     1       2.784   2.348   0.000  0.00  0.00    +0.100 C 
BRANCH  19  20
ATOM     20  C   UNL     1       2.784   3.173   0.000  0.00  0.00    -0.006 A 
ATOM     21  C   UNL     1       2.070   3.585   0.000  0.00  0.00    -0.003 A 
ATOM     22  C   UNL     1       2.070   4.410   0.000  0.00  0.00    +0.006 A 
ATOM     23  C   UNL     1       2.784   4.823   0.000  0.00  0.00    +0.080 A 
ATOM     24  C   UNL     1       3.499   4.410   0.000  0.00  0.00    +0.006 A 
ATOM     25  C   UNL     1       3.499   3.585   0.000  0.00  0.00    -0.003 A 
BRANCH  23  26
ATOM     26  C   UNL     1       2.784   5.648   0.000  0.00  0.00    +0.388 C 
ATOM     27  O   UNL     1       2.070   6.060   0.000  0.00  0.00    -0.241 OA
ATOM     28  O   UNL     1       3.499   6.060   0.000  0.00  0.00    -0.241 OA
ENDBRANCH  23  26
ENDBRANCH  19  20
ENDBRANCH  18  19
TORSDOF 5
