REMARK  Name = 
REMARK  3 active torsions:
REMARK  status: ('A' for Active; 'I' for Inactive)
REMARK    1  A    between atoms: C_4  and  C_7
REMARK    2  A    between atoms: N_9  and  C_10
REMARK    3  A    between atoms: C_16  and  C_17
REMARK                            x       y       z     vdW  Elec       q    Type
REMARK                         _______ _______ _______ _____ _____    ______ ____
ROOT
ATOM     10  C   UNL     1       5.279  -4.204   0.000  0.00  0.00    +0.133 C 
ATOM     11  C   UNL     1       6.104  -4.204   0.000  0.00  0.00    +0.202 C 
ATOM     12  O   UNL     1       6.588  -3.537   0.000  0.00  0.00    -0.219 OA
ATOM     13  C   UNL     1       6.358  -4.989   0.000  0.00  0.00    +0.184 C 
ATOM     14  O   UNL     1       7.143  -5.244   0.000  0.00  0.00    -0.220 OA
ATOM     15  C   UNL     1       5.691  -5.474   0.000  0.00  0.00    +0.042 C 
ATOM     16  C   UNL     1       5.024  -4.989   0.000  0.00  0.00    +0.049 C 
ENDROOT
BRANCH  16  17
ATOM     17  C   UNL     1       4.239  -5.244   0.000  0.00  0.00    -0.002 A 
ATOM     18  C   UNL     1       4.067  -6.051   0.000  0.00  0.00    -0.001 A 
ATOM     19  C   UNL     1       3.283  -6.306   0.000  0.00  0.00    +0.020 A 
ATOM     20  C   UNL     1       2.670  -5.753   0.000  0.00  0.00    +0.099 A 
ATOM     21  N   UNL     1       2.841  -4.947   0.000  0.00  0.00    -0.243 NA
ATOM     22  C   UNL     1       3.626  -4.692   0.000  0.00  0.00    +0.095 A 
ENDBRANCH  16  17
BRANCH  10   9
ATOM      7  C   UNL     1       5.129  -2.783   0.000  0.00  0.00    +0.286 C 
ATOM      8  O   UNL     1       5.950  -2.697   0.000  0.00  0.00    -0.267 OA
ATOM      9  N   UNL     1       4.794  -3.537   0.000  0.00  0.00    -0.199 NA
BRANCH   7   4
ATOM      1  C   UNL     1       4.232  -0.021   0.000  0.00  0.00    +0.075 C 
ATOM      2  C   UNL     1       4.232  -0.846   0.000  0.00  0.00    +0.155 A 
ATOM      3  C   UNL     1       4.899  -1.331   0.000  0.00  0.00    +0.063 A 
ATOM      4  C   UNL     1       4.644  -2.115   0.000  0.00  0.00    +0.177 A 
ATOM      5  N   UNL     1       3.819  -2.115   0.000  0.00  0.00    -0.073 NA
ATOM      6  O   UNL     1       3.564  -1.331   0.000  0.00  0.00    -0.358 OA
ENDBRANCH   7   4
ENDBRANCH  10   9
TORSDOF 3
