REMARK  Name = 
REMARK  6 active torsions:
REMARK  status: ('A' for Active; 'I' for Inactive)
REMARK    1  A    between atoms: C_2  and  N_4
REMARK    2  A    between atoms: C_5  and  C_7
REMARK    3  A    between atoms: C_7  and  C_8
REMARK    4  A    between atoms: C_10  and  C_11
REMARK    5  A    between atoms: C_11  and  N_12
REMARK    6  A    between atoms: C_13  and  C_15
REMARK                            x       y       z     vdW  Elec       q    Type
REMARK                         _______ _______ _______ _____ _____    ______ ____
ROOT
ATOM      8  C   UNL     1       8.119  -4.302   0.000  0.00  0.00    +0.157 C 
ATOM      9  O   UNL     1       8.873  -3.966   0.000  0.00  0.00    -0.351 OA
ATOM     10  C   UNL     1       9.425  -4.579   0.000  0.00  0.00    +0.170 C 
ATOM     20  C   UNL     1       9.012  -5.294   0.000  0.00  0.00    +0.213 C 
ATOM     21  O   UNL     1       9.348  -6.048   0.000  0.00  0.00    -0.218 OA
ATOM     22  C   UNL     1       8.205  -5.122   0.000  0.00  0.00    +0.212 C 
ATOM     23  O   UNL     1       7.592  -5.674   0.000  0.00  0.00    -0.218 OA
ENDROOT
BRANCH   8   7
ATOM      7  C   UNL     1       7.404  -3.889   0.000  0.00  0.00    +0.119 C 
BRANCH   7   5
ATOM      4  N   UNL     1       5.976  -3.889   0.000  0.00  0.00    -0.207 NA
ATOM      5  C   UNL     1       6.690  -4.302   0.000  0.00  0.00    +0.244 C 
ATOM      6  O   UNL     1       6.690  -5.127   0.000  0.00  0.00    -0.273 OA
BRANCH   4   2
ATOM      1  C   UNL     1       4.547  -3.889   0.000  0.00  0.00    +0.023 C 
ATOM      2  C   UNL     1       5.261  -4.302   0.000  0.00  0.00    +0.095 C 
ATOM      3  C   UNL     1       5.261  -5.127   0.000  0.00  0.00    +0.023 C 
ENDBRANCH   4   2
ENDBRANCH   7   5
ENDBRANCH   8   7
BRANCH  10  11
ATOM     11  C   UNL     1      10.245  -4.493   0.000  0.00  0.00    +0.147 C 
BRANCH  11  12
ATOM     12  N   UNL     1      10.730  -5.161   0.000  0.00  0.00    -0.203 NA
ATOM     13  C   UNL     1      11.550  -5.074   0.000  0.00  0.00    +0.241 C 
ATOM     14  O   UNL     1      11.886  -4.321   0.000  0.00  0.00    -0.273 OA
BRANCH  13  15
ATOM     15  C   UNL     1      12.035  -5.742   0.000  0.00  0.00    +0.078 C 
ATOM     16  C   UNL     1      12.860  -5.742   0.000  0.00  0.00    +0.009 C 
ATOM     17  C   UNL     1      13.115  -6.526   0.000  0.00  0.00    +0.001 C 
ATOM     18  C   UNL     1      12.448  -7.011   0.000  0.00  0.00    +0.001 C 
ATOM     19  C   UNL     1      11.780  -6.526   0.000  0.00  0.00    +0.009 C 
ENDBRANCH  13  15
ENDBRANCH  11  12
ENDBRANCH  10  11
TORSDOF 6
