REMARK  Name = 
REMARK  7 active torsions:
REMARK  status: ('A' for Active; 'I' for Inactive)
REMARK    1  A    between atoms: C_2  and  N_3
REMARK    2  A    between atoms: N_6  and  C_7
REMARK    3  A    between atoms: C_7  and  C_8
REMARK    4  A    between atoms: C_10  and  C_11
REMARK    5  A    between atoms: C_11  and  C_12
REMARK    6  A    between atoms: C_15  and  C_16
REMARK    7  A    between atoms: C_16  and  O_17
REMARK                            x       y       z     vdW  Elec       q    Type
REMARK                         _______ _______ _______ _____ _____    ______ ____
ROOT
ATOM      8  C   UNL     1       5.716  -4.125   0.000  0.00  0.00    +0.167 C 
ATOM      9  O   UNL     1       6.430  -3.712   0.000  0.00  0.00    -0.354 OA
ATOM     10  C   UNL     1       7.145  -4.125   0.000  0.00  0.00    +0.121 C 
ATOM     20  C   UNL     1       7.145  -4.950   0.000  0.00  0.00    +0.033 C 
ATOM     21  C   UNL     1       6.430  -5.362   0.000  0.00  0.00    +0.038 C 
ATOM     22  C   UNL     1       5.716  -4.950   0.000  0.00  0.00    +0.181 C 
ATOM     23  O   UNL     1       5.001  -5.362   0.000  0.00  0.00    -0.220 OA
ENDROOT
BRANCH   8   7
ATOM      7  C   UNL     1       5.001  -3.712   0.000  0.00  0.00    +0.149 C 
BRANCH   7   6
ATOM      3  N   UNL     1       2.858  -4.125   0.000  0.00  0.00    -0.187 NA
ATOM      4  C   UNL     1       3.572  -3.712   0.000  0.00  0.00    +0.339 C 
ATOM      5  O   UNL     1       3.572  -2.888   0.000  0.00  0.00    -0.249 OA
ATOM      6  N   UNL     1       4.287  -4.125   0.000  0.00  0.00    -0.185 NA
BRANCH   3   2
ATOM      1  C   UNL     1       1.429  -4.125   0.000  0.00  0.00    +0.025 C 
ATOM      2  C   UNL     1       2.143  -3.712   0.000  0.00  0.00    +0.117 C 
ENDBRANCH   3   2
ENDBRANCH   7   6
ENDBRANCH   8   7
BRANCH  10  11
ATOM     11  C   UNL     1       7.859  -3.712   0.000  0.00  0.00    +0.079 C 
BRANCH  11  12
ATOM     12  C   UNL     1       7.859  -2.888   0.000  0.00  0.00    +0.103 A 
ATOM     13  N   UNL     1       7.192  -2.403   0.000  0.00  0.00    -0.082 NA
ATOM     14  O   UNL     1       7.447  -1.618   0.000  0.00  0.00    -0.356 OA
ATOM     15  C   UNL     1       8.272  -1.618   0.000  0.00  0.00    +0.184 A 
ATOM     19  C   UNL     1       8.527  -2.403   0.000  0.00  0.00    +0.056 A 
BRANCH  15  16
ATOM     16  C   UNL     1       8.757  -0.951   0.000  0.00  0.00    +0.209 C 
BRANCH  16  17
ATOM     17  O   UNL     1       9.577  -1.037   0.000  0.00  0.00    -0.343 OA
ATOM     18  C   UNL     1      10.062  -0.369   0.000  0.00  0.00    +0.175 C 
ENDBRANCH  16  17
ENDBRANCH  15  16
ENDBRANCH  11  12
ENDBRANCH  10  11
TORSDOF 7
