REMARK  Name = 
REMARK  5 active torsions:
REMARK  status: ('A' for Active; 'I' for Inactive)
REMARK    1  A    between atoms: O_2  and  C_3
REMARK    2  A    between atoms: C_6  and  C_9
REMARK    3  A    between atoms: C_15  and  N_16
REMARK    4  A    between atoms: N_16  and  C_17
REMARK    5  A    between atoms: C_17  and  C_18
REMARK                            x       y       z     vdW  Elec       q    Type
REMARK                         _______ _______ _______ _____ _____    ______ ____
ROOT
ATOM      9  C   UNL     1      -2.245   1.965   0.000  0.00  0.00    +0.044 C 
ATOM     10  C   UNL     1      -2.245   2.790   0.000  0.00  0.00    +0.041 C 
ATOM     11  C   UNL     1      -1.460   3.045   0.000  0.00  0.00    +0.184 C 
ATOM     12  O   UNL     1      -1.205   3.830   0.000  0.00  0.00    -0.220 OA
ATOM     13  C   UNL     1      -0.975   2.378   0.000  0.00  0.00    +0.198 C 
ATOM     14  O   UNL     1      -0.150   2.378   0.000  0.00  0.00    -0.219 OA
ATOM     15  C   UNL     1      -1.460   1.710   0.000  0.00  0.00    +0.110 C 
ENDROOT
BRANCH   9   6
ATOM      3  C   UNL     1      -4.247   0.510   0.000  0.00  0.00    +0.139 A 
ATOM      4  C   UNL     1      -4.333   1.331   0.000  0.00  0.00    +0.037 A 
ATOM      5  C   UNL     1      -3.666   1.816   0.000  0.00  0.00    -0.001 A 
ATOM      6  C   UNL     1      -2.912   1.480   0.000  0.00  0.00    -0.021 A 
ATOM      7  C   UNL     1      -2.826   0.660   0.000  0.00  0.00    -0.001 A 
ATOM      8  C   UNL     1      -3.494   0.175   0.000  0.00  0.00    +0.037 A 
BRANCH   3   2
ATOM      1  C   UNL     1      -4.829  -0.795   0.000  0.00  0.00    +0.252 C 
ATOM      2  O   UNL     1      -4.915   0.025   0.000  0.00  0.00    -0.471 OA
ENDBRANCH   3   2
ENDBRANCH   9   6
BRANCH  15  16
ATOM     16  N   UNL     1      -1.205   0.926   0.000  0.00  0.00    -0.212 NA
BRANCH  16  17
ATOM     17  C   UNL     1      -0.398   0.754   0.000  0.00  0.00    +0.117 C 
BRANCH  17  18
ATOM     18  C   UNL     1      -0.143  -0.030   0.000  0.00  0.00    +0.014 A 
ATOM     19  C   UNL     1      -0.628  -0.698   0.000  0.00  0.00    +0.073 A 
ATOM     20  N   UNL     1      -0.143  -1.365   0.000  0.00  0.00    -0.324 N 
ATOM     21  C   UNL     1      -0.398  -2.150   0.000  0.00  0.00    +0.130 C 
ATOM     22  C   UNL     1       0.641  -1.110   0.000  0.00  0.00    +0.060 A 
ATOM     23  C   UNL     1       0.641  -0.285   0.000  0.00  0.00    +0.015 A 
ATOM     24  C   UNL     1       1.356   0.127   0.000  0.00  0.00    +0.001 A 
ATOM     25  C   UNL     1       2.070  -0.285   0.000  0.00  0.00    +0.000 A 
ATOM     26  C   UNL     1       2.070  -1.110   0.000  0.00  0.00    +0.001 A 
ATOM     27  C   UNL     1       1.356  -1.523   0.000  0.00  0.00    +0.017 A 
ENDBRANCH  17  18
ENDBRANCH  16  17
ENDBRANCH  15  16
TORSDOF 5
