REMARK  Name = 
REMARK  6 active torsions:
REMARK  status: ('A' for Active; 'I' for Inactive)
REMARK    1  A    between atoms: N_2  and  C_3
REMARK    2  A    between atoms: C_6  and  C_9
REMARK    3  A    between atoms: C_12  and  C_14
REMARK    4  A    between atoms: N_18  and  C_19
REMARK    5  A    between atoms: C_19  and  C_20
REMARK    6  A    between atoms: C_24  and  C_26
REMARK                            x       y       z     vdW  Elec       q    Type
REMARK                         _______ _______ _______ _____ _____    ______ ____
ROOT
ATOM     14  C   UNL     1       0.151  -4.727   0.000  0.00  0.00    +0.138 C 
ATOM     15  C   UNL     1       0.406  -5.512   0.000  0.00  0.00    +0.027 C 
ATOM     16  C   UNL     1      -0.262  -5.997   0.000  0.00  0.00    +0.019 C 
ATOM     17  C   UNL     1      -0.929  -5.512   0.000  0.00  0.00    +0.073 C 
ATOM     18  N   UNL     1      -0.674  -4.727   0.000  0.00  0.00    -0.263 NA
ENDROOT
BRANCH  14  12
ATOM      9  C   UNL     1       1.048  -2.790   0.000  0.00  0.00    +0.205 A 
ATOM     10  N   UNL     1       1.716  -3.275   0.000  0.00  0.00    -0.056 NA
ATOM     11  O   UNL     1       1.461  -4.060   0.000  0.00  0.00    -0.336 OA
ATOM     12  C   UNL     1       0.636  -4.060   0.000  0.00  0.00    +0.251 A 
ATOM     13  N   UNL     1       0.381  -3.275   0.000  0.00  0.00    -0.190 NA
BRANCH   9   6
ATOM      3  C   UNL     1       1.048  -0.315   0.000  0.00  0.00    +0.148 A 
ATOM      4  C   UNL     1       1.763  -0.728   0.000  0.00  0.00    +0.036 A 
ATOM      5  C   UNL     1       1.763  -1.553   0.000  0.00  0.00    +0.008 A 
ATOM      6  C   UNL     1       1.048  -1.965   0.000  0.00  0.00    +0.058 A 
ATOM      7  C   UNL     1       0.334  -1.553   0.000  0.00  0.00    +0.103 A 
ATOM      8  N   UNL     1       0.334  -0.728   0.000  0.00  0.00    -0.228 NA
BRANCH   3   2
ATOM      1  C   UNL     1       0.334   0.922   0.000  0.00  0.00    +0.137 C 
ATOM      2  N   UNL     1       1.048   0.510   0.000  0.00  0.00    -0.218 NA
ENDBRANCH   3   2
ENDBRANCH   9   6
ENDBRANCH  14  12
BRANCH  18  19
ATOM     19  C   UNL     1      -1.159  -4.060   0.000  0.00  0.00    +0.099 C 
BRANCH  19  20
ATOM     20  C   UNL     1      -1.979  -4.146   0.000  0.00  0.00    -0.005 A 
ATOM     21  C   UNL     1      -2.315  -4.900   0.000  0.00  0.00    -0.003 A 
ATOM     22  C   UNL     1      -3.135  -4.986   0.000  0.00  0.00    +0.000 A 
ATOM     23  C   UNL     1      -3.620  -4.319   0.000  0.00  0.00    +0.010 A 
ATOM     24  C   UNL     1      -3.285  -3.565   0.000  0.00  0.00    +0.068 A 
ATOM     25  C   UNL     1      -2.464  -3.479   0.000  0.00  0.00    +0.007 A 
BRANCH  24  26
ATOM     26  C   UNL     1      -3.770  -2.897   0.000  0.00  0.00    +0.100 C 
ATOM     27  N   UNL     1      -4.255  -2.230   0.000  0.00  0.00    -0.191 NA
ENDBRANCH  24  26
ENDBRANCH  19  20
ENDBRANCH  18  19
TORSDOF 6
