REMARK  Name = 
REMARK  6 active torsions:
REMARK  status: ('A' for Active; 'I' for Inactive)
REMARK    1  A    between atoms: C_2  and  C_4
REMARK    2  A    between atoms: C_6  and  C_7
REMARK    3  A    between atoms: C_7  and  C_8
REMARK    4  A    between atoms: C_18  and  C_19
REMARK    5  A    between atoms: C_19  and  N_20
REMARK    6  A    between atoms: C_21  and  C_23
REMARK                            x       y       z     vdW  Elec       q    Type
REMARK                         _______ _______ _______ _____ _____    ______ ____
ROOT
ATOM      4  C   UNL     1       7.038  -1.712   0.000  0.00  0.00    +0.006 C 
ATOM      5  C   UNL     1       7.038  -2.537   0.000  0.00  0.00    +0.005 C 
ATOM      6  C   UNL     1       6.324  -2.949   0.000  0.00  0.00    +0.027 C 
ATOM     15  C   UNL     1       5.609  -2.537   0.000  0.00  0.00    -0.048 C 
ATOM     16  C   UNL     1       4.895  -2.949   0.000  0.00  0.00    +0.026 C 
ATOM     17  C   UNL     1       5.609  -1.712   0.000  0.00  0.00    -0.033 C 
ATOM     18  C   UNL     1       6.324  -1.299   0.000  0.00  0.00    +0.043 C 
ENDROOT
BRANCH   4   2
ATOM      1  C   UNL     1       7.753  -0.474   0.000  0.00  0.00    +0.000 C 
ATOM      2  C   UNL     1       7.753  -1.299   0.000  0.00  0.00    +0.000 C 
ATOM      3  C   UNL     1       8.467  -1.712   0.000  0.00  0.00    +0.000 C 
ENDBRANCH   4   2
BRANCH   6   7
ATOM      7  C   UNL     1       6.324  -3.774   0.000  0.00  0.00    +0.089 C 
BRANCH   7   8
ATOM      8  C   UNL     1       5.609  -4.187   0.000  0.00  0.00    +0.226 C 
ATOM      9  O   UNL     1       4.895  -3.774   0.000  0.00  0.00    -0.275 OA
ATOM     10  N   UNL     1       5.609  -5.012   0.000  0.00  0.00    -0.280 N 
ATOM     11  C   UNL     1       6.277  -5.497   0.000  0.00  0.00    +0.093 C 
ATOM     12  C   UNL     1       6.022  -6.281   0.000  0.00  0.00    +0.023 C 
ATOM     13  C   UNL     1       5.197  -6.281   0.000  0.00  0.00    +0.023 C 
ATOM     14  C   UNL     1       4.942  -5.497   0.000  0.00  0.00    +0.093 C 
ENDBRANCH   7   8
ENDBRANCH   6   7
BRANCH  18  19
ATOM     19  C   UNL     1       6.324  -0.474   0.000  0.00  0.00    +0.119 C 
BRANCH  19  20
ATOM     20  N   UNL     1       7.038  -0.062   0.000  0.00  0.00    -0.205 NA
ATOM     21  C   UNL     1       7.038   0.763   0.000  0.00  0.00    +0.241 C 
ATOM     22  O   UNL     1       6.324   1.176   0.000  0.00  0.00    -0.273 OA
BRANCH  21  23
ATOM     23  C   UNL     1       7.753   1.176   0.000  0.00  0.00    +0.078 C 
ATOM     24  C   UNL     1       7.753   2.001   0.000  0.00  0.00    +0.009 C 
ATOM     25  C   UNL     1       8.467   2.413   0.000  0.00  0.00    +0.000 C 
ATOM     26  C   UNL     1       9.181   2.001   0.000  0.00  0.00    +0.000 C 
ATOM     27  C   UNL     1       9.181   1.176   0.000  0.00  0.00    +0.000 C 
ATOM     28  C   UNL     1       8.467   0.763   0.000  0.00  0.00    +0.009 C 
ENDBRANCH  21  23
ENDBRANCH  19  20
ENDBRANCH  18  19
TORSDOF 6
