REMARK  Name = 
REMARK  9 active torsions:
REMARK  status: ('A' for Active; 'I' for Inactive)
REMARK    1  A    between atoms: O_2  and  C_3
REMARK    2  A    between atoms: C_3  and  C_4
REMARK    3  A    between atoms: C_4  and  O_5
REMARK    4  A    between atoms: O_5  and  C_6
REMARK    5  A    between atoms: C_9  and  C_12
REMARK    6  A    between atoms: C_15  and  C_17
REMARK    7  A    between atoms: N_21  and  C_22
REMARK    8  A    between atoms: C_22  and  C_23
REMARK    9  A    between atoms: C_26  and  C_27
REMARK                            x       y       z     vdW  Elec       q    Type
REMARK                         _______ _______ _______ _____ _____    ______ ____
ROOT
ATOM     12  C   UNL     1       0.715   3.466   0.000  0.00  0.00    +0.205 A 
ATOM     13  N   UNL     1       1.382   2.981   0.000  0.00  0.00    -0.056 NA
ATOM     14  O   UNL     1       1.127   2.196   0.000  0.00  0.00    -0.336 OA
ATOM     15  C   UNL     1       0.302   2.196   0.000  0.00  0.00    +0.251 A 
ATOM     16  N   UNL     1       0.047   2.981   0.000  0.00  0.00    -0.190 NA
ENDROOT
BRANCH  12   9
ATOM      6  C   UNL     1       0.715   5.941   0.000  0.00  0.00    +0.225 A 
ATOM      7  C   UNL     1       1.429   5.529   0.000  0.00  0.00    +0.058 A 
ATOM      8  C   UNL     1       1.429   4.704   0.000  0.00  0.00    +0.010 A 
ATOM      9  C   UNL     1       0.715   4.291   0.000  0.00  0.00    +0.058 A 
ATOM     10  C   UNL     1       0.000   4.704   0.000  0.00  0.00    +0.105 A 
ATOM     11  N   UNL     1       0.000   5.529   0.000  0.00  0.00    -0.210 NA
BRANCH   6   5
ATOM      5  O   UNL     1       0.715   6.766   0.000  0.00  0.00    -0.457 OA
BRANCH   5   4
ATOM      4  C   UNL     1       1.429   7.179   0.000  0.00  0.00    +0.239 C 
BRANCH   4   3
ATOM      3  C   UNL     1       2.143   6.766   0.000  0.00  0.00    +0.189 C 
BRANCH   3   2
ATOM      1  C   UNL     1       3.572   6.766   0.000  0.00  0.00    +0.174 C 
ATOM      2  O   UNL     1       2.858   7.179   0.000  0.00  0.00    -0.347 OA
ENDBRANCH   3   2
ENDBRANCH   4   3
ENDBRANCH   5   4
ENDBRANCH   6   5
ENDBRANCH  12   9
BRANCH  15  17
ATOM     17  C   UNL     1      -0.183   1.529   0.000  0.00  0.00    +0.138 C 
ATOM     18  C   UNL     1       0.072   0.745   0.000  0.00  0.00    +0.027 C 
ATOM     19  C   UNL     1      -0.596   0.260   0.000  0.00  0.00    +0.019 C 
ATOM     20  C   UNL     1      -1.263   0.745   0.000  0.00  0.00    +0.073 C 
ATOM     21  N   UNL     1      -1.008   1.529   0.000  0.00  0.00    -0.260 NA
BRANCH  21  22
ATOM     22  C   UNL     1      -1.493   2.196   0.000  0.00  0.00    +0.138 C 
BRANCH  22  23
ATOM     23  C   UNL     1      -2.313   2.110   0.000  0.00  0.00    +0.139 A 
ATOM     24  C   UNL     1      -2.726   1.396   0.000  0.00  0.00    +0.037 A 
ATOM     25  C   UNL     1      -3.533   1.567   0.000  0.00  0.00    +0.038 A 
ATOM     26  C   UNL     1      -3.619   2.388   0.000  0.00  0.00    +0.156 A 
ATOM     29  O   UNL     1      -2.865   2.723   0.000  0.00  0.00    -0.458 OA
BRANCH  26  27
ATOM     27  C   UNL     1      -4.333   2.800   0.000  0.00  0.00    +0.246 C 
ATOM     28  O   UNL     1      -5.048   2.388   0.000  0.00  0.00    -0.212 OA
ENDBRANCH  26  27
ENDBRANCH  22  23
ENDBRANCH  21  22
ENDBRANCH  15  17
TORSDOF 9
