REMARK  Name = 
REMARK  6 active torsions:
REMARK  status: ('A' for Active; 'I' for Inactive)
REMARK    1  A    between atoms: O_2  and  C_3
REMARK    2  A    between atoms: C_7  and  C_9
REMARK    3  A    between atoms: N_13  and  C_14
REMARK    4  A    between atoms: C_18  and  N_22
REMARK    5  A    between atoms: C_23  and  C_25
REMARK    6  A    between atoms: C_30  and  C_31
REMARK                            x       y       z     vdW  Elec       q    Type
REMARK                         _______ _______ _______ _____ _____    ______ ____
ROOT
ATOM     14  C   UNL     1       1.270  -0.922   0.000  0.00  0.00    +0.167 C 
ATOM     15  C   UNL     1       0.785  -0.255   0.000  0.00  0.00    +0.169 C 
ATOM     16  O   UNL     1       1.270   0.412   0.000  0.00  0.00    -0.350 OA
ATOM     17  C   UNL     1       2.054   0.158   0.000  0.00  0.00    +0.167 C 
ATOM     18  C   UNL     1       2.839   0.412   0.000  0.00  0.00    +0.155 C 
ATOM     19  C   UNL     1       3.324  -0.255   0.000  0.00  0.00    +0.166 C 
ATOM     20  O   UNL     1       2.839  -0.922   0.000  0.00  0.00    -0.350 OA
ATOM     21  C   UNL     1       2.054  -0.667   0.000  0.00  0.00    +0.169 C 
ENDROOT
BRANCH  14  13
ATOM      9  C   UNL     1       1.500  -2.374   0.000  0.00  0.00    +0.184 A 
ATOM     10  N   UNL     1       1.015  -3.042   0.000  0.00  0.00    -0.108 NA
ATOM     11  N   UNL     1       0.230  -2.787   0.000  0.00  0.00    -0.023 NA
ATOM     12  N   UNL     1       0.230  -1.962   0.000  0.00  0.00    -0.043 NA
ATOM     13  N   UNL     1       1.015  -1.707   0.000  0.00  0.00    -0.210 N 
BRANCH   9   7
ATOM      3  C   UNL     1       3.562  -1.660   0.000  0.00  0.00    +0.139 A 
ATOM      4  C   UNL     1       3.974  -2.374   0.000  0.00  0.00    +0.037 A 
ATOM      5  C   UNL     1       3.562  -3.089   0.000  0.00  0.00    +0.003 A 
ATOM      6  C   UNL     1       2.737  -3.089   0.000  0.00  0.00    +0.003 A 
ATOM      7  C   UNL     1       2.325  -2.374   0.000  0.00  0.00    +0.040 A 
ATOM      8  C   UNL     1       2.737  -1.660   0.000  0.00  0.00    +0.040 A 
BRANCH   3   2
ATOM      1  C   UNL     1       4.800  -0.946   0.000  0.00  0.00    +0.252 C 
ATOM      2  O   UNL     1       3.974  -0.946   0.000  0.00  0.00    -0.471 OA
ENDBRANCH   3   2
ENDBRANCH   9   7
ENDBRANCH  14  13
BRANCH  18  22
ATOM     22  N   UNL     1       3.094   1.197   0.000  0.00  0.00    -0.198 NA
ATOM     23  C   UNL     1       2.542   1.810   0.000  0.00  0.00    +0.265 C 
ATOM     24  O   UNL     1       1.735   1.639   0.000  0.00  0.00    -0.268 OA
BRANCH  23  25
ATOM     25  C   UNL     1       2.797   2.595   0.000  0.00  0.00    +0.061 A 
ATOM     26  C   UNL     1       2.245   3.208   0.000  0.00  0.00    +0.005 A 
ATOM     27  C   UNL     1       2.499   3.993   0.000  0.00  0.00    +0.000 A 
ATOM     28  C   UNL     1       3.307   4.164   0.000  0.00  0.00    +0.000 A 
ATOM     29  C   UNL     1       3.858   3.551   0.000  0.00  0.00    +0.007 A 
ATOM     30  C   UNL     1       3.604   2.766   0.000  0.00  0.00    +0.084 A 
BRANCH  30  31
ATOM     31  C   UNL     1       4.156   2.153   0.000  0.00  0.00    +0.388 C 
ATOM     32  O   UNL     1       3.901   1.369   0.000  0.00  0.00    -0.241 OA
ATOM     33  O   UNL     1       4.963   2.325   0.000  0.00  0.00    -0.241 OA
ENDBRANCH  30  31
ENDBRANCH  23  25
ENDBRANCH  18  22
TORSDOF 6
