REMARK  Name = 
REMARK  5 active torsions:
REMARK  status: ('A' for Active; 'I' for Inactive)
REMARK    1  A    between atoms: C_2  and  N_4
REMARK    2  A    between atoms: N_7  and  C_8
REMARK    3  A    between atoms: C_8  and  C_9
REMARK    4  A    between atoms: C_12  and  N_13
REMARK    5  A    between atoms: N_13  and  C_14
REMARK                            x       y       z     vdW  Elec       q    Type
REMARK                         _______ _______ _______ _____ _____    ______ ____
ROOT
ATOM      9  C   UNL     1       9.738  -2.591   0.000  0.00  0.00    +0.169 C 
ATOM     10  O   UNL     1       9.825  -1.771   0.000  0.00  0.00    -0.350 OA
ATOM     11  C   UNL     1      10.632  -1.599   0.000  0.00  0.00    +0.162 C 
ATOM     12  C   UNL     1      11.044  -2.314   0.000  0.00  0.00    +0.135 C 
ATOM     23  C   UNL     1      10.492  -2.927   0.000  0.00  0.00    +0.199 C 
ATOM     24  O   UNL     1      10.664  -3.734   0.000  0.00  0.00    -0.219 OA
ENDROOT
BRANCH   9   8
ATOM      8  C   UNL     1       9.024  -3.004   0.000  0.00  0.00    +0.149 C 
BRANCH   8   7
ATOM      4  N   UNL     1       6.880  -2.591   0.000  0.00  0.00    -0.189 NA
ATOM      5  C   UNL     1       7.595  -3.004   0.000  0.00  0.00    +0.339 C 
ATOM      6  O   UNL     1       7.595  -3.829   0.000  0.00  0.00    -0.249 OA
ATOM      7  N   UNL     1       8.309  -2.591   0.000  0.00  0.00    -0.185 NA
BRANCH   4   2
ATOM      1  C   UNL     1       5.452  -2.591   0.000  0.00  0.00    +0.023 C 
ATOM      2  C   UNL     1       6.166  -3.004   0.000  0.00  0.00    +0.097 C 
ATOM      3  C   UNL     1       6.166  -3.829   0.000  0.00  0.00    +0.023 C 
ENDBRANCH   4   2
ENDBRANCH   8   7
ENDBRANCH   9   8
BRANCH  12  13
ATOM     13  N   UNL     1      11.864  -2.400   0.000  0.00  0.00    -0.216 NA
BRANCH  13  14
ATOM     14  C   UNL     1      12.200  -3.154   0.000  0.00  0.00    +0.076 C 
ATOM     15  C   UNL     1      13.021  -3.240   0.000  0.00  0.00    +0.039 C 
ATOM     16  C   UNL     1      13.356  -3.994   0.000  0.00  0.00    +0.095 C 
ATOM     17  N   UNL     1      12.871  -4.661   0.000  0.00  0.00    -0.279 N 
ATOM     18  C   UNL     1      12.051  -4.575   0.000  0.00  0.00    +0.095 C 
ATOM     19  C   UNL     1      11.715  -3.821   0.000  0.00  0.00    +0.039 C 
ATOM     20  C   UNL     1      13.207  -5.415   0.000  0.00  0.00    +0.226 C 
ATOM     21  C   UNL     1      14.027  -5.501   0.000  0.00  0.00    +0.095 C 
ATOM     22  O   UNL     1      12.722  -6.082   0.000  0.00  0.00    -0.275 OA
ENDBRANCH  13  14
ENDBRANCH  12  13
TORSDOF 5
