REMARK  Name = 
REMARK  6 active torsions:
REMARK  status: ('A' for Active; 'I' for Inactive)
REMARK    1  A    between atoms: N_2  and  C_4
REMARK    2  A    between atoms: C_7  and  C_10
REMARK    3  A    between atoms: N_14  and  C_15
REMARK    4  A    between atoms: C_19  and  O_23
REMARK    5  A    between atoms: O_23  and  C_24
REMARK    6  A    between atoms: N_26  and  C_27
REMARK                            x       y       z     vdW  Elec       q    Type
REMARK                         _______ _______ _______ _____ _____    ______ ____
ROOT
ATOM     15  C   UNL     1      -2.059  -4.067   0.000  0.00  0.00    +0.167 C 
ATOM     16  C   UNL     1      -1.973  -3.247   0.000  0.00  0.00    +0.169 C 
ATOM     17  O   UNL     1      -1.166  -3.075   0.000  0.00  0.00    -0.348 OA
ATOM     18  C   UNL     1      -0.754  -3.789   0.000  0.00  0.00    +0.187 C 
ATOM     19  C   UNL     1       0.000  -4.125   0.000  0.00  0.00    +0.229 C 
ATOM     20  C   UNL     1      -0.086  -4.946   0.000  0.00  0.00    +0.188 C 
ATOM     21  O   UNL     1      -0.893  -5.117   0.000  0.00  0.00    -0.348 OA
ATOM     22  C   UNL     1      -1.306  -4.402   0.000  0.00  0.00    +0.171 C 
ENDROOT
BRANCH  15  14
ATOM     10  C   UNL     1      -2.860  -5.300   0.000  0.00  0.00    +0.184 A 
ATOM     11  N   UNL     1      -3.667  -5.471   0.000  0.00  0.00    -0.108 NA
ATOM     12  N   UNL     1      -4.080  -4.757   0.000  0.00  0.00    -0.023 NA
ATOM     13  N   UNL     1      -3.527  -4.144   0.000  0.00  0.00    -0.043 NA
ATOM     14  N   UNL     1      -2.774  -4.479   0.000  0.00  0.00    -0.210 N 
BRANCH  10   7
ATOM      4  C   UNL     1      -1.021  -6.956   0.000  0.00  0.00    +0.048 A 
ATOM      5  C   UNL     1      -1.805  -7.211   0.000  0.00  0.00    +0.015 A 
ATOM      6  C   UNL     1      -2.418  -6.659   0.000  0.00  0.00    +0.004 A 
ATOM      7  C   UNL     1      -2.247  -5.852   0.000  0.00  0.00    +0.037 A 
ATOM      8  C   UNL     1      -1.462  -5.597   0.000  0.00  0.00    +0.004 A 
ATOM      9  C   UNL     1      -0.849  -6.149   0.000  0.00  0.00    +0.015 A 
BRANCH   4   2
ATOM      1  C   UNL     1       0.377  -7.253   0.000  0.00  0.00    +0.112 C 
ATOM      2  N   UNL     1      -0.408  -7.508   0.000  0.00  0.00    -0.304 N 
ATOM      3  C   UNL     1      -0.579  -8.315   0.000  0.00  0.00    +0.112 C 
ENDBRANCH   4   2
ENDBRANCH  10   7
ENDBRANCH  15  14
BRANCH  19  23
ATOM     23  O   UNL     1       0.715  -3.712   0.000  0.00  0.00    -0.432 OA
BRANCH  23  24
ATOM     24  C   UNL     1       0.715  -2.888   0.000  0.00  0.00    +0.425 C 
ATOM     25  O   UNL     1       0.000  -2.475   0.000  0.00  0.00    -0.224 OA
ATOM     26  N   UNL     1       1.429  -2.475   0.000  0.00  0.00    -0.142 NA
BRANCH  26  27
ATOM     27  C   UNL     1       1.429  -1.650   0.000  0.00  0.00    +0.077 A 
ATOM     28  C   UNL     1       0.715  -1.238   0.000  0.00  0.00    +0.017 A 
ATOM     29  C   UNL     1       0.715  -0.412   0.000  0.00  0.00    +0.001 A 
ATOM     30  C   UNL     1       1.429   0.000   0.000  0.00  0.00    +0.000 A 
ATOM     31  C   UNL     1       2.143  -0.412   0.000  0.00  0.00    +0.001 A 
ATOM     32  C   UNL     1       2.858   0.000   0.000  0.00  0.00    +0.000 A 
ATOM     33  C   UNL     1       3.572  -0.412   0.000  0.00  0.00    +0.000 A 
ATOM     34  C   UNL     1       3.572  -1.238   0.000  0.00  0.00    +0.000 A 
ATOM     35  C   UNL     1       2.858  -1.650   0.000  0.00  0.00    +0.001 A 
ATOM     36  C   UNL     1       2.143  -1.238   0.000  0.00  0.00    +0.015 A 
ENDBRANCH  26  27
ENDBRANCH  23  24
ENDBRANCH  19  23
TORSDOF 6
