REMARK  Name = 
REMARK  9 active torsions:
REMARK  status: ('A' for Active; 'I' for Inactive)
REMARK    1  A    between atoms: N_2  and  C_3
REMARK    2  A    between atoms: N_2  and  C_27
REMARK    3  A    between atoms: C_3  and  C_4
REMARK    4  A    between atoms: N_6  and  C_7
REMARK    5  A    between atoms: C_7  and  C_8
REMARK    6  A    between atoms: C_15  and  C_16
REMARK    7  A    between atoms: N_18  and  C_19
REMARK    8  A    between atoms: C_19  and  C_20
REMARK    9  A    between atoms: C_27  and  C_28
REMARK                            x       y       z     vdW  Elec       q    Type
REMARK                         _______ _______ _______ _____ _____    ______ ____
ROOT
ATOM      8  C   UNL     1       1.814  -2.106   0.000  0.00  0.00    +0.082 C 
ATOM      9  C   UNL     1       1.661  -1.343   0.000  0.00  0.00    +0.019 C 
ATOM     10  C   UNL     1       0.923  -1.010   0.000  0.00  0.00    +0.013 C 
ATOM     11  C   UNL     1       0.961  -0.114   0.000  0.00  0.00    +0.018 C 
ATOM     12  C   UNL     1       1.205  -0.720   0.000  0.00  0.00    +0.072 C 
ATOM     13  N   UNL     1       1.065  -1.759   0.000  0.00  0.00    -0.272 NA
ATOM     14  C   UNL     1       0.226  -2.118   0.000  0.00  0.00    +0.081 C 
ATOM     15  C   UNL     1       0.119  -1.362   0.000  0.00  0.00    +0.094 C 
ENDROOT
BRANCH  15  16
ATOM     16  C   UNL     1      -0.602  -0.960   0.000  0.00  0.00    +0.243 C 
ATOM     17  O   UNL     1      -0.614  -0.136   0.000  0.00  0.00    -0.273 OA
ATOM     18  N   UNL     1      -1.310  -1.384   0.000  0.00  0.00    -0.197 NA
BRANCH  18  19
ATOM     19  C   UNL     1      -2.030  -0.982   0.000  0.00  0.00    +0.179 C 
BRANCH  19  20
ATOM     20  C   UNL     1      -2.739  -1.405   0.000  0.00  0.00    +0.145 A 
ATOM     21  C   UNL     1      -2.812  -2.227   0.000  0.00  0.00    +0.038 A 
ATOM     22  C   UNL     1      -3.617  -2.410   0.000  0.00  0.00    +0.043 A 
ATOM     23  C   UNL     1      -4.040  -1.702   0.000  0.00  0.00    +0.179 A 
ATOM     24  O   UNL     1      -3.497  -1.081   0.000  0.00  0.00    -0.453 OA
ENDBRANCH  19  20
ENDBRANCH  18  19
ENDBRANCH  15  16
BRANCH   8   7
ATOM      7  C   UNL     1       2.324  -2.754   0.000  0.00  0.00    +0.145 C 
BRANCH   7   6
ATOM      4  C   UNL     1       4.456  -2.862   0.000  0.00  0.00    +0.117 A 
ATOM      5  C   UNL     1       3.716  -3.227   0.000  0.00  0.00    +0.115 A 
ATOM      6  N   UNL     1       3.141  -2.636   0.000  0.00  0.00    -0.229 N 
ATOM     25  N   UNL     1       3.525  -1.906   0.000  0.00  0.00    -0.064 NA
ATOM     26  N   UNL     1       4.338  -2.046   0.000  0.00  0.00    -0.132 NA
BRANCH   4   3
ATOM      3  C   UNL     1       5.186  -3.247   0.000  0.00  0.00    +0.122 C 
BRANCH   3   2
ATOM      1  C   UNL     1       4.520  -4.511   0.000  0.00  0.00    +0.090 C 
ATOM      2  N   UNL     1       5.218  -4.071   0.000  0.00  0.00    -0.263 NA
BRANCH   2  27
ATOM     27  C   UNL     1       5.948  -4.456   0.000  0.00  0.00    +0.099 C 
BRANCH  27  28
ATOM     28  C   UNL     1       6.646  -4.016   0.000  0.00  0.00    -0.006 A 
ATOM     29  C   UNL     1       6.614  -3.191   0.000  0.00  0.00    -0.003 A 
ATOM     30  C   UNL     1       7.312  -2.752   0.000  0.00  0.00    -0.000 A 
ATOM     31  C   UNL     1       8.042  -3.136   0.000  0.00  0.00    -0.000 A 
ATOM     32  C   UNL     1       8.074  -3.960   0.000  0.00  0.00    -0.000 A 
ATOM     33  C   UNL     1       7.376  -4.400   0.000  0.00  0.00    -0.003 A 
ENDBRANCH  27  28
ENDBRANCH   2  27
ENDBRANCH   3   2
ENDBRANCH   4   3
ENDBRANCH   7   6
ENDBRANCH   8   7
TORSDOF 9
