REMARK  Name = 
REMARK  7 active torsions:
REMARK  status: ('A' for Active; 'I' for Inactive)
REMARK    1  A    between atoms: C_3  and  N_18
REMARK    2  A    between atoms: C_6  and  C_7
REMARK    3  A    between atoms: C_7  and  N_8
REMARK    4  A    between atoms: N_8  and  S_9
REMARK    5  A    between atoms: S_9  and  C_12
REMARK    6  A    between atoms: N_18  and  C_19
REMARK    7  A    between atoms: C_19  and  C_20
REMARK                            x       y       z     vdW  Elec       q    Type
REMARK                         _______ _______ _______ _____ _____    ______ ____
ROOT
ATOM      1  O   UNL     1       1.429  -1.650   0.000  0.00  0.00    -0.219 OA
ATOM      2  C   UNL     1       1.429  -2.475   0.000  0.00  0.00    +0.199 C 
ATOM      3  C   UNL     1       2.096  -2.960   0.000  0.00  0.00    +0.135 C 
ATOM      4  C   UNL     1       1.841  -3.744   0.000  0.00  0.00    +0.162 C 
ATOM      5  O   UNL     1       1.016  -3.744   0.000  0.00  0.00    -0.350 OA
ATOM      6  C   UNL     1       0.761  -2.960   0.000  0.00  0.00    +0.166 C 
ENDROOT
BRANCH   6   7
ATOM      7  C   UNL     1      -0.023  -2.705   0.000  0.00  0.00    +0.148 C 
BRANCH   7   8
ATOM      8  N   UNL     1      -0.636  -3.257   0.000  0.00  0.00    -0.075 NA
BRANCH   8   9
ATOM      9  S   UNL     1      -1.421  -3.002   0.000  0.00  0.00    +0.077 S 
ATOM     10  O   UNL     1      -1.676  -3.787   0.000  0.00  0.00    -0.152 OA
ATOM     11  O   UNL     1      -1.166  -2.217   0.000  0.00  0.00    -0.152 OA
BRANCH   9  12
ATOM     12  C   UNL     1      -2.205  -2.747   0.000  0.00  0.00    +0.124 A 
ATOM     13  C   UNL     1      -2.819  -3.299   0.000  0.00  0.00    +0.020 A 
ATOM     14  C   UNL     1      -3.603  -3.044   0.000  0.00  0.00    +0.001 A 
ATOM     15  C   UNL     1      -3.775  -2.237   0.000  0.00  0.00    +0.000 A 
ATOM     16  C   UNL     1      -3.162  -1.685   0.000  0.00  0.00    +0.001 A 
ATOM     17  C   UNL     1      -2.377  -1.940   0.000  0.00  0.00    +0.020 A 
ENDBRANCH   9  12
ENDBRANCH   8   9
ENDBRANCH   7   8
ENDBRANCH   6   7
BRANCH   3  18
ATOM     18  N   UNL     1       2.881  -2.705   0.000  0.00  0.00    -0.209 NA
BRANCH  18  19
ATOM     19  C   UNL     1       3.053  -1.898   0.000  0.00  0.00    +0.117 C 
BRANCH  19  20
ATOM     20  C   UNL     1       3.837  -1.643   0.000  0.00  0.00    +0.023 A 
ATOM     21  C   UNL     1       4.009  -0.836   0.000  0.00  0.00    -0.001 A 
ATOM     22  C   UNL     1       4.793  -0.581   0.000  0.00  0.00    -0.000 A 
ATOM     23  C   UNL     1       5.406  -1.133   0.000  0.00  0.00    +0.002 A 
ATOM     24  C   UNL     1       5.235  -1.940   0.000  0.00  0.00    +0.029 A 
ATOM     25  C   UNL     1       4.450  -2.195   0.000  0.00  0.00    +0.137 A 
ATOM     26  F   UNL     1       4.279  -3.002   0.000  0.00  0.00    -0.204 F 
ENDBRANCH  19  20
ENDBRANCH  18  19
ENDBRANCH   3  18
TORSDOF 7
