REMARK  Name = 
REMARK  5 active torsions:
REMARK  status: ('A' for Active; 'I' for Inactive)
REMARK    1  A    between atoms: C_5  and  N_8
REMARK    2  A    between atoms: C_19  and  C_21
REMARK    3  A    between atoms: C_21  and  C_22
REMARK    4  A    between atoms: C_22  and  C_23
REMARK    5  A    between atoms: C_23  and  C_24
REMARK                            x       y       z     vdW  Elec       q    Type
REMARK                         _______ _______ _______ _____ _____    ______ ____
ROOT
ATOM      8  N   UNL     1       3.352   1.935   0.000  0.00  0.00    -0.190 N 
ATOM      9  C   UNL     1       3.352   1.110   0.000  0.00  0.00    +0.333 C 
ATOM     10  O   UNL     1       4.067   0.698   0.000  0.00  0.00    -0.250 OA
ATOM     11  N   UNL     1       2.638   0.698   0.000  0.00  0.00    -0.187 NA
ATOM     12  C   UNL     1       1.923   1.110   0.000  0.00  0.00    +0.126 C 
ATOM     13  C   UNL     1       1.139   0.856   0.000  0.00  0.00    +0.045 C 
ATOM     14  C   UNL     1       0.654   1.523   0.000  0.00  0.00    +0.096 C 
ATOM     15  N   UNL     1       1.139   2.190   0.000  0.00  0.00    -0.272 N 
ATOM     16  C   UNL     1       1.923   1.935   0.000  0.00  0.00    +0.173 C 
ATOM     17  C   UNL     1       2.638   2.348   0.000  0.00  0.00    +0.256 C 
ATOM     18  O   UNL     1       2.638   3.173   0.000  0.00  0.00    -0.272 OA
ATOM     19  C   UNL     1       0.884   2.975   0.000  0.00  0.00    +0.226 C 
ATOM     20  O   UNL     1       0.077   3.147   0.000  0.00  0.00    -0.275 OA
ENDROOT
BRANCH   8   5
ATOM      1  C   UNL     1       6.210   3.585   0.000  0.00  0.00    +0.031 C 
ATOM      2  C   UNL     1       5.496   3.173   0.000  0.00  0.00    -0.022 A 
ATOM      3  C   UNL     1       5.496   2.348   0.000  0.00  0.00    -0.003 A 
ATOM      4  C   UNL     1       4.781   1.935   0.000  0.00  0.00    +0.015 A 
ATOM      5  C   UNL     1       4.067   2.348   0.000  0.00  0.00    +0.062 A 
ATOM      6  C   UNL     1       4.067   3.173   0.000  0.00  0.00    +0.015 A 
ATOM      7  C   UNL     1       4.781   3.585   0.000  0.00  0.00    -0.003 A 
ENDBRANCH   8   5
BRANCH  19  21
ATOM     21  C   UNL     1       1.436   3.588   0.000  0.00  0.00    +0.086 C 
BRANCH  21  22
ATOM     22  C   UNL     1       1.181   4.373   0.000  0.00  0.00    +0.019 C 
ATOM     27  C   UNL     1       0.427   4.037   0.000  0.00  0.00    +0.001 C 
ATOM     28  C   UNL     1      -0.125   4.650   0.000  0.00  0.00    +0.000 C 
ATOM     29  C   UNL     1       0.288   5.365   0.000  0.00  0.00    +0.000 C 
ATOM     30  C   UNL     1       1.095   5.193   0.000  0.00  0.00    +0.001 C 
BRANCH  22  23
ATOM     23  C   UNL     1       1.988   4.544   0.000  0.00  0.00    +0.115 C 
BRANCH  23  24
ATOM     24  C   UNL     1       2.243   5.329   0.000  0.00  0.00    +0.365 C 
ATOM     25  O   UNL     1       3.050   5.500   0.000  0.00  0.00    -0.246 OA
ATOM     26  O   UNL     1       1.691   5.942   0.000  0.00  0.00    -0.246 OA
ENDBRANCH  23  24
ENDBRANCH  22  23
ENDBRANCH  21  22
ENDBRANCH  19  21
TORSDOF 5
