REMARK  Name = 
REMARK  9 active torsions:
REMARK  status: ('A' for Active; 'I' for Inactive)
REMARK    1  A    between atoms: C_2  and  C_4
REMARK    2  A    between atoms: C_6  and  C_7
REMARK    3  A    between atoms: C_7  and  C_8
REMARK    4  A    between atoms: N_10  and  C_12
REMARK    5  A    between atoms: C_12  and  C_13
REMARK    6  A    between atoms: C_22  and  C_23
REMARK    7  A    between atoms: C_23  and  N_24
REMARK    8  A    between atoms: C_25  and  C_27
REMARK    9  A    between atoms: C_30  and  N_31
REMARK                            x       y       z     vdW  Elec       q    Type
REMARK                         _______ _______ _______ _____ _____    ______ ____
ROOT
ATOM      4  C   UNL     1      -5.001  -3.712   0.000  0.00  0.00    +0.006 C 
ATOM      5  C   UNL     1      -4.287  -3.300   0.000  0.00  0.00    +0.005 C 
ATOM      6  C   UNL     1      -3.572  -3.712   0.000  0.00  0.00    +0.027 C 
ATOM     19  C   UNL     1      -3.572  -4.537   0.000  0.00  0.00    -0.048 C 
ATOM     20  C   UNL     1      -2.858  -4.950   0.000  0.00  0.00    +0.026 C 
ATOM     21  C   UNL     1      -4.287  -4.950   0.000  0.00  0.00    -0.033 C 
ATOM     22  C   UNL     1      -5.001  -4.537   0.000  0.00  0.00    +0.043 C 
ENDROOT
BRANCH   4   2
ATOM      1  C   UNL     1      -6.430  -3.712   0.000  0.00  0.00    +0.000 C 
ATOM      2  C   UNL     1      -5.716  -3.300   0.000  0.00  0.00    +0.000 C 
ATOM      3  C   UNL     1      -5.716  -2.475   0.000  0.00  0.00    +0.000 C 
ENDBRANCH   4   2
BRANCH   6   7
ATOM      7  C   UNL     1      -2.858  -3.300   0.000  0.00  0.00    +0.089 C 
BRANCH   7   8
ATOM      8  C   UNL     1      -2.143  -3.712   0.000  0.00  0.00    +0.226 C 
ATOM      9  O   UNL     1      -2.143  -4.537   0.000  0.00  0.00    -0.275 OA
ATOM     10  N   UNL     1      -1.429  -3.300   0.000  0.00  0.00    -0.274 N 
ATOM     11  C   UNL     1      -1.429  -2.475   0.000  0.00  0.00    +0.115 C 
BRANCH  10  12
ATOM     12  C   UNL     1      -0.715  -3.712   0.000  0.00  0.00    +0.120 C 
BRANCH  12  13
ATOM     13  C   UNL     1       0.000  -3.300   0.000  0.00  0.00    -0.002 A 
ATOM     14  C   UNL     1       0.000  -2.475   0.000  0.00  0.00    -0.003 A 
ATOM     15  C   UNL     1       0.715  -2.062   0.000  0.00  0.00    -0.000 A 
ATOM     16  C   UNL     1       1.429  -2.475   0.000  0.00  0.00    -0.000 A 
ATOM     17  C   UNL     1       1.429  -3.300   0.000  0.00  0.00    -0.000 A 
ATOM     18  C   UNL     1       0.715  -3.712   0.000  0.00  0.00    -0.003 A 
ENDBRANCH  12  13
ENDBRANCH  10  12
ENDBRANCH   7   8
ENDBRANCH   6   7
BRANCH  22  23
ATOM     23  C   UNL     1      -5.716  -4.950   0.000  0.00  0.00    +0.120 C 
BRANCH  23  24
ATOM     24  N   UNL     1      -5.716  -5.775   0.000  0.00  0.00    -0.201 NA
ATOM     25  C   UNL     1      -5.001  -6.188   0.000  0.00  0.00    +0.265 C 
ATOM     26  O   UNL     1      -4.287  -5.775   0.000  0.00  0.00    -0.268 OA
BRANCH  25  27
ATOM     27  C   UNL     1      -5.001  -7.013   0.000  0.00  0.00    +0.055 A 
ATOM     28  C   UNL     1      -4.287  -7.425   0.000  0.00  0.00    +0.006 A 
ATOM     29  C   UNL     1      -4.287  -8.250   0.000  0.00  0.00    +0.017 A 
ATOM     30  C   UNL     1      -5.001  -8.662   0.000  0.00  0.00    +0.073 A 
ATOM     35  C   UNL     1      -5.716  -8.250   0.000  0.00  0.00    +0.017 A 
ATOM     36  C   UNL     1      -5.716  -7.425   0.000  0.00  0.00    +0.006 A 
BRANCH  30  31
ATOM     31  N   UNL     1      -5.001  -9.488   0.000  0.00  0.00    -0.179 NA
ATOM     32  C   UNL     1      -5.716  -9.900   0.000  0.00  0.00    +0.246 C 
ATOM     33  C   UNL     1      -5.716 -10.725   0.000  0.00  0.00    +0.097 C 
ATOM     34  O   UNL     1      -6.430  -9.488   0.000  0.00  0.00    -0.273 OA
ENDBRANCH  30  31
ENDBRANCH  25  27
ENDBRANCH  23  24
ENDBRANCH  22  23
TORSDOF 9
