REMARK  Name = 
REMARK  5 active torsions:
REMARK  status: ('A' for Active; 'I' for Inactive)
REMARK    1  A    between atoms: C_4  and  O_5
REMARK    2  A    between atoms: O_5  and  C_6
REMARK    3  A    between atoms: C_13  and  C_15
REMARK    4  A    between atoms: C_15  and  O_16
REMARK    5  A    between atoms: O_16  and  C_17
REMARK                            x       y       z     vdW  Elec       q    Type
REMARK                         _______ _______ _______ _____ _____    ______ ____
ROOT
ATOM      6  C   UNL     1       1.028  -2.217   0.000  0.00  0.00    +0.217 C 
ATOM      7  C   UNL     1       0.967  -1.395   0.000  0.00  0.00    +0.187 C 
ATOM      8  O   UNL     1       1.571  -0.834   0.000  0.00  0.00    -0.348 OA
ATOM      9  C   UNL     1       2.387  -0.957   0.000  0.00  0.00    +0.164 C 
ATOM     10  C   UNL     1       2.800  -1.671   0.000  0.00  0.00    +0.126 C 
ATOM     11  N   UNL     1       2.498  -2.439   0.000  0.00  0.00    -0.270 N 
ATOM     12  C   UNL     1       1.710  -2.682   0.000  0.00  0.00    +0.140 C 
ATOM     13  C   UNL     1       3.059  -3.044   0.000  0.00  0.00    +0.270 C 
ATOM     14  O   UNL     1       3.864  -2.860   0.000  0.00  0.00    -0.271 OA
ENDROOT
BRANCH   6   5
ATOM      5  O   UNL     1       0.314  -2.630   0.000  0.00  0.00    -0.460 OA
BRANCH   5   4
ATOM      1  C   UNL     1      -1.115  -0.155   0.000  0.00  0.00    +0.052 C 
ATOM      2  C   UNL     1      -1.115  -0.980   0.000  0.00  0.00    +0.062 A 
ATOM      3  N   UNL     1      -0.401  -1.393   0.000  0.00  0.00    -0.216 NA
ATOM      4  C   UNL     1      -0.401  -2.217   0.000  0.00  0.00    +0.225 A 
ATOM     23  C   UNL     1      -1.115  -2.630   0.000  0.00  0.00    +0.058 A 
ATOM     24  C   UNL     1      -1.830  -2.217   0.000  0.00  0.00    +0.006 A 
ATOM     25  C   UNL     1      -1.830  -1.393   0.000  0.00  0.00    +0.015 A 
ENDBRANCH   5   4
ENDBRANCH   6   5
BRANCH  13  15
ATOM     15  C   UNL     1       2.816  -3.832   0.000  0.00  0.00    +0.290 C 
BRANCH  15  16
ATOM     16  O   UNL     1       3.377  -4.437   0.000  0.00  0.00    -0.466 OA
BRANCH  16  17
ATOM     17  C   UNL     1       3.134  -5.225   0.000  0.00  0.00    +0.139 A 
ATOM     18  C   UNL     1       3.695  -5.830   0.000  0.00  0.00    +0.037 A 
ATOM     19  C   UNL     1       3.452  -6.619   0.000  0.00  0.00    +0.003 A 
ATOM     20  C   UNL     1       2.648  -6.802   0.000  0.00  0.00    +0.000 A 
ATOM     21  C   UNL     1       2.087  -6.197   0.000  0.00  0.00    +0.003 A 
ATOM     22  C   UNL     1       2.330  -5.409   0.000  0.00  0.00    +0.037 A 
ENDBRANCH  16  17
ENDBRANCH  15  16
ENDBRANCH  13  15
TORSDOF 5
