REMARK  Name = 
REMARK  6 active torsions:
REMARK  status: ('A' for Active; 'I' for Inactive)
REMARK    1  A    between atoms: C_2  and  N_3
REMARK    2  A    between atoms: N_6  and  C_7
REMARK    3  A    between atoms: C_14  and  C_15
REMARK    4  A    between atoms: C_15  and  C_17
REMARK    5  A    between atoms: N_19  and  C_20
REMARK    6  A    between atoms: C_20  and  C_21
REMARK                            x       y       z     vdW  Elec       q    Type
REMARK                         _______ _______ _______ _____ _____    ______ ____
ROOT
ATOM      7  C   UNL     1      -4.287   2.475   0.000  0.00  0.00    +0.097 C 
ATOM      8  C   UNL     1      -4.287   3.300   0.000  0.00  0.00    +0.022 C 
ATOM      9  C   UNL     1      -3.572   3.712   0.000  0.00  0.00    +0.002 C 
ATOM     10  C   UNL     1      -2.858   3.300   0.000  0.00  0.00    +0.002 C 
ATOM     11  C   UNL     1      -2.858   4.125   0.000  0.00  0.00    +0.000 C 
ATOM     12  C   UNL     1      -2.143   3.712   0.000  0.00  0.00    +0.000 C 
ATOM     13  C   UNL     1      -1.429   3.300   0.000  0.00  0.00    +0.003 C 
ATOM     14  C   UNL     1      -1.429   2.475   0.000  0.00  0.00    +0.039 C 
ATOM     29  C   UNL     1      -2.143   2.062   0.000  0.00  0.00    +0.152 C 
ATOM     30  O   UNL     1      -2.143   1.238   0.000  0.00  0.00    -0.223 OA
ATOM     31  C   UNL     1      -2.858   2.475   0.000  0.00  0.00    +0.032 C 
ATOM     32  C   UNL     1      -3.572   2.062   0.000  0.00  0.00    +0.023 C 
ATOM     33  C   UNL     1      -3.572   1.238   0.000  0.00  0.00    +0.002 C 
ENDROOT
BRANCH   7   6
ATOM      3  N   UNL     1      -6.430   2.062   0.000  0.00  0.00    -0.187 NA
ATOM      4  C   UNL     1      -5.716   2.475   0.000  0.00  0.00    +0.339 C 
ATOM      5  O   UNL     1      -5.716   3.300   0.000  0.00  0.00    -0.249 OA
ATOM      6  N   UNL     1      -5.001   2.062   0.000  0.00  0.00    -0.189 NA
BRANCH   3   2
ATOM      1  C   UNL     1      -7.859   2.062   0.000  0.00  0.00    +0.025 C 
ATOM      2  C   UNL     1      -7.145   2.475   0.000  0.00  0.00    +0.117 C 
ENDBRANCH   3   2
ENDBRANCH   7   6
BRANCH  14  15
ATOM     15  C   UNL     1      -0.715   2.062   0.000  0.00  0.00    +0.081 C 
ATOM     16  C   UNL     1      -0.715   1.238   0.000  0.00  0.00    +0.010 C 
BRANCH  15  17
ATOM     17  C   UNL     1       0.000   2.475   0.000  0.00  0.00    +0.241 C 
ATOM     18  O   UNL     1       0.000   3.300   0.000  0.00  0.00    -0.273 OA
ATOM     19  N   UNL     1       0.715   2.062   0.000  0.00  0.00    -0.201 NA
BRANCH  19  20
ATOM     20  C   UNL     1       1.429   2.475   0.000  0.00  0.00    +0.142 C 
BRANCH  20  21
ATOM     21  C   UNL     1       2.143   2.062   0.000  0.00  0.00    +0.004 A 
ATOM     22  C   UNL     1       2.858   2.475   0.000  0.00  0.00    +0.027 A 
ATOM     23  C   UNL     1       3.572   2.062   0.000  0.00  0.00    +0.142 A 
ATOM     24  F   UNL     1       4.287   2.475   0.000  0.00  0.00    -0.204 F 
ATOM     25  C   UNL     1       3.572   1.238   0.000  0.00  0.00    +0.059 A 
ATOM     26  C   UNL     1       2.858   0.825   0.000  0.00  0.00    +0.142 A 
ATOM     27  F   UNL     1       2.858   0.000   0.000  0.00  0.00    -0.204 F 
ATOM     28  C   UNL     1       2.143   1.238   0.000  0.00  0.00    +0.027 A 
ENDBRANCH  20  21
ENDBRANCH  19  20
ENDBRANCH  15  17
ENDBRANCH  14  15
TORSDOF 6
