REMARK  Name = 
REMARK  5 active torsions:
REMARK  status: ('A' for Active; 'I' for Inactive)
REMARK    1  A    between atoms: C_2  and  N_3
REMARK    2  A    between atoms: N_6  and  C_7
REMARK    3  A    between atoms: C_11  and  N_15
REMARK    4  A    between atoms: C_18  and  C_22
REMARK    5  A    between atoms: C_25  and  O_26
REMARK                            x       y       z     vdW  Elec       q    Type
REMARK                         _______ _______ _______ _____ _____    ______ ____
ROOT
ATOM     15  N   UNL     1       3.094   1.197   0.000  0.00  0.00    -0.200 NA
ATOM     16  C   UNL     1       3.901   1.369   0.000  0.00  0.00    +0.237 A 
ATOM     17  N   UNL     1       4.156   2.153   0.000  0.00  0.00    -0.212 NA
ATOM     18  C   UNL     1       4.963   2.325   0.000  0.00  0.00    +0.086 A 
ATOM     19  C   UNL     1       5.515   1.712   0.000  0.00  0.00    +0.040 A 
ATOM     20  C   UNL     1       5.260   0.927   0.000  0.00  0.00    +0.103 A 
ATOM     21  N   UNL     1       4.453   0.756   0.000  0.00  0.00    -0.211 NA
ENDROOT
BRANCH  15  11
ATOM      7  C   UNL     1       1.270  -0.922   0.000  0.00  0.00    +0.156 C 
ATOM      8  C   UNL     1       0.785  -0.255   0.000  0.00  0.00    +0.166 C 
ATOM      9  O   UNL     1       1.270   0.412   0.000  0.00  0.00    -0.350 OA
ATOM     10  C   UNL     1       2.054   0.158   0.000  0.00  0.00    +0.166 C 
ATOM     11  C   UNL     1       2.839   0.412   0.000  0.00  0.00    +0.154 C 
ATOM     12  C   UNL     1       3.324  -0.255   0.000  0.00  0.00    +0.166 C 
ATOM     13  O   UNL     1       2.839  -0.922   0.000  0.00  0.00    -0.350 OA
ATOM     14  C   UNL     1       2.054  -0.667   0.000  0.00  0.00    +0.166 C 
BRANCH   7   6
ATOM      3  N   UNL     1      -0.047  -2.663   0.000  0.00  0.00    -0.187 NA
ATOM      4  C   UNL     1       0.208  -1.879   0.000  0.00  0.00    +0.339 C 
ATOM      5  O   UNL     1      -0.344  -1.265   0.000  0.00  0.00    -0.249 OA
ATOM      6  N   UNL     1       1.015  -1.707   0.000  0.00  0.00    -0.184 NA
BRANCH   3   2
ATOM      1  C   UNL     1      -1.109  -3.619   0.000  0.00  0.00    +0.025 C 
ATOM      2  C   UNL     1      -0.854  -2.835   0.000  0.00  0.00    +0.117 C 
ENDBRANCH   3   2
ENDBRANCH   7   6
ENDBRANCH  15  11
BRANCH  18  22
ATOM     22  C   UNL     1       5.218   3.109   0.000  0.00  0.00    +0.018 A 
ATOM     23  C   UNL     1       4.665   3.723   0.000  0.00  0.00    +0.005 A 
ATOM     24  C   UNL     1       4.920   4.507   0.000  0.00  0.00    +0.037 A 
ATOM     25  C   UNL     1       5.727   4.679   0.000  0.00  0.00    +0.139 A 
ATOM     28  C   UNL     1       6.279   4.066   0.000  0.00  0.00    +0.037 A 
ATOM     29  C   UNL     1       6.024   3.281   0.000  0.00  0.00    +0.005 A 
BRANCH  25  26
ATOM     26  O   UNL     1       5.982   5.463   0.000  0.00  0.00    -0.471 OA
ATOM     27  C   UNL     1       5.430   6.076   0.000  0.00  0.00    +0.252 C 
ENDBRANCH  25  26
ENDBRANCH  18  22
TORSDOF 5
