REMARK  Name = 
REMARK  9 active torsions:
REMARK  status: ('A' for Active; 'I' for Inactive)
REMARK    1  A    between atoms: O_2  and  C_3
REMARK    2  A    between atoms: C_6  and  S_9
REMARK    3  A    between atoms: S_9  and  N_12
REMARK    4  A    between atoms: N_12  and  C_13
REMARK    5  A    between atoms: C_18  and  C_19
REMARK    6  A    between atoms: C_19  and  C_20
REMARK    7  A    between atoms: C_20  and  C_21
REMARK    8  A    between atoms: N_23  and  C_24
REMARK    9  A    between atoms: C_24  and  C_25
REMARK                            x       y       z     vdW  Elec       q    Type
REMARK                         _______ _______ _______ _____ _____    ______ ____
ROOT
ATOM     13  C   UNL     1      -3.135   2.131   0.000  0.00  0.00    +0.115 C 
ATOM     14  C   UNL     1      -3.471   1.377   0.000  0.00  0.00    +0.046 C 
ATOM     15  C   UNL     1      -2.858   0.825   0.000  0.00  0.00    +0.138 C 
ATOM     16  N   UNL     1      -2.143   1.238   0.000  0.00  0.00    -0.265 NA
ATOM     17  C   UNL     1      -2.315   2.045   0.000  0.00  0.00    +0.092 C 
ATOM     18  C   UNL     1      -1.429   0.825   0.000  0.00  0.00    +0.080 C 
ATOM     31  C   UNL     1      -1.429   0.000   0.000  0.00  0.00    +0.131 C 
ATOM     32  N   UNL     1      -2.143  -0.412   0.000  0.00  0.00    -0.203 NA
ATOM     33  C   UNL     1      -2.858   0.000   0.000  0.00  0.00    +0.256 C 
ATOM     34  O   UNL     1      -3.572  -0.412   0.000  0.00  0.00    -0.272 OA
ENDROOT
BRANCH  13  12
ATOM     12  N   UNL     1      -3.548   2.845   0.000  0.00  0.00    -0.078 NA
BRANCH  12   9
ATOM      9  S   UNL     1      -4.373   2.845   0.000  0.00  0.00    +0.077 S 
ATOM     10  O   UNL     1      -4.373   2.020   0.000  0.00  0.00    -0.152 OA
ATOM     11  O   UNL     1      -4.373   3.670   0.000  0.00  0.00    -0.152 OA
BRANCH   9   6
ATOM      3  C   UNL     1      -6.848   2.845   0.000  0.00  0.00    +0.139 A 
ATOM      4  C   UNL     1      -6.435   3.560   0.000  0.00  0.00    +0.038 A 
ATOM      5  C   UNL     1      -5.610   3.560   0.000  0.00  0.00    +0.023 A 
ATOM      6  C   UNL     1      -5.198   2.845   0.000  0.00  0.00    +0.124 A 
ATOM      7  C   UNL     1      -5.610   2.131   0.000  0.00  0.00    +0.023 A 
ATOM      8  C   UNL     1      -6.435   2.131   0.000  0.00  0.00    +0.038 A 
BRANCH   3   2
ATOM      1  C   UNL     1      -8.085   2.131   0.000  0.00  0.00    +0.252 C 
ATOM      2  O   UNL     1      -7.673   2.845   0.000  0.00  0.00    -0.471 OA
ENDBRANCH   3   2
ENDBRANCH   9   6
ENDBRANCH  12   9
ENDBRANCH  13  12
BRANCH  18  19
ATOM     19  C   UNL     1      -0.715   1.238   0.000  0.00  0.00    +0.027 C 
BRANCH  19  20
ATOM     20  C   UNL     1       0.000   0.825   0.000  0.00  0.00    +0.088 C 
BRANCH  20  21
ATOM     21  C   UNL     1       0.715   1.238   0.000  0.00  0.00    +0.242 C 
ATOM     22  O   UNL     1       0.715   2.062   0.000  0.00  0.00    -0.273 OA
ATOM     23  N   UNL     1       1.429   0.825   0.000  0.00  0.00    -0.201 NA
BRANCH  23  24
ATOM     24  C   UNL     1       2.143   1.238   0.000  0.00  0.00    +0.141 C 
BRANCH  24  25
ATOM     25  C   UNL     1       2.858   0.825   0.000  0.00  0.00    -0.001 A 
ATOM     26  C   UNL     1       3.572   1.238   0.000  0.00  0.00    -0.003 A 
ATOM     27  C   UNL     1       4.287   0.825   0.000  0.00  0.00    -0.000 A 
ATOM     28  C   UNL     1       4.287   0.000   0.000  0.00  0.00    -0.000 A 
ATOM     29  C   UNL     1       3.572  -0.412   0.000  0.00  0.00    -0.000 A 
ATOM     30  C   UNL     1       2.858   0.000   0.000  0.00  0.00    -0.003 A 
ENDBRANCH  24  25
ENDBRANCH  23  24
ENDBRANCH  20  21
ENDBRANCH  19  20
ENDBRANCH  18  19
TORSDOF 9
