REMARK  Name = 
REMARK  3 active torsions:
REMARK  status: ('A' for Active; 'I' for Inactive)
REMARK    1  A    between atoms: C_3  and  C_4
REMARK    2  A    between atoms: N_6  and  C_7
REMARK    3  A    between atoms: C_13  and  C_14
REMARK                            x       y       z     vdW  Elec       q    Type
REMARK                         _______ _______ _______ _____ _____    ______ ____
ROOT
ATOM      7  C   UNL     1       7.082  -1.373   0.000  0.00  0.00    +0.133 C 
ATOM      8  C   UNL     1       7.336  -0.588   0.000  0.00  0.00    +0.202 C 
ATOM      9  O   UNL     1       6.851   0.079   0.000  0.00  0.00    -0.219 OA
ATOM     10  C   UNL     1       8.161  -0.588   0.000  0.00  0.00    +0.184 C 
ATOM     11  O   UNL     1       8.646   0.079   0.000  0.00  0.00    -0.220 OA
ATOM     12  C   UNL     1       8.416  -1.373   0.000  0.00  0.00    +0.042 C 
ATOM     13  C   UNL     1       7.749  -1.858   0.000  0.00  0.00    +0.049 C 
ENDROOT
BRANCH  13  14
ATOM     14  C   UNL     1       7.749  -2.683   0.000  0.00  0.00    -0.002 A 
ATOM     15  C   UNL     1       8.463  -3.095   0.000  0.00  0.00    -0.001 A 
ATOM     16  C   UNL     1       8.463  -3.920   0.000  0.00  0.00    +0.020 A 
ATOM     17  C   UNL     1       7.749  -4.333   0.000  0.00  0.00    +0.099 A 
ATOM     18  N   UNL     1       7.034  -3.920   0.000  0.00  0.00    -0.243 NA
ATOM     19  C   UNL     1       7.034  -3.095   0.000  0.00  0.00    +0.095 A 
ENDBRANCH  13  14
BRANCH   7   6
ATOM      4  C   UNL     1       5.684  -1.076   0.000  0.00  0.00    +0.269 C 
ATOM      5  O   UNL     1       5.855  -0.269   0.000  0.00  0.00    -0.268 OA
ATOM      6  N   UNL     1       6.297  -1.628   0.000  0.00  0.00    -0.200 NA
BRANCH   4   3
ATOM      1  C   UNL     1       4.232  -0.021   0.000  0.00  0.00    +0.076 C 
ATOM      2  C   UNL     1       4.232  -0.846   0.000  0.00  0.00    +0.159 A 
ATOM      3  C   UNL     1       4.899  -1.331   0.000  0.00  0.00    +0.105 A 
ATOM     20  C   UNL     1       4.644  -2.115   0.000  0.00  0.00    +0.105 A 
ATOM     21  C   UNL     1       5.129  -2.783   0.000  0.00  0.00    +0.056 C 
ATOM     22  N   UNL     1       3.819  -2.115   0.000  0.00  0.00    -0.082 NA
ATOM     23  O   UNL     1       3.564  -1.331   0.000  0.00  0.00    -0.358 OA
ENDBRANCH   4   3
ENDBRANCH   7   6
TORSDOF 3
