REMARK  Name = 
REMARK  5 active torsions:
REMARK  status: ('A' for Active; 'I' for Inactive)
REMARK    1  A    between atoms: C_3  and  S_8
REMARK    2  A    between atoms: S_8  and  N_11
REMARK    3  A    between atoms: C_16  and  O_18
REMARK    4  A    between atoms: O_18  and  C_19
REMARK    5  A    between atoms: C_22  and  C_25
REMARK                            x       y       z     vdW  Elec       q    Type
REMARK                         _______ _______ _______ _____ _____    ______ ____
ROOT
ATOM     11  N   UNL     1       2.358  -2.080   0.000  0.00  0.00    -0.149 NA
ATOM     12  C   UNL     1       2.469  -1.263   0.000  0.00  0.00    +0.128 C 
ATOM     13  C   UNL     1       3.177  -0.840   0.000  0.00  0.00    +0.161 C 
ATOM     14  O   UNL     1       3.950  -1.130   0.000  0.00  0.00    -0.348 OA
ATOM     15  C   UNL     1       4.205  -1.914   0.000  0.00  0.00    +0.187 C 
ATOM     16  C   UNL     1       3.750  -2.603   0.000  0.00  0.00    +0.215 C 
ATOM     17  C   UNL     1       2.929  -2.677   0.000  0.00  0.00    +0.142 C 
ENDROOT
BRANCH  11   8
ATOM      8  S   UNL     1       1.574  -2.335   0.000  0.00  0.00    +0.067 S 
ATOM      9  O   UNL     1       1.829  -3.120   0.000  0.00  0.00    -0.153 OA
ATOM     10  O   UNL     1       1.319  -1.551   0.000  0.00  0.00    -0.153 OA
BRANCH   8   3
ATOM      1  C   UNL     1       0.122  -1.280   0.000  0.00  0.00    +0.077 C 
ATOM      2  C   UNL     1       0.122  -2.105   0.000  0.00  0.00    +0.173 A 
ATOM      3  C   UNL     1       0.789  -2.590   0.000  0.00  0.00    +0.171 A 
ATOM      4  C   UNL     1       0.534  -3.375   0.000  0.00  0.00    +0.119 A 
ATOM      5  C   UNL     1       1.019  -4.042   0.000  0.00  0.00    +0.057 C 
ATOM      6  N   UNL     1      -0.291  -3.375   0.000  0.00  0.00    -0.080 NA
ATOM      7  O   UNL     1      -0.546  -2.590   0.000  0.00  0.00    -0.357 OA
ENDBRANCH   8   3
ENDBRANCH  11   8
BRANCH  16  18
ATOM     18  O   UNL     1       4.173  -3.311   0.000  0.00  0.00    -0.460 OA
BRANCH  18  19
ATOM     19  C   UNL     1       3.772  -4.032   0.000  0.00  0.00    +0.225 A 
ATOM     20  C   UNL     1       4.195  -4.740   0.000  0.00  0.00    +0.058 A 
ATOM     21  C   UNL     1       3.793  -5.460   0.000  0.00  0.00    +0.010 A 
ATOM     22  C   UNL     1       2.968  -5.473   0.000  0.00  0.00    +0.091 A 
ATOM     23  C   UNL     1       2.545  -4.764   0.000  0.00  0.00    +0.106 A 
ATOM     24  N   UNL     1       2.947  -4.044   0.000  0.00  0.00    -0.210 NA
BRANCH  22  25
ATOM     25  C   UNL     1       2.566  -6.193   0.000  0.00  0.00    +0.420 C 
ATOM     26  F   UNL     1       2.164  -6.914   0.000  0.00  0.00    -0.166 F 
ATOM     27  F   UNL     1       1.846  -5.792   0.000  0.00  0.00    -0.166 F 
ATOM     28  F   UNL     1       3.287  -6.595   0.000  0.00  0.00    -0.166 F 
ENDBRANCH  22  25
ENDBRANCH  18  19
ENDBRANCH  16  18
TORSDOF 5
