REMARK  Name = 
REMARK  5 active torsions:
REMARK  status: ('A' for Active; 'I' for Inactive)
REMARK    1  A    between atoms: C_2  and  C_4
REMARK    2  A    between atoms: C_5  and  C_28
REMARK    3  A    between atoms: N_6  and  C_9
REMARK    4  A    between atoms: CA_18  and  CB_19
REMARK    5  A    between atoms: CB_19  and  CG_20
REMARK                            x       y       z     vdW  Elec       q    Type
REMARK                         _______ _______ _______ _____ _____    ______ ____
ROOT
ATOM      9  C   UNK A   1      -0.715  -0.412   0.000  0.00  0.00    +0.111 C 
ATOM     10  C   UNK A   1      -0.715  -1.238   0.000  0.00  0.00    +0.046 C 
ATOM     11  C   UNK A   1       0.000  -1.650   0.000  0.00  0.00    +0.096 C 
ATOM     12  N   UNK A   1       0.715  -1.238   0.000  0.00  0.00    -0.271 N 
ATOM     13  C   UNK A   1       0.715  -0.412   0.000  0.00  0.00    +0.155 C 
ATOM     14  C   UNK A   1       0.000   0.000   0.000  0.00  0.00    +0.054 C 
ATOM     15  C   UNK A   1       1.429   0.000   0.000  0.00  0.00    +0.260 C 
ATOM     16  O   UNK A   1       1.429   0.825   0.000  0.00  0.00    -0.272 OA
ATOM     17  N   PHE A   2       2.143  -0.412   0.000  0.00  0.00    -0.196 NA
ATOM     18  CA  PHE A   2       2.143  -1.238   0.000  0.00  0.00    +0.176 C 
ATOM     26  C   PHE A   2       1.429  -1.650   0.000  0.00  0.00    +0.246 C 
ATOM     27  O   PHE A   2       1.429  -2.475   0.000  0.00  0.00    -0.273 OA
ENDROOT
BRANCH   9   6
ATOM      4  C   UNK A   1      -2.322   0.992   0.000  0.00  0.00    +0.183 A 
ATOM      5  C   UNK A   1      -1.515   0.821   0.000  0.00  0.00    +0.160 A 
ATOM      6  N   UNK A   1      -1.429   0.000   0.000  0.00  0.00    -0.229 N 
ATOM      7  N   UNK A   1      -2.183  -0.336   0.000  0.00  0.00    -0.064 NA
ATOM      8  N   UNK A   1      -2.735   0.278   0.000  0.00  0.00    -0.124 NA
BRANCH   4   2
ATOM      1  N   UNK A   1      -3.478   1.832   0.000  0.00  0.00    -0.082 NA
ATOM      2  C   UNK A   1      -2.658   1.746   0.000  0.00  0.00    +0.305 C 
ATOM      3  O   UNK A   1      -2.173   2.413   0.000  0.00  0.00    -0.265 OA
ENDBRANCH   4   2
BRANCH   5  28
ATOM     28  C   UNK A   1      -0.902   1.373   0.000  0.00  0.00    +0.303 C 
ATOM     29  N   UNK A   1      -0.117   1.118   0.000  0.00  0.00    -0.082 NA
ATOM     30  O   UNK A   1      -1.074   2.179   0.000  0.00  0.00    -0.265 OA
ENDBRANCH   5  28
ENDBRANCH   9   6
BRANCH  18  19
ATOM     19  CB  PHE A   2       2.858  -1.650   0.000  0.00  0.00    +0.057 C 
BRANCH  19  20
ATOM     20  CG  PHE A   2       2.858  -2.475   0.000  0.00  0.00    -0.020 A 
ATOM     21  CD1 PHE A   2       3.572  -2.888   0.000  0.00  0.00    -0.004 A 
ATOM     22  CE1 PHE A   2       3.572  -3.712   0.000  0.00  0.00    -0.000 A 
ATOM     23  CZ  PHE A   2       2.858  -4.125   0.000  0.00  0.00    -0.000 A 
ATOM     24  CE2 PHE A   2       2.143  -3.712   0.000  0.00  0.00    -0.000 A 
ATOM     25  CD2 PHE A   2       2.143  -2.888   0.000  0.00  0.00    -0.004 A 
ENDBRANCH  19  20
ENDBRANCH  18  19
TORSDOF 5
