REMARK  Name = 
REMARK  9 active torsions:
REMARK  status: ('A' for Active; 'I' for Inactive)
REMARK    1  A    between atoms: C_2  and  C_3
REMARK    2  A    between atoms: C_3  and  C_4
REMARK    3  A    between atoms: C_4  and  C_5
REMARK    4  A    between atoms: N_7  and  C_8
REMARK    5  A    between atoms: C_8  and  C_9
REMARK    6  A    between atoms: C_16  and  C_17
REMARK    7  A    between atoms: N_19  and  C_20
REMARK    8  A    between atoms: C_20  and  C_21
REMARK    9  A    between atoms: C_21  and  N_22
REMARK                            x       y       z     vdW  Elec       q    Type
REMARK                         _______ _______ _______ _____ _____    ______ ____
ROOT
ATOM      9  C   UNL     1       1.814  -2.106   0.000  0.00  0.00    +0.082 C 
ATOM     10  C   UNL     1       1.661  -1.343   0.000  0.00  0.00    +0.019 C 
ATOM     11  C   UNL     1       0.923  -1.010   0.000  0.00  0.00    +0.013 C 
ATOM     12  C   UNL     1       0.961  -0.114   0.000  0.00  0.00    +0.018 C 
ATOM     13  C   UNL     1       1.205  -0.720   0.000  0.00  0.00    +0.072 C 
ATOM     14  N   UNL     1       1.065  -1.759   0.000  0.00  0.00    -0.272 NA
ATOM     15  C   UNL     1       0.226  -2.118   0.000  0.00  0.00    +0.081 C 
ATOM     16  C   UNL     1       0.119  -1.362   0.000  0.00  0.00    +0.094 C 
ENDROOT
BRANCH  16  17
ATOM     17  C   UNL     1      -0.602  -0.960   0.000  0.00  0.00    +0.242 C 
ATOM     18  O   UNL     1      -1.310  -1.384   0.000  0.00  0.00    -0.273 OA
ATOM     19  N   UNL     1      -0.614  -0.136   0.000  0.00  0.00    -0.203 NA
BRANCH  19  20
ATOM     20  C   UNL     1      -1.335   0.266   0.000  0.00  0.00    +0.138 C 
BRANCH  20  21
ATOM     21  C   UNL     1      -1.347   1.091   0.000  0.00  0.00    +0.138 C 
BRANCH  21  22
ATOM     22  N   UNL     1      -2.067   1.493   0.000  0.00  0.00    -0.204 NA
ATOM     23  C   UNL     1      -2.080   2.318   0.000  0.00  0.00    +0.242 C 
ATOM     24  C   UNL     1      -2.800   2.720   0.000  0.00  0.00    +0.096 C 
ATOM     25  O   UNL     1      -1.372   2.741   0.000  0.00  0.00    -0.273 OA
ENDBRANCH  21  22
ENDBRANCH  20  21
ENDBRANCH  19  20
ENDBRANCH  16  17
BRANCH   9   8
ATOM      8  C   UNL     1       2.324  -2.754   0.000  0.00  0.00    +0.145 C 
BRANCH   8   7
ATOM      5  C   UNL     1       4.456  -2.862   0.000  0.00  0.00    +0.101 A 
ATOM      6  C   UNL     1       3.716  -3.227   0.000  0.00  0.00    +0.113 A 
ATOM      7  N   UNL     1       3.141  -2.636   0.000  0.00  0.00    -0.229 N 
ATOM     26  N   UNL     1       3.525  -1.906   0.000  0.00  0.00    -0.064 NA
ATOM     27  N   UNL     1       4.338  -2.046   0.000  0.00  0.00    -0.133 NA
BRANCH   5   4
ATOM      4  C   UNL     1       5.186  -3.247   0.000  0.00  0.00    +0.049 C 
BRANCH   4   3
ATOM      3  C   UNL     1       5.884  -2.807   0.000  0.00  0.00    +0.006 C 
BRANCH   3   2
ATOM      1  C   UNL     1       7.312  -2.752   0.000  0.00  0.00    +0.000 C 
ATOM      2  C   UNL     1       6.614  -3.191   0.000  0.00  0.00    +0.000 C 
ENDBRANCH   3   2
ENDBRANCH   4   3
ENDBRANCH   5   4
ENDBRANCH   8   7
ENDBRANCH   9   8
TORSDOF 9
