REMARK  Name = 
REMARK  7 active torsions:
REMARK  status: ('A' for Active; 'I' for Inactive)
REMARK    1  A    between atoms: C_3  and  C_4
REMARK    2  A    between atoms: C_4  and  N_5
REMARK    3  A    between atoms: N_5  and  S_6
REMARK    4  A    between atoms: S_6  and  C_9
REMARK    5  A    between atoms: C_17  and  N_18
REMARK    6  A    between atoms: N_18  and  C_19
REMARK    7  A    between atoms: C_19  and  C_20
REMARK                            x       y       z     vdW  Elec       q    Type
REMARK                         _______ _______ _______ _____ _____    ______ ____
ROOT
ATOM      1  O   UNL     1      -3.493  -4.275   0.000  0.00  0.00    -0.219 OA
ATOM      2  C   UNL     1      -2.709  -4.020   0.000  0.00  0.00    +0.199 C 
ATOM      3  C   UNL     1      -2.454  -3.235   0.000  0.00  0.00    +0.166 C 
ATOM     15  O   UNL     1      -1.629  -3.235   0.000  0.00  0.00    -0.350 OA
ATOM     16  C   UNL     1      -1.374  -4.020   0.000  0.00  0.00    +0.162 C 
ATOM     17  C   UNL     1      -2.041  -4.505   0.000  0.00  0.00    +0.135 C 
ENDROOT
BRANCH   3   4
ATOM      4  C   UNL     1      -2.939  -2.568   0.000  0.00  0.00    +0.148 C 
BRANCH   4   5
ATOM      5  N   UNL     1      -2.603  -1.814   0.000  0.00  0.00    -0.075 NA
BRANCH   5   6
ATOM      6  S   UNL     1      -3.088  -1.147   0.000  0.00  0.00    +0.077 S 
ATOM      7  O   UNL     1      -3.756  -1.631   0.000  0.00  0.00    -0.152 OA
ATOM      8  O   UNL     1      -2.421  -0.662   0.000  0.00  0.00    -0.152 OA
BRANCH   6   9
ATOM      9  C   UNL     1      -3.573  -0.479   0.000  0.00  0.00    +0.124 A 
ATOM     10  C   UNL     1      -4.393  -0.565   0.000  0.00  0.00    +0.020 A 
ATOM     11  C   UNL     1      -4.878   0.102   0.000  0.00  0.00    +0.001 A 
ATOM     12  C   UNL     1      -4.543   0.856   0.000  0.00  0.00    +0.000 A 
ATOM     13  C   UNL     1      -3.722   0.942   0.000  0.00  0.00    +0.001 A 
ATOM     14  C   UNL     1      -3.237   0.275   0.000  0.00  0.00    +0.020 A 
ENDBRANCH   6   9
ENDBRANCH   5   6
ENDBRANCH   4   5
ENDBRANCH   3   4
BRANCH  17  18
ATOM     18  N   UNL     1      -2.041  -5.330   0.000  0.00  0.00    -0.214 NA
BRANCH  18  19
ATOM     19  C   UNL     1      -1.327  -5.742   0.000  0.00  0.00    +0.089 C 
BRANCH  19  20
ATOM     20  C   UNL     1      -1.327  -6.567   0.000  0.00  0.00    +0.017 C 
ATOM     21  C   UNL     1      -0.914  -7.282   0.000  0.00  0.00    +0.001 C 
ATOM     22  C   UNL     1      -1.739  -7.282   0.000  0.00  0.00    +0.001 C 
ENDBRANCH  19  20
ENDBRANCH  18  19
ENDBRANCH  17  18
TORSDOF 7
