REMARK  Name = 
REMARK  9 active torsions:
REMARK  status: ('A' for Active; 'I' for Inactive)
REMARK    1  A    between atoms: C_2  and  C_4
REMARK    2  A    between atoms: C_4  and  C_5
REMARK    3  A    between atoms: C_4  and  N_15
REMARK    4  A    between atoms: C_5  and  C_6
REMARK    5  A    between atoms: C_16  and  C_18
REMARK    6  A    between atoms: C_20  and  N_28
REMARK    7  A    between atoms: C_23  and  C_25
REMARK    8  A    between atoms: N_31  and  C_32
REMARK    9  A    between atoms: C_32  and  C_33
REMARK                            x       y       z     vdW  Elec       q    Type
REMARK                         _______ _______ _______ _____ _____    ______ ____
ROOT
ATOM     15  N   UNL     1      -8.983   0.506   0.000  0.00  0.00    -0.196 NA
ATOM     16  C   UNL     1      -8.163   0.419   0.000  0.00  0.00    +0.260 C 
ATOM     17  O   UNL     1      -7.678   1.087   0.000  0.00  0.00    -0.272 OA
ENDROOT
BRANCH  16  18
ATOM     18  C   UNL     1      -7.827  -0.334   0.000  0.00  0.00    +0.155 C 
ATOM     19  C   UNL     1      -7.020  -0.506   0.000  0.00  0.00    +0.053 C 
ATOM     20  C   UNL     1      -6.934  -1.326   0.000  0.00  0.00    +0.119 C 
ATOM     21  C   UNL     1      -7.688  -1.662   0.000  0.00  0.00    +0.115 C 
ATOM     22  N   UNL     1      -8.239  -1.049   0.000  0.00  0.00    -0.271 N 
ATOM     23  C   UNL     1      -9.060  -1.135   0.000  0.00  0.00    +0.226 C 
ATOM     24  O   UNL     1      -9.545  -0.468   0.000  0.00  0.00    -0.275 OA
BRANCH  20  28
ATOM     28  N   UNL     1      -6.219  -1.739   0.000  0.00  0.00    -0.187 NA
ATOM     29  C   UNL     1      -5.505  -1.326   0.000  0.00  0.00    +0.340 C 
ATOM     30  O   UNL     1      -5.505  -0.501   0.000  0.00  0.00    -0.249 OA
ATOM     31  N   UNL     1      -4.790  -1.739   0.000  0.00  0.00    -0.182 NA
BRANCH  31  32
ATOM     32  C   UNL     1      -4.076  -1.326   0.000  0.00  0.00    +0.143 C 
BRANCH  32  33
ATOM     33  C   UNL     1      -3.361  -1.739   0.000  0.00  0.00    -0.003 C 
ATOM     34  C   UNL     1      -2.647  -1.326   0.000  0.00  0.00    -0.003 C 
ENDBRANCH  32  33
ENDBRANCH  31  32
ENDBRANCH  20  28
BRANCH  23  25
ATOM     25  C   UNL     1      -9.396  -1.889   0.000  0.00  0.00    +0.077 C 
ATOM     26  C   UNL     1      -9.309  -2.709   0.000  0.00  0.00    +0.010 C 
ATOM     27  C   UNL     1     -10.063  -2.373   0.000  0.00  0.00    +0.010 C 
ENDBRANCH  23  25
ENDBRANCH  16  18
BRANCH  15   4
ATOM      4  C   UNL     1      -9.319   1.259   0.000  0.00  0.00    +0.179 C 
BRANCH   4   2
ATOM      1  N   UNL     1      -8.013   1.841   0.000  0.00  0.00    -0.086 NA
ATOM      2  C   UNL     1      -8.834   1.927   0.000  0.00  0.00    +0.281 C 
ATOM      3  O   UNL     1      -9.169   2.680   0.000  0.00  0.00    -0.270 OA
ENDBRANCH   4   2
BRANCH   4   5
ATOM      5  C   UNL     1     -10.139   1.346   0.000  0.00  0.00    +0.059 C 
BRANCH   5   6
ATOM      6  C   UNL     1     -10.475   2.099   0.000  0.00  0.00    +0.001 A 
ATOM      7  C   UNL     1     -10.062   2.814   0.000  0.00  0.00    +0.095 A 
ATOM      8  N   UNL     1     -10.614   3.427   0.000  0.00  0.00    -0.244 NA
ATOM      9  C   UNL     1     -11.368   3.091   0.000  0.00  0.00    +0.081 A 
ATOM     10  C   UNL     1     -11.282   2.271   0.000  0.00  0.00    +0.015 A 
ATOM     11  C   UNL     1     -11.949   1.786   0.000  0.00  0.00    +0.001 A 
ATOM     12  C   UNL     1     -12.703   2.121   0.000  0.00  0.00    +0.000 A 
ATOM     13  C   UNL     1     -12.789   2.942   0.000  0.00  0.00    +0.002 A 
ATOM     14  C   UNL     1     -12.121   3.427   0.000  0.00  0.00    +0.019 A 
ENDBRANCH   5   6
ENDBRANCH   4   5
ENDBRANCH  15   4
TORSDOF 9
