REMARK  Name = 
REMARK  6 active torsions:
REMARK  status: ('A' for Active; 'I' for Inactive)
REMARK    1  A    between atoms: O_2  and  C_3
REMARK    2  A    between atoms: C_6  and  C_7
REMARK    3  A    between atoms: C_7  and  C_8
REMARK    4  A    between atoms: N_17  and  C_18
REMARK    5  A    between atoms: C_18  and  C_19
REMARK    6  A    between atoms: C_19  and  N_20
REMARK                            x       y       z     vdW  Elec       q    Type
REMARK                         _______ _______ _______ _____ _____    ______ ____
ROOT
ATOM      8  C   UNL     1      -0.223  -1.944   0.000  0.00  0.00    +0.230 C 
ATOM      9  O   UNL     1      -0.223  -2.769   0.000  0.00  0.00    -0.275 OA
ATOM     10  N   UNL     1       0.492  -1.532   0.000  0.00  0.00    -0.279 N 
ATOM     11  C   UNL     1       0.492  -0.707   0.000  0.00  0.00    +0.093 C 
ATOM     12  C   UNL     1       1.206  -0.294   0.000  0.00  0.00    +0.022 C 
ATOM     13  C   UNL     1       1.921  -0.707   0.000  0.00  0.00    +0.012 C 
ATOM     14  C   UNL     1       2.566  -0.192   0.000  0.00  0.00    +0.085 C 
ATOM     15  C   UNL     1       3.370  -0.376   0.000  0.00  0.00    +0.226 C 
ATOM     16  O   UNL     1       3.884   0.269   0.000  0.00  0.00    -0.275 OA
ATOM     17  N   UNL     1       3.728  -1.119   0.000  0.00  0.00    -0.278 N 
ATOM     26  C   UNL     1       3.370  -1.862   0.000  0.00  0.00    +0.094 C 
ATOM     27  C   UNL     1       2.566  -2.046   0.000  0.00  0.00    +0.023 C 
ATOM     28  C   UNL     1       1.921  -1.532   0.000  0.00  0.00    +0.022 C 
ATOM     29  C   UNL     1       1.206  -1.944   0.000  0.00  0.00    +0.093 C 
ENDROOT
BRANCH   8   7
ATOM      7  C   UNL     1      -0.937  -1.532   0.000  0.00  0.00    +0.112 C 
BRANCH   7   6
ATOM      3  C   UNL     1      -3.081  -2.769   0.000  0.00  0.00    +0.139 A 
ATOM      4  C   UNL     1      -3.081  -1.944   0.000  0.00  0.00    +0.037 A 
ATOM      5  C   UNL     1      -2.366  -1.532   0.000  0.00  0.00    -0.001 A 
ATOM      6  C   UNL     1      -1.652  -1.944   0.000  0.00  0.00    -0.013 A 
ATOM     30  C   UNL     1      -1.652  -2.769   0.000  0.00  0.00    -0.001 A 
ATOM     31  C   UNL     1      -2.366  -3.182   0.000  0.00  0.00    +0.037 A 
BRANCH   3   2
ATOM      1  C   UNL     1      -3.795  -4.007   0.000  0.00  0.00    +0.252 C 
ATOM      2  O   UNL     1      -3.795  -3.182   0.000  0.00  0.00    -0.471 OA
ENDBRANCH   3   2
ENDBRANCH   7   6
ENDBRANCH   8   7
BRANCH  17  18
ATOM     18  C   UNL     1       4.553  -1.119   0.000  0.00  0.00    +0.111 C 
BRANCH  18  19
ATOM     19  C   UNL     1       4.965  -0.405   0.000  0.00  0.00    +0.094 C 
BRANCH  19  20
ATOM     20  N   UNL     1       5.790  -0.405   0.000  0.00  0.00    -0.267 NA
ATOM     21  C   UNL     1       6.203   0.310   0.000  0.00  0.00    +0.105 C 
ATOM     22  C   UNL     1       7.028   0.310   0.000  0.00  0.00    +0.159 C 
ATOM     23  O   UNL     1       7.440  -0.405   0.000  0.00  0.00    -0.351 OA
ATOM     24  C   UNL     1       7.028  -1.119   0.000  0.00  0.00    +0.159 C 
ATOM     25  C   UNL     1       6.203  -1.119   0.000  0.00  0.00    +0.105 C 
ENDBRANCH  19  20
ENDBRANCH  18  19
ENDBRANCH  17  18
TORSDOF 6
