REMARK  Name = 
REMARK  4 active torsions:
REMARK  status: ('A' for Active; 'I' for Inactive)
REMARK    1  A    between atoms: C_2  and  C_5
REMARK    2  A    between atoms: C_8  and  O_9
REMARK    3  A    between atoms: O_9  and  C_10
REMARK    4  A    between atoms: C_17  and  C_19
REMARK                            x       y       z     vdW  Elec       q    Type
REMARK                         _______ _______ _______ _____ _____    ______ ____
ROOT
ATOM     10  C   UNL     1       1.099   0.778   0.000  0.00  0.00    +0.215 C 
ATOM     11  C   UNL     1       0.797   1.546   0.000  0.00  0.00    +0.187 C 
ATOM     12  O   UNL     1       1.210   2.260   0.000  0.00  0.00    -0.348 OA
ATOM     13  C   UNL     1       2.025   2.383   0.000  0.00  0.00    +0.164 C 
ATOM     14  C   UNL     1       2.630   1.822   0.000  0.00  0.00    +0.126 C 
ATOM     15  N   UNL     1       2.568   0.999   0.000  0.00  0.00    -0.273 N 
ATOM     16  C   UNL     1       1.887   0.535   0.000  0.00  0.00    +0.139 C 
ATOM     17  C   UNL     1       3.283   0.587   0.000  0.00  0.00    +0.225 C 
ATOM     18  O   UNL     1       3.997   0.999   0.000  0.00  0.00    -0.275 OA
ENDROOT
BRANCH  17  19
ATOM     19  C   UNL     1       3.283  -0.238   0.000  0.00  0.00    +0.077 C 
ATOM     20  C   UNL     1       3.695  -0.953   0.000  0.00  0.00    +0.010 C 
ATOM     21  C   UNL     1       2.870  -0.953   0.000  0.00  0.00    +0.010 C 
ENDBRANCH  17  19
BRANCH  10   9
ATOM      9  O   UNL     1       0.537   0.173   0.000  0.00  0.00    -0.475 OA
BRANCH   9   8
ATOM      5  C   UNL     1      -1.876   0.724   0.000  0.00  0.00    +0.072 A 
ATOM      6  C   UNL     1      -1.315   1.329   0.000  0.00  0.00    +0.007 A 
ATOM      7  C   UNL     1      -0.510   1.145   0.000  0.00  0.00    +0.037 A 
ATOM      8  C   UNL     1      -0.267   0.357   0.000  0.00  0.00    +0.139 A 
ATOM     22  C   UNL     1      -0.828  -0.248   0.000  0.00  0.00    +0.037 A 
ATOM     23  C   UNL     1      -1.632  -0.065   0.000  0.00  0.00    +0.007 A 
BRANCH   5   2
ATOM      1  F   UNL     1      -3.484   1.091   0.000  0.00  0.00    -0.166 F 
ATOM      2  C   UNL     1      -2.680   0.907   0.000  0.00  0.00    +0.419 C 
ATOM      3  F   UNL     1      -2.864   0.103   0.000  0.00  0.00    -0.166 F 
ATOM      4  F   UNL     1      -2.496   1.712   0.000  0.00  0.00    -0.166 F 
ENDBRANCH   5   2
ENDBRANCH   9   8
ENDBRANCH  10   9
TORSDOF 4
