REMARK  Name = 
REMARK  2 active torsions:
REMARK  status: ('A' for Active; 'I' for Inactive)
REMARK    1  A    between atoms: C_6  and  N_10
REMARK    2  A    between atoms: N_13  and  C_14
REMARK                            x       y       z     vdW  Elec       q    Type
REMARK                         _______ _______ _______ _____ _____    ______ ____
ROOT
ATOM     10  N   UNL     1       0.715  -3.712   0.000  0.00  0.00    -0.184 NA
ATOM     11  C   UNL     1       0.715  -2.888   0.000  0.00  0.00    +0.344 C 
ATOM     12  O   UNL     1       0.000  -2.475   0.000  0.00  0.00    -0.249 OA
ATOM     13  N   UNL     1       1.429  -2.475   0.000  0.00  0.00    -0.161 NA
ENDROOT
BRANCH  13  14
ATOM     14  C   UNL     1       1.429  -1.650   0.000  0.00  0.00    +0.075 A 
ATOM     15  C   UNL     1       0.715  -1.238   0.000  0.00  0.00    +0.017 A 
ATOM     16  C   UNL     1       0.715  -0.412   0.000  0.00  0.00    +0.001 A 
ATOM     17  C   UNL     1       1.429   0.000   0.000  0.00  0.00    +0.000 A 
ATOM     18  C   UNL     1       2.143  -0.412   0.000  0.00  0.00    +0.001 A 
ATOM     19  C   UNL     1       2.858   0.000   0.000  0.00  0.00    +0.000 A 
ATOM     20  C   UNL     1       3.572  -0.412   0.000  0.00  0.00    +0.000 A 
ATOM     21  C   UNL     1       3.572  -1.238   0.000  0.00  0.00    +0.000 A 
ATOM     22  C   UNL     1       2.858  -1.650   0.000  0.00  0.00    +0.001 A 
ATOM     23  C   UNL     1       2.143  -1.238   0.000  0.00  0.00    +0.015 A 
ENDBRANCH  13  14
BRANCH  10   6
ATOM      1  O   UNL     1      -2.774  -4.479   0.000  0.00  0.00    -0.218 OA
ATOM      2  C   UNL     1      -2.059  -4.067   0.000  0.00  0.00    +0.211 C 
ATOM      3  C   UNL     1      -1.973  -3.247   0.000  0.00  0.00    +0.178 C 
ATOM      4  O   UNL     1      -1.166  -3.075   0.000  0.00  0.00    -0.349 OA
ATOM      5  C   UNL     1      -0.754  -3.789   0.000  0.00  0.00    +0.167 C 
ATOM      6  C   UNL     1       0.000  -4.125   0.000  0.00  0.00    +0.156 C 
ATOM      7  C   UNL     1      -0.086  -4.946   0.000  0.00  0.00    +0.166 C 
ATOM      8  O   UNL     1      -0.893  -5.117   0.000  0.00  0.00    -0.349 OA
ATOM      9  C   UNL     1      -1.306  -4.402   0.000  0.00  0.00    +0.177 C 
ENDBRANCH  10   6
TORSDOF 2
