REMARK  Name = 
REMARK  9 active torsions:
REMARK  status: ('A' for Active; 'I' for Inactive)
REMARK    1  A    between atoms: C_2  and  C_3
REMARK    2  A    between atoms: C_3  and  S_4
REMARK    3  A    between atoms: S_4  and  N_7
REMARK    4  A    between atoms: N_7  and  C_8
REMARK    5  A    between atoms: C_8  and  C_9
REMARK    6  A    between atoms: C_13  and  C_14
REMARK    7  A    between atoms: C_14  and  C_15
REMARK    8  A    between atoms: C_18  and  C_20
REMARK    9  A    between atoms: C_28  and  C_29
REMARK                            x       y       z     vdW  Elec       q    Type
REMARK                         _______ _______ _______ _____ _____    ______ ____
ROOT
ATOM      9  C   UNL     1       2.858   0.825   0.000  0.00  0.00    +0.041 C 
ATOM     10  C   UNL     1       2.858   0.000   0.000  0.00  0.00    -0.033 C 
ATOM     11  C   UNL     1       2.143  -0.412   0.000  0.00  0.00    -0.048 C 
ATOM     12  C   UNL     1       2.143  -1.238   0.000  0.00  0.00    +0.026 C 
ATOM     13  C   UNL     1       1.429   0.000   0.000  0.00  0.00    +0.027 C 
ATOM     27  C   UNL     1       1.429   0.825   0.000  0.00  0.00    +0.005 C 
ATOM     28  C   UNL     1       2.143   1.238   0.000  0.00  0.00    +0.006 C 
ENDROOT
BRANCH  28  29
ATOM     29  C   UNL     1       2.143   2.062   0.000  0.00  0.00    +0.000 C 
ATOM     30  C   UNL     1       2.858   2.475   0.000  0.00  0.00    +0.000 C 
ATOM     31  C   UNL     1       1.429   2.475   0.000  0.00  0.00    +0.000 C 
ENDBRANCH  28  29
BRANCH   9   8
ATOM      8  C   UNL     1       3.572   1.238   0.000  0.00  0.00    +0.119 C 
BRANCH   8   7
ATOM      7  N   UNL     1       3.572   2.062   0.000  0.00  0.00    -0.082 NA
BRANCH   7   4
ATOM      4  S   UNL     1       4.287   2.475   0.000  0.00  0.00    +0.057 S 
ATOM      5  O   UNL     1       3.874   3.189   0.000  0.00  0.00    -0.156 OA
ATOM      6  O   UNL     1       4.699   1.760   0.000  0.00  0.00    -0.156 OA
BRANCH   4   3
ATOM      3  C   UNL     1       5.001   2.888   0.000  0.00  0.00    +0.171 C 
BRANCH   3   2
ATOM      1  C   UNL     1       5.716   4.125   0.000  0.00  0.00    +0.002 C 
ATOM      2  C   UNL     1       5.001   3.712   0.000  0.00  0.00    +0.027 C 
ENDBRANCH   3   2
ENDBRANCH   4   3
ENDBRANCH   7   4
ENDBRANCH   8   7
ENDBRANCH   9   8
BRANCH  13  14
ATOM     14  C   UNL     1       0.715  -0.412   0.000  0.00  0.00    +0.091 C 
BRANCH  14  15
ATOM     15  C   UNL     1       0.715  -1.238   0.000  0.00  0.00    +0.227 A 
ATOM     16  N   UNL     1       1.382  -1.722   0.000  0.00  0.00    -0.111 NA
ATOM     17  N   UNL     1       1.127  -2.507   0.000  0.00  0.00    -0.107 NA
ATOM     18  C   UNL     1       0.302  -2.507   0.000  0.00  0.00    +0.252 A 
ATOM     19  O   UNL     1       0.047  -1.722   0.000  0.00  0.00    -0.419 OA
BRANCH  18  20
ATOM     20  C   UNL     1      -0.183  -3.175   0.000  0.00  0.00    +0.083 A 
ATOM     21  C   UNL     1       0.153  -3.928   0.000  0.00  0.00    +0.007 A 
ATOM     22  C   UNL     1      -0.332  -4.596   0.000  0.00  0.00    +0.000 A 
ATOM     23  C   UNL     1      -1.153  -4.509   0.000  0.00  0.00    +0.002 A 
ATOM     24  C   UNL     1      -1.488  -3.756   0.000  0.00  0.00    +0.030 A 
ATOM     25  C   UNL     1      -1.003  -3.088   0.000  0.00  0.00    +0.145 A 
ATOM     26  F   UNL     1      -1.339  -2.335   0.000  0.00  0.00    -0.204 F 
ENDBRANCH  18  20
ENDBRANCH  14  15
ENDBRANCH  13  14
TORSDOF 9
