REMARK  Name = 
REMARK  3 active torsions:
REMARK  status: ('A' for Active; 'I' for Inactive)
REMARK    1  A    between atoms: N_2  and  C_3
REMARK    2  A    between atoms: C_3  and  C_4
REMARK    3  A    between atoms: C_10  and  C_12
REMARK                            x       y       z     vdW  Elec       q    Type
REMARK                         _______ _______ _______ _____ _____    ______ ____
ROOT
ATOM      1  C   UNL     1       3.499   1.935   0.000  0.00  0.00    +0.115 C 
ATOM      2  N   UNL     1       3.499   1.110   0.000  0.00  0.00    -0.273 N 
ATOM     10  C   UNL     1       2.784   0.698   0.000  0.00  0.00    +0.242 C 
ATOM     11  O   UNL     1       2.784  -0.127   0.000  0.00  0.00    -0.273 OA
ENDROOT
BRANCH  10  12
ATOM     12  C   UNL     1       2.070   1.110   0.000  0.00  0.00    +0.155 C 
ATOM     13  C   UNL     1       1.356   0.698   0.000  0.00  0.00    +0.074 C 
ATOM     14  C   UNL     1       0.641   1.110   0.000  0.00  0.00    +0.078 A 
ATOM     15  C   UNL     1       0.641   1.935   0.000  0.00  0.00    +0.092 A 
ATOM     16  C   UNL     1       1.356   2.348   0.000  0.00  0.00    +0.136 C 
ATOM     17  N   UNL     1       2.070   1.935   0.000  0.00  0.00    -0.203 NA
ATOM     18  N   UNL     1      -0.143   2.190   0.000  0.00  0.00    -0.226 NA
ATOM     19  C   UNL     1      -0.628   1.523   0.000  0.00  0.00    +0.198 A 
ATOM     20  N   UNL     1      -0.143   0.856   0.000  0.00  0.00    -0.227 NA
ENDBRANCH  10  12
BRANCH   2   3
ATOM      3  C   UNL     1       4.213   0.698   0.000  0.00  0.00    +0.120 C 
BRANCH   3   4
ATOM      4  C   UNL     1       4.928   1.110   0.000  0.00  0.00    -0.002 A 
ATOM      5  C   UNL     1       4.928   1.935   0.000  0.00  0.00    -0.003 A 
ATOM      6  C   UNL     1       5.642   2.348   0.000  0.00  0.00    -0.000 A 
ATOM      7  C   UNL     1       6.357   1.935   0.000  0.00  0.00    -0.000 A 
ATOM      8  C   UNL     1       6.357   1.110   0.000  0.00  0.00    -0.000 A 
ATOM      9  C   UNL     1       5.642   0.698   0.000  0.00  0.00    -0.003 A 
ENDBRANCH   3   4
ENDBRANCH   2   3
TORSDOF 3
