REMARK  Name = 
REMARK  5 active torsions:
REMARK  status: ('A' for Active; 'I' for Inactive)
REMARK    1  A    between atoms: N_3  and  C_4
REMARK    2  A    between atoms: C_8  and  N_12
REMARK    3  A    between atoms: C_16  and  O_17
REMARK    4  A    between atoms: O_17  and  C_18
REMARK    5  A    between atoms: N_24  and  C_25
REMARK                            x       y       z     vdW  Elec       q    Type
REMARK                         _______ _______ _______ _____ _____    ______ ____
ROOT
ATOM      4  C   UNL     1       1.270  -0.922   0.000  0.00  0.00    +0.156 C 
ATOM      5  C   UNL     1       0.785  -0.255   0.000  0.00  0.00    +0.166 C 
ATOM      6  O   UNL     1       1.270   0.412   0.000  0.00  0.00    -0.350 OA
ATOM      7  C   UNL     1       2.054   0.158   0.000  0.00  0.00    +0.169 C 
ATOM      8  C   UNL     1       2.839   0.412   0.000  0.00  0.00    +0.170 C 
ATOM      9  C   UNL     1       3.324  -0.255   0.000  0.00  0.00    +0.169 C 
ATOM     10  O   UNL     1       2.839  -0.922   0.000  0.00  0.00    -0.350 OA
ATOM     11  C   UNL     1       2.054  -0.667   0.000  0.00  0.00    +0.167 C 
ENDROOT
BRANCH   8  12
ATOM     12  N   UNL     1       3.094   1.197   0.000  0.00  0.00    -0.180 N 
ATOM     13  N   UNL     1       2.609   1.865   0.000  0.00  0.00    -0.040 NA
ATOM     14  N   UNL     1       3.094   2.532   0.000  0.00  0.00    -0.020 NA
ATOM     15  N   UNL     1       3.878   2.277   0.000  0.00  0.00    -0.071 NA
ATOM     16  C   UNL     1       3.878   1.452   0.000  0.00  0.00    +0.343 A 
BRANCH  16  17
ATOM     17  O   UNL     1       4.546   0.967   0.000  0.00  0.00    -0.421 OA
BRANCH  17  18
ATOM     18  C   UNL     1       5.300   1.303   0.000  0.00  0.00    +0.149 A 
ATOM     19  C   UNL     1       5.386   2.123   0.000  0.00  0.00    +0.038 A 
ATOM     20  C   UNL     1       6.139   2.459   0.000  0.00  0.00    +0.003 A 
ATOM     21  C   UNL     1       6.807   1.974   0.000  0.00  0.00    +0.000 A 
ATOM     22  C   UNL     1       6.721   1.153   0.000  0.00  0.00    +0.003 A 
ATOM     23  C   UNL     1       5.967   0.818   0.000  0.00  0.00    +0.038 A 
ENDBRANCH  17  18
ENDBRANCH  16  17
ENDBRANCH   8  12
BRANCH   4   3
ATOM      1  O   UNL     1      -0.344  -1.265   0.000  0.00  0.00    -0.249 OA
ATOM      2  C   UNL     1       0.208  -1.879   0.000  0.00  0.00    +0.344 C 
ATOM      3  N   UNL     1       1.015  -1.707   0.000  0.00  0.00    -0.184 NA
ATOM     24  N   UNL     1      -0.047  -2.663   0.000  0.00  0.00    -0.161 NA
BRANCH  24  25
ATOM     25  C   UNL     1      -0.854  -2.835   0.000  0.00  0.00    +0.075 A 
ATOM     26  C   UNL     1      -1.109  -3.619   0.000  0.00  0.00    +0.017 A 
ATOM     27  C   UNL     1      -1.916  -3.791   0.000  0.00  0.00    +0.001 A 
ATOM     28  C   UNL     1      -2.468  -3.178   0.000  0.00  0.00    +0.000 A 
ATOM     29  C   UNL     1      -2.213  -2.393   0.000  0.00  0.00    +0.001 A 
ATOM     30  C   UNL     1      -1.406  -2.222   0.000  0.00  0.00    +0.017 A 
ENDBRANCH  24  25
ENDBRANCH   4   3
TORSDOF 5
