REMARK  Name = 
REMARK  11 active torsions:
REMARK  status: ('A' for Active; 'I' for Inactive)
REMARK    1  A    between atoms: O_2  and  C_3
REMARK    2  A    between atoms: C_6  and  C_7
REMARK    3  A    between atoms: C_7  and  C_8
REMARK    4  A    between atoms: C_8  and  N_9
REMARK    5  A    between atoms: C_8  and  C_34
REMARK    6  A    between atoms: C_10  and  C_12
REMARK    7  A    between atoms: C_19  and  N_21
REMARK    8  A    between atoms: C_22  and  C_24
REMARK    9  A    between atoms: C_24  and  C_25
REMARK   10  A    between atoms: C_25  and  C_26
REMARK   11  A    between atoms: C_26  and  C_27
REMARK                            x       y       z     vdW  Elec       q    Type
REMARK                         _______ _______ _______ _____ _____    ______ ____
ROOT
ATOM     12  C   UNL     1      -0.248  -3.057   0.000  0.00  0.00    +0.200 C 
ATOM     13  O   UNL     1      -0.530  -2.282   0.000  0.00  0.00    -0.216 OA
ATOM     14  C   UNL     1       0.282  -3.689   0.000  0.00  0.00    +0.075 C 
ATOM     15  C   UNL     1       0.000  -4.465   0.000  0.00  0.00    +0.187 C 
ATOM     16  O   UNL     1       0.530  -5.096   0.000  0.00  0.00    -0.220 OA
ATOM     17  C   UNL     1      -0.812  -4.608   0.000  0.00  0.00    +0.202 C 
ATOM     18  O   UNL     1      -1.095  -5.383   0.000  0.00  0.00    -0.219 OA
ATOM     19  C   UNL     1      -1.343  -3.976   0.000  0.00  0.00    +0.131 C 
ATOM     20  C   UNL     1      -1.061  -3.200   0.000  0.00  0.00    +0.064 C 
ENDROOT
BRANCH  12  10
ATOM      9  N   UNL     1       0.466  -1.820   0.000  0.00  0.00    -0.195 NA
ATOM     10  C   UNL     1       0.466  -2.645   0.000  0.00  0.00    +0.269 C 
ATOM     11  O   UNL     1       1.181  -3.057   0.000  0.00  0.00    -0.271 OA
BRANCH   9   8
ATOM      8  C   UNL     1       1.181  -1.407   0.000  0.00  0.00    +0.179 C 
BRANCH   8  34
ATOM     34  C   UNL     1       1.895  -1.820   0.000  0.00  0.00    +0.281 C 
ATOM     35  N   UNL     1       1.895  -2.645   0.000  0.00  0.00    -0.086 NA
ATOM     36  O   UNL     1       2.610  -1.407   0.000  0.00  0.00    -0.270 OA
ENDBRANCH   8  34
BRANCH   8   7
ATOM      7  C   UNL     1       1.181  -0.582   0.000  0.00  0.00    +0.057 C 
BRANCH   7   6
ATOM      3  C   UNL     1       3.324   0.655   0.000  0.00  0.00    +0.139 A 
ATOM      4  C   UNL     1       3.324  -0.170   0.000  0.00  0.00    +0.037 A 
ATOM      5  C   UNL     1       2.610  -0.582   0.000  0.00  0.00    -0.001 A 
ATOM      6  C   UNL     1       1.895  -0.170   0.000  0.00  0.00    -0.020 A 
ATOM     37  C   UNL     1       1.895   0.655   0.000  0.00  0.00    -0.001 A 
ATOM     38  C   UNL     1       2.610   1.068   0.000  0.00  0.00    +0.037 A 
BRANCH   3   2
ATOM      1  C   UNL     1       4.039   1.893   0.000  0.00  0.00    +0.252 C 
ATOM      2  O   UNL     1       4.039   1.068   0.000  0.00  0.00    -0.471 OA
ENDBRANCH   3   2
ENDBRANCH   7   6
ENDBRANCH   8   7
ENDBRANCH   9   8
ENDBRANCH  12  10
BRANCH  19  21
ATOM     21  N   UNL     1      -2.155  -4.119   0.000  0.00  0.00    -0.204 NA
ATOM     22  C   UNL     1      -2.437  -4.894   0.000  0.00  0.00    +0.241 C 
ATOM     23  O   UNL     1      -1.907  -5.526   0.000  0.00  0.00    -0.273 OA
BRANCH  22  24
ATOM     24  C   UNL     1      -3.250  -5.037   0.000  0.00  0.00    +0.087 C 
BRANCH  24  25
ATOM     25  C   UNL     1      -3.532  -5.813   0.000  0.00  0.00    +0.019 C 
ATOM     30  C   UNL     1      -2.732  -6.012   0.000  0.00  0.00    +0.001 C 
ATOM     31  C   UNL     1      -2.674  -6.835   0.000  0.00  0.00    +0.000 C 
ATOM     32  C   UNL     1      -3.439  -7.144   0.000  0.00  0.00    +0.000 C 
ATOM     33  C   UNL     1      -3.969  -6.512   0.000  0.00  0.00    +0.001 C 
BRANCH  25  26
ATOM     26  C   UNL     1      -4.274  -5.451   0.000  0.00  0.00    +0.115 C 
BRANCH  26  27
ATOM     27  C   UNL     1      -4.331  -4.628   0.000  0.00  0.00    +0.365 C 
ATOM     28  O   UNL     1      -5.073  -4.266   0.000  0.00  0.00    -0.246 OA
ATOM     29  O   UNL     1      -3.647  -4.167   0.000  0.00  0.00    -0.246 OA
ENDBRANCH  26  27
ENDBRANCH  25  26
ENDBRANCH  24  25
ENDBRANCH  22  24
ENDBRANCH  19  21
TORSDOF 11
