REMARK  Name = 
REMARK  10 active torsions:
REMARK  status: ('A' for Active; 'I' for Inactive)
REMARK    1  A    between atoms: O_2  and  C_3
REMARK    2  A    between atoms: C_6  and  C_7
REMARK    3  A    between atoms: C_7  and  C_8
REMARK    4  A    between atoms: C_8  and  N_9
REMARK    5  A    between atoms: C_8  and  C_35
REMARK    6  A    between atoms: C_10  and  C_12
REMARK    7  A    between atoms: C_14  and  N_15
REMARK    8  A    between atoms: N_18  and  C_19
REMARK    9  A    between atoms: C_22  and  O_23
REMARK   10  A    between atoms: O_23  and  C_24
REMARK                            x       y       z     vdW  Elec       q    Type
REMARK                         _______ _______ _______ _____ _____    ______ ____
ROOT
ATOM     12  C   UNL     1       2.858  -6.600   0.000  0.00  0.00    +0.033 C 
ATOM     13  C   UNL     1       2.858  -7.425   0.000  0.00  0.00    -0.002 C 
ATOM     14  C   UNL     1       2.143  -7.838   0.000  0.00  0.00    +0.152 C 
ATOM     30  C   UNL     1       1.429  -7.425   0.000  0.00  0.00    +0.206 C 
ATOM     31  O   UNL     1       0.715  -7.838   0.000  0.00  0.00    -0.218 OA
ATOM     32  C   UNL     1       1.429  -6.600   0.000  0.00  0.00    +0.189 C 
ATOM     33  O   UNL     1       0.715  -6.188   0.000  0.00  0.00    -0.220 OA
ATOM     34  C   UNL     1       2.143  -6.188   0.000  0.00  0.00    +0.066 C 
ENDROOT
BRANCH  14  15
ATOM     15  N   UNL     1       2.143  -8.662   0.000  0.00  0.00    -0.181 NA
ATOM     16  C   UNL     1       1.429  -9.075   0.000  0.00  0.00    +0.344 C 
ATOM     17  O   UNL     1       0.715  -8.662   0.000  0.00  0.00    -0.249 OA
ATOM     18  N   UNL     1       1.429  -9.900   0.000  0.00  0.00    -0.161 NA
BRANCH  18  19
ATOM     19  C   UNL     1       0.715 -10.312   0.000  0.00  0.00    +0.075 A 
ATOM     20  C   UNL     1       0.715 -11.137   0.000  0.00  0.00    +0.020 A 
ATOM     21  C   UNL     1       0.000 -11.550   0.000  0.00  0.00    +0.039 A 
ATOM     22  C   UNL     1      -0.715 -11.137   0.000  0.00  0.00    +0.147 A 
ATOM     28  C   UNL     1      -0.715 -10.312   0.000  0.00  0.00    +0.039 A 
ATOM     29  C   UNL     1       0.000  -9.900   0.000  0.00  0.00    +0.020 A 
BRANCH  22  23
ATOM     23  O   UNL     1      -1.429 -11.550   0.000  0.00  0.00    -0.404 OA
BRANCH  23  24
ATOM     24  C   UNL     1      -1.429 -12.375   0.000  0.00  0.00    +0.575 C 
ATOM     25  F   UNL     1      -1.429 -13.200   0.000  0.00  0.00    -0.133 F 
ATOM     26  F   UNL     1      -2.254 -12.375   0.000  0.00  0.00    -0.133 F 
ATOM     27  F   UNL     1      -0.604 -12.375   0.000  0.00  0.00    -0.133 F 
ENDBRANCH  23  24
ENDBRANCH  22  23
ENDBRANCH  18  19
ENDBRANCH  14  15
BRANCH  12  10
ATOM      9  N   UNL     1       3.572  -5.362   0.000  0.00  0.00    -0.194 NA
ATOM     10  C   UNL     1       3.572  -6.188   0.000  0.00  0.00    +0.261 C 
ATOM     11  O   UNL     1       4.287  -6.600   0.000  0.00  0.00    -0.269 OA
BRANCH   9   8
ATOM      8  C   UNL     1       4.287  -4.950   0.000  0.00  0.00    +0.179 C 
BRANCH   8  35
ATOM     35  C   UNL     1       5.001  -5.362   0.000  0.00  0.00    +0.281 C 
ATOM     36  N   UNL     1       5.001  -6.188   0.000  0.00  0.00    -0.086 NA
ATOM     37  O   UNL     1       5.716  -4.950   0.000  0.00  0.00    -0.270 OA
ENDBRANCH   8  35
BRANCH   8   7
ATOM      7  C   UNL     1       4.287  -4.125   0.000  0.00  0.00    +0.057 C 
BRANCH   7   6
ATOM      3  C   UNL     1       6.430  -2.888   0.000  0.00  0.00    +0.139 A 
ATOM      4  C   UNL     1       6.430  -3.712   0.000  0.00  0.00    +0.037 A 
ATOM      5  C   UNL     1       5.716  -4.125   0.000  0.00  0.00    -0.001 A 
ATOM      6  C   UNL     1       5.001  -3.712   0.000  0.00  0.00    -0.020 A 
ATOM     38  C   UNL     1       5.001  -2.888   0.000  0.00  0.00    -0.001 A 
ATOM     39  C   UNL     1       5.716  -2.475   0.000  0.00  0.00    +0.037 A 
BRANCH   3   2
ATOM      1  C   UNL     1       7.145  -1.650   0.000  0.00  0.00    +0.252 C 
ATOM      2  O   UNL     1       7.145  -2.475   0.000  0.00  0.00    -0.471 OA
ENDBRANCH   3   2
ENDBRANCH   7   6
ENDBRANCH   8   7
ENDBRANCH   9   8
ENDBRANCH  12  10
TORSDOF 10
