REMARK  Name = 
REMARK  4 active torsions:
REMARK  status: ('A' for Active; 'I' for Inactive)
REMARK    1  A    between atoms: C_2  and  C_3
REMARK    2  A    between atoms: C_3  and  N_4
REMARK    3  A    between atoms: C_9  and  N_15
REMARK    4  A    between atoms: C_16  and  C_18
REMARK                            x       y       z     vdW  Elec       q    Type
REMARK                         _______ _______ _______ _____ _____    ______ ____
ROOT
ATOM      4  N   UNL     1       0.654  -0.698   0.000  0.00  0.00    -0.211 N 
ATOM      5  C   UNL     1       1.139  -0.030   0.000  0.00  0.00    +0.251 C 
ATOM      6  O   UNL     1       0.884   0.754   0.000  0.00  0.00    -0.273 OA
ATOM      7  C   UNL     1       1.923  -0.285   0.000  0.00  0.00    +0.155 C 
ATOM      8  C   UNL     1       2.638   0.127   0.000  0.00  0.00    +0.051 C 
ATOM      9  C   UNL     1       3.352  -0.285   0.000  0.00  0.00    +0.099 C 
ATOM     10  C   UNL     1       3.352  -1.110   0.000  0.00  0.00    +0.043 C 
ATOM     11  C   UNL     1       2.638  -1.523   0.000  0.00  0.00    +0.097 C 
ATOM     12  N   UNL     1       1.923  -1.110   0.000  0.00  0.00    -0.257 N 
ATOM     13  C   UNL     1       1.139  -1.365   0.000  0.00  0.00    +0.313 C 
ATOM     14  O   UNL     1       0.884  -2.150   0.000  0.00  0.00    -0.252 OA
ENDROOT
BRANCH   9  15
ATOM     15  N   UNL     1       4.067   0.127   0.000  0.00  0.00    -0.203 NA
ATOM     16  C   UNL     1       4.067   0.952   0.000  0.00  0.00    +0.265 C 
ATOM     17  O   UNL     1       3.352   1.365   0.000  0.00  0.00    -0.268 OA
BRANCH  16  18
ATOM     18  C   UNL     1       4.781   1.365   0.000  0.00  0.00    +0.058 A 
ATOM     19  C   UNL     1       4.781   2.190   0.000  0.00  0.00    +0.025 A 
ATOM     20  C   UNL     1       5.496   2.602   0.000  0.00  0.00    +0.099 A 
ATOM     21  N   UNL     1       6.210   2.190   0.000  0.00  0.00    -0.242 NA
ATOM     22  C   UNL     1       6.210   1.365   0.000  0.00  0.00    +0.099 A 
ATOM     23  C   UNL     1       5.496   0.952   0.000  0.00  0.00    +0.025 A 
ENDBRANCH  16  18
ENDBRANCH   9  15
BRANCH   4   3
ATOM      3  C   UNL     1      -0.171  -0.698   0.000  0.00  0.00    +0.120 C 
BRANCH   3   2
ATOM      1 CL   UNL     1      -1.409  -1.412   0.000  0.00  0.00    -0.112 Cl
ATOM      2  C   UNL     1      -0.584  -1.412   0.000  0.00  0.00    +0.117 C 
ENDBRANCH   3   2
ENDBRANCH   4   3
TORSDOF 4
