REMARK  Name = 
REMARK  6 active torsions:
REMARK  status: ('A' for Active; 'I' for Inactive)
REMARK    1  A    between atoms: C_2  and  C_4
REMARK    2  A    between atoms: C_4  and  C_5
REMARK    3  A    between atoms: C_5  and  N_6
REMARK    4  A    between atoms: C_7  and  C_9
REMARK    5  A    between atoms: C_11  and  N_12
REMARK    6  A    between atoms: N_15  and  C_16
REMARK                            x       y       z     vdW  Elec       q    Type
REMARK                         _______ _______ _______ _____ _____    ______ ____
ROOT
ATOM      9  C   UNL     1       7.859  -7.838   0.000  0.00  0.00    +0.033 C 
ATOM     10  C   UNL     1       8.574  -7.425   0.000  0.00  0.00    -0.002 C 
ATOM     11  C   UNL     1       9.288  -7.838   0.000  0.00  0.00    +0.152 C 
ATOM     24  C   UNL     1       9.288  -8.662   0.000  0.00  0.00    +0.206 C 
ATOM     25  O   UNL     1      10.003  -9.075   0.000  0.00  0.00    -0.218 OA
ATOM     26  C   UNL     1       8.574  -9.075   0.000  0.00  0.00    +0.189 C 
ATOM     27  O   UNL     1       8.574  -9.900   0.000  0.00  0.00    -0.220 OA
ATOM     28  C   UNL     1       7.859  -8.662   0.000  0.00  0.00    +0.066 C 
ENDROOT
BRANCH  11  12
ATOM     12  N   UNL     1      10.003  -7.425   0.000  0.00  0.00    -0.181 NA
ATOM     13  C   UNL     1      10.717  -7.838   0.000  0.00  0.00    +0.344 C 
ATOM     14  O   UNL     1      10.717  -8.662   0.000  0.00  0.00    -0.249 OA
ATOM     15  N   UNL     1      11.431  -7.425   0.000  0.00  0.00    -0.159 NA
BRANCH  15  16
ATOM     16  C   UNL     1      12.146  -7.838   0.000  0.00  0.00    +0.102 A 
ATOM     17  C   UNL     1      12.861  -7.425   0.000  0.00  0.00    +0.021 A 
ATOM     18  C   UNL     1      13.575  -7.838   0.000  0.00  0.00    +0.031 A 
ATOM     19  C   UNL     1      13.575  -8.662   0.000  0.00  0.00    +0.142 A 
ATOM     20  F   UNL     1      14.289  -9.075   0.000  0.00  0.00    -0.204 F 
ATOM     21  C   UNL     1      12.861  -9.075   0.000  0.00  0.00    +0.061 A 
ATOM     22  C   UNL     1      12.146  -8.662   0.000  0.00  0.00    +0.158 A 
ATOM     23  F   UNL     1      11.431  -9.075   0.000  0.00  0.00    -0.203 F 
ENDBRANCH  15  16
ENDBRANCH  11  12
BRANCH   9   7
ATOM      6  N   UNL     1       6.430  -7.838   0.000  0.00  0.00    -0.201 NA
ATOM      7  C   UNL     1       7.145  -7.425   0.000  0.00  0.00    +0.261 C 
ATOM      8  O   UNL     1       7.145  -6.600   0.000  0.00  0.00    -0.269 OA
BRANCH   6   5
ATOM      5  C   UNL     1       5.716  -7.425   0.000  0.00  0.00    +0.125 C 
BRANCH   5   4
ATOM      4  C   UNL     1       5.001  -7.838   0.000  0.00  0.00    +0.112 C 
BRANCH   4   2
ATOM      1  N   UNL     1       3.572  -7.838   0.000  0.00  0.00    -0.088 NA
ATOM      2  C   UNL     1       4.287  -7.425   0.000  0.00  0.00    +0.263 C 
ATOM      3  O   UNL     1       4.287  -6.600   0.000  0.00  0.00    -0.272 OA
ENDBRANCH   4   2
ENDBRANCH   5   4
ENDBRANCH   6   5
ENDBRANCH   9   7
TORSDOF 6
