REMARK  Name = 
REMARK  7 active torsions:
REMARK  status: ('A' for Active; 'I' for Inactive)
REMARK    1  A    between atoms: O_2  and  C_3
REMARK    2  A    between atoms: C_5  and  N_6
REMARK    3  A    between atoms: N_9  and  C_10
REMARK    4  A    between atoms: C_10  and  C_11
REMARK    5  A    between atoms: C_15  and  C_16
REMARK    6  A    between atoms: C_16  and  C_17
REMARK    7  A    between atoms: C_25  and  C_26
REMARK                            x       y       z     vdW  Elec       q    Type
REMARK                         _______ _______ _______ _____ _____    ______ ____
ROOT
ATOM     11  C   UNL     1       3.572  -2.888   0.000  0.00  0.00    +0.043 C 
ATOM     12  C   UNL     1       4.287  -2.475   0.000  0.00  0.00    -0.033 C 
ATOM     13  C   UNL     1       5.001  -2.888   0.000  0.00  0.00    -0.048 C 
ATOM     14  C   UNL     1       5.716  -2.475   0.000  0.00  0.00    +0.026 C 
ATOM     15  C   UNL     1       5.001  -3.712   0.000  0.00  0.00    +0.027 C 
ATOM     24  C   UNL     1       4.287  -4.125   0.000  0.00  0.00    +0.005 C 
ATOM     25  C   UNL     1       3.572  -3.712   0.000  0.00  0.00    +0.006 C 
ENDROOT
BRANCH  25  26
ATOM     26  C   UNL     1       2.858  -4.125   0.000  0.00  0.00    +0.000 C 
ATOM     27  C   UNL     1       2.143  -3.712   0.000  0.00  0.00    +0.000 C 
ATOM     28  C   UNL     1       2.858  -4.950   0.000  0.00  0.00    +0.000 C 
ENDBRANCH  25  26
BRANCH  11  10
ATOM     10  C   UNL     1       2.858  -2.475   0.000  0.00  0.00    +0.121 C 
BRANCH  10   9
ATOM      6  N   UNL     1       0.715  -2.888   0.000  0.00  0.00    -0.161 NA
ATOM      7  C   UNL     1       1.429  -2.475   0.000  0.00  0.00    +0.344 C 
ATOM      8  O   UNL     1       1.429  -1.650   0.000  0.00  0.00    -0.249 OA
ATOM      9  N   UNL     1       2.143  -2.888   0.000  0.00  0.00    -0.187 NA
BRANCH   6   5
ATOM      3  C   UNL     1      -0.715  -1.238   0.000  0.00  0.00    +0.140 A 
ATOM      4  C   UNL     1       0.000  -1.650   0.000  0.00  0.00    +0.054 A 
ATOM      5  C   UNL     1       0.000  -2.475   0.000  0.00  0.00    +0.078 A 
ATOM     29  C   UNL     1      -0.715  -2.888   0.000  0.00  0.00    +0.017 A 
ATOM     30  C   UNL     1      -1.429  -2.475   0.000  0.00  0.00    +0.004 A 
ATOM     31  C   UNL     1      -1.429  -1.650   0.000  0.00  0.00    +0.037 A 
BRANCH   3   2
ATOM      1  C   UNL     1      -1.429   0.000   0.000  0.00  0.00    +0.252 C 
ATOM      2  O   UNL     1      -0.715  -0.412   0.000  0.00  0.00    -0.471 OA
ENDBRANCH   3   2
ENDBRANCH   6   5
ENDBRANCH  10   9
ENDBRANCH  11  10
BRANCH  15  16
ATOM     16  C   UNL     1       5.716  -4.125   0.000  0.00  0.00    +0.089 C 
BRANCH  16  17
ATOM     17  C   UNL     1       6.430  -3.712   0.000  0.00  0.00    +0.226 C 
ATOM     18  O   UNL     1       6.430  -2.888   0.000  0.00  0.00    -0.275 OA
ATOM     19  N   UNL     1       7.145  -4.125   0.000  0.00  0.00    -0.280 N 
ATOM     20  C   UNL     1       7.898  -3.789   0.000  0.00  0.00    +0.093 C 
ATOM     21  C   UNL     1       8.450  -4.402   0.000  0.00  0.00    +0.023 C 
ATOM     22  C   UNL     1       8.038  -5.117   0.000  0.00  0.00    +0.023 C 
ATOM     23  C   UNL     1       7.231  -4.946   0.000  0.00  0.00    +0.093 C 
ENDBRANCH  16  17
ENDBRANCH  15  16
TORSDOF 7
