REMARK  Name = 
REMARK  4 active torsions:
REMARK  status: ('A' for Active; 'I' for Inactive)
REMARK    1  A    between atoms: C_5  and  C_6
REMARK    2  A    between atoms: N_17  and  C_18
REMARK    3  A    between atoms: C_18  and  C_19
REMARK    4  A    between atoms: C_23  and  C_25
REMARK                            x       y       z     vdW  Elec       q    Type
REMARK                         _______ _______ _______ _____ _____    ______ ____
ROOT
ATOM      1  O   UNL     1      -0.784  -2.484   0.000  0.00  0.00    -0.267 OA
ATOM      2  C   UNL     1      -0.655  -1.669   0.000  0.00  0.00    +0.261 A 
ATOM      3  C   UNL     1      -1.296  -1.150   0.000  0.00  0.00    +0.061 A 
ATOM      4  C   UNL     1      -1.167  -0.335   0.000  0.00  0.00    +0.006 A 
ATOM      5  C   UNL     1      -0.397  -0.039   0.000  0.00  0.00    +0.013 A 
ATOM     12  C   UNL     1       0.244  -0.558   0.000  0.00  0.00    +0.041 A 
ATOM     13  C   UNL     1       1.163  -0.557   0.000  0.00  0.00    +0.054 C 
ATOM     14  C   UNL     1       1.713  -0.121   0.000  0.00  0.00    +0.011 C 
ATOM     15  C   UNL     1       1.582  -0.925   0.000  0.00  0.00    +0.039 C 
ATOM     16  C   UNL     1       1.629  -1.912   0.000  0.00  0.00    +0.074 C 
ATOM     17  N   UNL     1       0.813  -2.091   0.000  0.00  0.00    -0.269 NA
ATOM     27  C   UNL     1       1.225  -1.510   0.000  0.00  0.00    +0.078 C 
ATOM     28  C   UNL     1       0.622  -0.936   0.000  0.00  0.00    +0.110 C 
ATOM     29  N   UNL     1       0.115  -1.373   0.000  0.00  0.00    -0.299 N 
ENDROOT
BRANCH   5   6
ATOM      6  C   UNL     1      -0.268   0.776   0.000  0.00  0.00    +0.020 A 
ATOM      7  C   UNL     1      -0.909   1.295   0.000  0.00  0.00    +0.003 A 
ATOM      8  C   UNL     1      -0.780   2.110   0.000  0.00  0.00    +0.021 A 
ATOM      9  C   UNL     1      -0.010   2.406   0.000  0.00  0.00    +0.099 A 
ATOM     10  N   UNL     1       0.631   1.887   0.000  0.00  0.00    -0.242 NA
ATOM     11  C   UNL     1       0.502   1.072   0.000  0.00  0.00    +0.099 A 
ENDBRANCH   5   6
BRANCH  17  18
ATOM     18  C   UNL     1       0.125  -2.547   0.000  0.00  0.00    +0.099 C 
BRANCH  18  19
ATOM     19  C   UNL     1       0.176  -3.370   0.000  0.00  0.00    -0.005 A 
ATOM     20  C   UNL     1       0.914  -3.738   0.000  0.00  0.00    -0.003 A 
ATOM     21  C   UNL     1       0.965  -4.562   0.000  0.00  0.00    +0.000 A 
ATOM     22  C   UNL     1       0.277  -5.017   0.000  0.00  0.00    +0.010 A 
ATOM     23  C   UNL     1      -0.461  -4.650   0.000  0.00  0.00    +0.068 A 
ATOM     24  C   UNL     1      -0.512  -3.826   0.000  0.00  0.00    +0.007 A 
BRANCH  23  25
ATOM     25  C   UNL     1      -1.149  -5.105   0.000  0.00  0.00    +0.100 C 
ATOM     26  N   UNL     1      -1.837  -5.561   0.000  0.00  0.00    -0.191 NA
ENDBRANCH  23  25
ENDBRANCH  18  19
ENDBRANCH  17  18
TORSDOF 4
