REMARK  Name = 
REMARK  6 active torsions:
REMARK  status: ('A' for Active; 'I' for Inactive)
REMARK    1  A    between atoms: C_2  and  C_5
REMARK    2  A    between atoms: C_8  and  C_11
REMARK    3  A    between atoms: N_13  and  C_14
REMARK    4  A    between atoms: C_14  and  C_15
REMARK    5  A    between atoms: C_22  and  C_23
REMARK    6  A    between atoms: C_23  and  N_24
REMARK                            x       y       z     vdW  Elec       q    Type
REMARK                         _______ _______ _______ _____ _____    ______ ____
ROOT
ATOM     14  C   UNL     1       2.324  -2.754   0.000  0.00  0.00    +0.131 C 
ENDROOT
BRANCH  14  15
ATOM     15  C   UNL     1       1.814  -2.106   0.000  0.00  0.00    +0.079 C 
ATOM     16  C   UNL     1       1.661  -1.343   0.000  0.00  0.00    +0.018 C 
ATOM     17  C   UNL     1       0.923  -1.010   0.000  0.00  0.00    +0.005 C 
ATOM     18  C   UNL     1       0.961  -0.114   0.000  0.00  0.00    +0.017 C 
ATOM     19  C   UNL     1       1.205  -0.720   0.000  0.00  0.00    +0.072 C 
ATOM     20  N   UNL     1       1.065  -1.759   0.000  0.00  0.00    -0.272 NA
ATOM     21  C   UNL     1       0.226  -2.118   0.000  0.00  0.00    +0.073 C 
ATOM     22  C   UNL     1       0.119  -1.362   0.000  0.00  0.00    +0.032 C 
BRANCH  22  23
ATOM     23  C   UNL     1      -0.602  -0.960   0.000  0.00  0.00    +0.073 C 
BRANCH  23  24
ATOM     24  N   UNL     1      -0.614  -0.136   0.000  0.00  0.00    -0.273 NA
ATOM     25  C   UNL     1      -1.289   0.339   0.000  0.00  0.00    +0.072 C 
ATOM     26  C   UNL     1      -1.046   1.128   0.000  0.00  0.00    +0.019 C 
ATOM     27  C   UNL     1      -0.221   1.140   0.000  0.00  0.00    +0.019 C 
ATOM     28  C   UNL     1       0.046   0.359   0.000  0.00  0.00    +0.072 C 
ENDBRANCH  23  24
ENDBRANCH  22  23
ENDBRANCH  14  15
BRANCH  14  13
ATOM     11  C   UNL     1       2.529  -4.168   0.000  0.00  0.00    +0.265 C 
ATOM     12  O   UNL     1       3.345  -4.050   0.000  0.00  0.00    -0.268 OA
ATOM     13  N   UNL     1       2.018  -3.520   0.000  0.00  0.00    -0.200 NA
BRANCH  11   8
ATOM      5  C   UNL     1       1.611  -6.466   0.000  0.00  0.00    +0.071 A 
ATOM      6  C   UNL     1       1.100  -5.818   0.000  0.00  0.00    +0.004 A 
ATOM      7  C   UNL     1       1.406  -5.052   0.000  0.00  0.00    +0.005 A 
ATOM      8  C   UNL     1       2.223  -4.934   0.000  0.00  0.00    +0.055 A 
ATOM      9  C   UNL     1       2.733  -5.582   0.000  0.00  0.00    +0.005 A 
ATOM     10  C   UNL     1       2.427  -6.348   0.000  0.00  0.00    +0.004 A 
BRANCH   5   2
ATOM      1  F   UNL     1       0.998  -7.998   0.000  0.00  0.00    -0.166 F 
ATOM      2  C   UNL     1       1.304  -7.232   0.000  0.00  0.00    +0.419 C 
ATOM      3  F   UNL     1       2.071  -7.538   0.000  0.00  0.00    -0.166 F 
ATOM      4  F   UNL     1       0.538  -6.926   0.000  0.00  0.00    -0.166 F 
ENDBRANCH   5   2
ENDBRANCH  11   8
ENDBRANCH  14  13
TORSDOF 6
