REMARK  Name = 
REMARK  8 active torsions:
REMARK  status: ('A' for Active; 'I' for Inactive)
REMARK    1  A    between atoms: N_2  and  C_4
REMARK    2  A    between atoms: C_4  and  C_5
REMARK    3  A    between atoms: C_5  and  N_6
REMARK    4  A    between atoms: C_7  and  C_9
REMARK    5  A    between atoms: C_9  and  C_10
REMARK    6  A    between atoms: C_15  and  C_17
REMARK    7  A    between atoms: C_28  and  C_30
REMARK    8  A    between atoms: C_30  and  C_31
REMARK                            x       y       z     vdW  Elec       q    Type
REMARK                         _______ _______ _______ _____ _____    ______ ____
ROOT
ATOM     10  C   UNL     1       7.859   2.062   0.000  0.00  0.00    +0.050 C 
ATOM     11  C   UNL     1       8.574   2.475   0.000  0.00  0.00    +0.063 A 
ATOM     12  C   UNL     1       9.288   2.062   0.000  0.00  0.00    +0.023 A 
ATOM     13  C   UNL     1       9.288   1.238   0.000  0.00  0.00    +0.034 C 
ATOM     14  C   UNL     1       8.574   0.825   0.000  0.00  0.00    +0.010 C 
ATOM     15  C   UNL     1       8.574   0.000   0.000  0.00  0.00    +0.059 C 
ATOM     16  C   UNL     1       9.386   0.143   0.000  0.00  0.00    +0.005 C 
ATOM     19  C   UNL     1       7.859  -0.412   0.000  0.00  0.00    +0.154 C 
ATOM     20  O   UNL     1       7.859  -1.238   0.000  0.00  0.00    -0.223 OA
ATOM     21  C   UNL     1       7.145   0.000   0.000  0.00  0.00    +0.033 C 
ATOM     22  C   UNL     1       7.145   0.825   0.000  0.00  0.00    +0.003 C 
ATOM     23  C   UNL     1       7.859   1.238   0.000  0.00  0.00    +0.006 C 
ATOM     24  C   UNL     1       7.145   1.650   0.000  0.00  0.00    +0.000 C 
ATOM     25  S   UNL     1       9.901   2.615   0.000  0.00  0.00    -0.054 S 
ATOM     26  C   UNL     1       9.566   3.368   0.000  0.00  0.00    +0.185 A 
ATOM     27  N   UNL     1       9.978   4.083   0.000  0.00  0.00    -0.154 NA
ATOM     28  C   UNL     1       9.566   4.797   0.000  0.00  0.00    +0.247 C 
ATOM     29  O   UNL     1       8.741   4.797   0.000  0.00  0.00    -0.273 OA
ATOM     35  N   UNL     1       8.745   3.282   0.000  0.00  0.00    -0.227 NA
ENDROOT
BRANCH  15  17
ATOM     17  C   UNL     1       8.856  -0.775   0.000  0.00  0.00    +0.184 C 
ATOM     18  O   UNL     1       8.325  -1.407   0.000  0.00  0.00    -0.220 OA
ENDBRANCH  15  17
BRANCH  10   9
ATOM      9  C   UNL     1       7.145   2.475   0.000  0.00  0.00    +0.093 C 
BRANCH   9   7
ATOM      6  N   UNL     1       5.716   2.475   0.000  0.00  0.00    -0.204 NA
ATOM      7  C   UNL     1       6.430   2.062   0.000  0.00  0.00    +0.242 C 
ATOM      8  O   UNL     1       6.430   1.238   0.000  0.00  0.00    -0.273 OA
BRANCH   6   5
ATOM      5  C   UNL     1       5.001   2.062   0.000  0.00  0.00    +0.132 C 
BRANCH   5   4
ATOM      4  C   UNL     1       4.287   2.475   0.000  0.00  0.00    +0.096 C 
BRANCH   4   2
ATOM      1  C   UNL     1       2.858   2.475   0.000  0.00  0.00    +0.090 C 
ATOM      2  N   UNL     1       3.572   2.062   0.000  0.00  0.00    -0.269 NA
ATOM      3  C   UNL     1       3.572   1.238   0.000  0.00  0.00    +0.090 C 
ENDBRANCH   4   2
ENDBRANCH   5   4
ENDBRANCH   6   5
ENDBRANCH   9   7
ENDBRANCH  10   9
BRANCH  28  30
ATOM     30  C   UNL     1       9.978   5.512   0.000  0.00  0.00    +0.087 C 
BRANCH  30  31
ATOM     31  C   UNL     1       9.566   6.226   0.000  0.00  0.00    +0.009 C 
ATOM     32  C   UNL     1       9.153   6.941   0.000  0.00  0.00    +0.000 C 
ATOM     33  C   UNL     1      10.280   6.639   0.000  0.00  0.00    +0.000 C 
ATOM     34  C   UNL     1       8.851   5.814   0.000  0.00  0.00    +0.000 C 
ENDBRANCH  30  31
ENDBRANCH  28  30
TORSDOF 8
