REMARK  Name = 
REMARK  4 active torsions:
REMARK  status: ('A' for Active; 'I' for Inactive)
REMARK    1  A    between atoms: C_2  and  C_4
REMARK    2  A    between atoms: N_6  and  C_7
REMARK    3  A    between atoms: C_13  and  C_14
REMARK    4  A    between atoms: C_17  and  C_20
REMARK                            x       y       z     vdW  Elec       q    Type
REMARK                         _______ _______ _______ _____ _____    ______ ____
ROOT
ATOM      7  C   UNL     1       0.715  -1.238   0.000  0.00  0.00    +0.132 C 
ATOM      8  C   UNL     1       1.382  -1.722   0.000  0.00  0.00    +0.202 C 
ATOM      9  O   UNL     1       2.167  -1.468   0.000  0.00  0.00    -0.219 OA
ATOM     10  C   UNL     1       1.127  -2.507   0.000  0.00  0.00    +0.184 C 
ATOM     11  O   UNL     1       1.612  -3.175   0.000  0.00  0.00    -0.220 OA
ATOM     12  C   UNL     1       0.302  -2.507   0.000  0.00  0.00    +0.042 C 
ATOM     13  C   UNL     1       0.047  -1.722   0.000  0.00  0.00    +0.049 C 
ENDROOT
BRANCH  13  14
ATOM     14  C   UNL     1      -0.738  -1.468   0.000  0.00  0.00    -0.002 A 
ATOM     15  C   UNL     1      -1.351  -2.019   0.000  0.00  0.00    +0.095 A 
ATOM     16  N   UNL     1      -2.135  -1.765   0.000  0.00  0.00    -0.240 NA
ATOM     17  C   UNL     1      -2.307  -0.958   0.000  0.00  0.00    +0.153 A 
ATOM     18  C   UNL     1      -1.694  -0.406   0.000  0.00  0.00    +0.023 A 
ATOM     19  C   UNL     1      -0.909  -0.660   0.000  0.00  0.00    -0.001 A 
BRANCH  17  20
ATOM     20  C   UNL     1      -3.091  -0.703   0.000  0.00  0.00    +0.435 C 
ATOM     21  F   UNL     1      -3.876  -0.448   0.000  0.00  0.00    -0.164 F 
ATOM     22  F   UNL     1      -2.837   0.082   0.000  0.00  0.00    -0.164 F 
ATOM     23  F   UNL     1      -3.346  -1.487   0.000  0.00  0.00    -0.164 F 
ENDBRANCH  17  20
ENDBRANCH  13  14
BRANCH   7   6
ATOM      4  C   UNL     1       1.429   0.000   0.000  0.00  0.00    +0.241 C 
ATOM      5  O   UNL     1       2.143  -0.412   0.000  0.00  0.00    -0.273 OA
ATOM      6  N   UNL     1       0.715  -0.412   0.000  0.00  0.00    -0.204 NA
BRANCH   4   2
ATOM      1  C   UNL     1       2.143   1.238   0.000  0.00  0.00    +0.010 C 
ATOM      2  C   UNL     1       1.429   0.825   0.000  0.00  0.00    +0.078 C 
ATOM      3  C   UNL     1       0.715   1.238   0.000  0.00  0.00    +0.010 C 
ENDBRANCH   4   2
ENDBRANCH   7   6
TORSDOF 4
