REMARK  Name = 
REMARK  7 active torsions:
REMARK  status: ('A' for Active; 'I' for Inactive)
REMARK    1  A    between atoms: N_2  and  C_3
REMARK    2  A    between atoms: C_3  and  C_4
REMARK    3  A    between atoms: C_6  and  C_8
REMARK    4  A    between atoms: C_8  and  C_9
REMARK    5  A    between atoms: C_14  and  C_15
REMARK    6  A    between atoms: C_15  and  C_16
REMARK    7  A    between atoms: C_19  and  C_21
REMARK                            x       y       z     vdW  Elec       q    Type
REMARK                         _______ _______ _______ _____ _____    ______ ____
ROOT
ATOM      9  C   UNL     1       6.924  -5.797   0.000  0.00  0.00    +0.012 C 
ATOM     10  C   UNL     1       6.511  -5.083   0.000  0.00  0.00    +0.019 C 
ATOM     11  C   UNL     1       6.924  -4.368   0.000  0.00  0.00    +0.089 C 
ATOM     12  N   UNL     1       7.749  -4.368   0.000  0.00  0.00    -0.218 NA
ATOM     13  C   UNL     1       8.162  -5.083   0.000  0.00  0.00    +0.089 C 
ATOM     14  C   UNL     1       7.749  -5.797   0.000  0.00  0.00    +0.024 C 
ENDROOT
BRANCH   9   8
ATOM      8  C   UNL     1       6.511  -6.512   0.000  0.00  0.00    +0.085 C 
BRANCH   8   6
ATOM      1  C   UNL     1       5.686  -7.941   0.000  0.00  0.00    +0.116 C 
ATOM      2  N   UNL     1       5.274  -7.226   0.000  0.00  0.00    -0.266 N 
ATOM      6  C   UNL     1       5.686  -6.512   0.000  0.00  0.00    +0.226 C 
ATOM      7  O   UNL     1       5.274  -5.797   0.000  0.00  0.00    -0.275 OA
BRANCH   2   3
ATOM      3  C   UNL     1       4.449  -7.226   0.000  0.00  0.00    +0.172 C 
BRANCH   3   4
ATOM      4  C   UNL     1       4.037  -6.512   0.000  0.00  0.00    -0.056 C 
ATOM      5  C   UNL     1       3.624  -5.797   0.000  0.00  0.00    -0.012 C 
ENDBRANCH   3   4
ENDBRANCH   2   3
ENDBRANCH   8   6
ENDBRANCH   9   8
BRANCH  14  15
ATOM     15  C   UNL     1       8.162  -6.512   0.000  0.00  0.00    +0.051 C 
BRANCH  15  16
ATOM     16  C   UNL     1       8.986  -6.512   0.000  0.00  0.00    +0.101 A 
ATOM     17  N   UNL     1       9.471  -5.844   0.000  0.00  0.00    -0.081 NA
ATOM     18  O   UNL     1      10.256  -6.099   0.000  0.00  0.00    -0.354 OA
ATOM     19  C   UNL     1      10.256  -6.924   0.000  0.00  0.00    +0.177 A 
ATOM     20  C   UNL     1       9.471  -7.179   0.000  0.00  0.00    +0.058 A 
BRANCH  19  21
ATOM     21  C   UNL     1      10.924  -7.409   0.000  0.00  0.00    +0.037 A 
ATOM     22  C   UNL     1      11.677  -7.074   0.000  0.00  0.00    +0.005 A 
ATOM     23  C   UNL     1      12.345  -7.559   0.000  0.00  0.00    +0.030 A 
ATOM     24  C   UNL     1      12.258  -8.379   0.000  0.00  0.00    +0.140 A 
ATOM     25  F   UNL     1      12.926  -8.864   0.000  0.00  0.00    -0.204 F 
ATOM     26  C   UNL     1      11.505  -8.714   0.000  0.00  0.00    +0.030 A 
ATOM     27  C   UNL     1      10.837  -8.230   0.000  0.00  0.00    +0.005 A 
ENDBRANCH  19  21
ENDBRANCH  15  16
ENDBRANCH  14  15
TORSDOF 7
