REMARK  Name = 
REMARK  3 active torsions:
REMARK  status: ('A' for Active; 'I' for Inactive)
REMARK    1  A    between atoms: N_3  and  C_22
REMARK    2  A    between atoms: N_7  and  C_8
REMARK    3  A    between atoms: C_8  and  C_9
REMARK                            x       y       z     vdW  Elec       q    Type
REMARK                         _______ _______ _______ _____ _____    ______ ____
ROOT
ATOM      1  O   UNL     1       5.097  -2.277   0.000  0.00  0.00    -0.252 OA
ATOM      2  C   UNL     1       5.352  -1.492   0.000  0.00  0.00    +0.307 C 
ATOM      3  N   UNL     1       4.867  -0.825   0.000  0.00  0.00    -0.264 N 
ATOM      4  C   UNL     1       5.352  -0.158   0.000  0.00  0.00    +0.116 C 
ATOM      5  C   UNL     1       6.137  -0.412   0.000  0.00  0.00    +0.113 C 
ATOM      6  C   UNL     1       6.851   0.000   0.000  0.00  0.00    +0.094 C 
ATOM      7  N   UNL     1       7.566  -0.412   0.000  0.00  0.00    -0.266 NA
ATOM     19  C   UNL     1       7.566  -1.238   0.000  0.00  0.00    +0.094 C 
ATOM     20  C   UNL     1       6.851  -1.650   0.000  0.00  0.00    +0.112 C 
ATOM     21  N   UNL     1       6.137  -1.238   0.000  0.00  0.00    -0.261 N 
ENDROOT
BRANCH   3  22
ATOM     22  C   UNL     1       4.042  -0.825   0.000  0.00  0.00    +0.077 C 
ATOM     23  C   UNL     1       3.630  -1.540   0.000  0.00  0.00    +0.020 C 
ATOM     24  C   UNL     1       2.805  -1.540   0.000  0.00  0.00    +0.002 C 
ATOM     25  C   UNL     1       2.392  -0.825   0.000  0.00  0.00    +0.000 C 
ATOM     26  C   UNL     1       2.805  -0.111   0.000  0.00  0.00    +0.002 C 
ATOM     27  C   UNL     1       3.630  -0.111   0.000  0.00  0.00    +0.020 C 
ENDBRANCH   3  22
BRANCH   7   8
ATOM      8  C   UNL     1       8.280   0.000   0.000  0.00  0.00    +0.099 C 
BRANCH   8   9
ATOM      9  C   UNL     1       8.995  -0.412   0.000  0.00  0.00    -0.003 A 
ATOM     10  C   UNL     1       9.709   0.000   0.000  0.00  0.00    +0.000 A 
ATOM     11  C   UNL     1      10.424  -0.412   0.000  0.00  0.00    +0.040 A 
ATOM     12  C   UNL     1      10.424  -1.238   0.000  0.00  0.00    +0.172 A 
ATOM     13  O   UNL     1      11.138  -1.650   0.000  0.00  0.00    -0.468 OA
ATOM     14  C   UNL     1      11.138  -2.475   0.000  0.00  0.00    +0.253 C 
ATOM     15  C   UNL     1      10.424  -2.888   0.000  0.00  0.00    +0.253 C 
ATOM     16  O   UNL     1       9.709  -2.475   0.000  0.00  0.00    -0.468 OA
ATOM     17  C   UNL     1       9.709  -1.650   0.000  0.00  0.00    +0.172 A 
ATOM     18  C   UNL     1       8.995  -1.238   0.000  0.00  0.00    +0.037 A 
ENDBRANCH   8   9
ENDBRANCH   7   8
TORSDOF 3
