REMARK  Name = 
REMARK  4 active torsions:
REMARK  status: ('A' for Active; 'I' for Inactive)
REMARK    1  A    between atoms: C_2  and  O_5
REMARK    2  A    between atoms: O_5  and  C_6
REMARK    3  A    between atoms: C_9  and  C_12
REMARK    4  A    between atoms: C_15  and  C_17
REMARK                            x       y       z     vdW  Elec       q    Type
REMARK                         _______ _______ _______ _____ _____    ______ ____
ROOT
ATOM      6  C   UNL     1       0.715   1.238   0.000  0.00  0.00    +0.147 A 
ATOM      7  C   UNL     1       1.429   0.825   0.000  0.00  0.00    +0.037 A 
ATOM      8  C   UNL     1       1.429   0.000   0.000  0.00  0.00    +0.005 A 
ATOM      9  C   UNL     1       0.715  -0.412   0.000  0.00  0.00    +0.019 A 
ATOM     10  C   UNL     1       0.000   0.000   0.000  0.00  0.00    +0.005 A 
ATOM     11  C   UNL     1       0.000   0.825   0.000  0.00  0.00    +0.037 A 
ENDROOT
BRANCH   9  12
ATOM     12  C   UNL     1       0.715  -1.238   0.000  0.00  0.00    +0.102 A 
ATOM     13  C   UNL     1       1.382  -1.722   0.000  0.00  0.00    +0.119 A 
ATOM     14  N   UNL     1       1.127  -2.507   0.000  0.00  0.00    -0.226 NA
ATOM     15  C   UNL     1       0.302  -2.507   0.000  0.00  0.00    +0.157 A 
ATOM     16  N   UNL     1       0.047  -1.722   0.000  0.00  0.00    -0.228 NA
BRANCH  15  17
ATOM     17  C   UNL     1      -0.183  -3.175   0.000  0.00  0.00    +0.160 C 
ATOM     18  C   UNL     1       0.153  -3.928   0.000  0.00  0.00    +0.167 C 
ATOM     19  O   UNL     1      -0.332  -4.596   0.000  0.00  0.00    -0.350 OA
ATOM     20  C   UNL     1      -1.153  -4.509   0.000  0.00  0.00    +0.161 C 
ATOM     21  C   UNL     1      -1.488  -3.756   0.000  0.00  0.00    +0.121 C 
ATOM     22  N   UNL     1      -1.003  -3.088   0.000  0.00  0.00    -0.207 NA
ENDBRANCH  15  17
ENDBRANCH   9  12
BRANCH   6   5
ATOM      5  O   UNL     1       0.715   2.062   0.000  0.00  0.00    -0.404 OA
BRANCH   5   2
ATOM      1  F   UNL     1      -0.715   2.888   0.000  0.00  0.00    -0.133 F 
ATOM      2  C   UNL     1       0.000   2.475   0.000  0.00  0.00    +0.575 C 
ATOM      3  F   UNL     1      -0.412   1.760   0.000  0.00  0.00    -0.133 F 
ATOM      4  F   UNL     1       0.412   3.189   0.000  0.00  0.00    -0.133 F 
ENDBRANCH   5   2
ENDBRANCH   6   5
TORSDOF 4
