REMARK  Name = 
REMARK  6 active torsions:
REMARK  status: ('A' for Active; 'I' for Inactive)
REMARK    1  A    between atoms: C_2  and  O_5
REMARK    2  A    between atoms: O_5  and  C_6
REMARK    3  A    between atoms: C_9  and  C_10
REMARK    4  A    between atoms: C_10  and  N_11
REMARK    5  A    between atoms: C_14  and  C_16
REMARK    6  A    between atoms: C_19  and  C_21
REMARK                            x       y       z     vdW  Elec       q    Type
REMARK                         _______ _______ _______ _____ _____    ______ ____
ROOT
ATOM     11  N   UNL     1       2.024  -3.041   0.000  0.00  0.00    -0.268 NA
ATOM     12  C   UNL     1       2.692  -3.525   0.000  0.00  0.00    +0.073 C 
ATOM     13  C   UNL     1       2.437  -4.310   0.000  0.00  0.00    +0.028 C 
ATOM     14  C   UNL     1       1.612  -4.310   0.000  0.00  0.00    +0.096 C 
ATOM     15  C   UNL     1       1.357  -3.525   0.000  0.00  0.00    +0.082 C 
ENDROOT
BRANCH  14  16
ATOM     16  C   UNL     1       1.127  -4.977   0.000  0.00  0.00    +0.227 A 
ATOM     17  N   UNL     1       1.382  -5.762   0.000  0.00  0.00    -0.111 NA
ATOM     18  N   UNL     1       0.715  -6.247   0.000  0.00  0.00    -0.107 NA
ATOM     19  C   UNL     1       0.047  -5.762   0.000  0.00  0.00    +0.250 A 
ATOM     20  O   UNL     1       0.302  -4.977   0.000  0.00  0.00    -0.419 OA
BRANCH  19  21
ATOM     21  C   UNL     1      -0.738  -6.017   0.000  0.00  0.00    +0.055 A 
ATOM     22  C   UNL     1      -0.909  -6.824   0.000  0.00  0.00    +0.005 A 
ATOM     23  C   UNL     1      -1.694  -7.079   0.000  0.00  0.00    +0.000 A 
ATOM     24  C   UNL     1      -2.307  -6.527   0.000  0.00  0.00    +0.000 A 
ATOM     25  C   UNL     1      -2.135  -5.720   0.000  0.00  0.00    +0.000 A 
ATOM     26  C   UNL     1      -1.351  -5.465   0.000  0.00  0.00    +0.005 A 
ENDBRANCH  19  21
ENDBRANCH  14  16
BRANCH  11  10
ATOM     10  C   UNL     1       2.024  -2.216   0.000  0.00  0.00    +0.099 C 
BRANCH  10   9
ATOM      6  C   UNL     1       4.168  -0.978   0.000  0.00  0.00    +0.147 A 
ATOM      7  C   UNL     1       4.168  -1.803   0.000  0.00  0.00    +0.037 A 
ATOM      8  C   UNL     1       3.453  -2.216   0.000  0.00  0.00    +0.000 A 
ATOM      9  C   UNL     1       2.739  -1.803   0.000  0.00  0.00    -0.006 A 
ATOM     27  C   UNL     1       2.739  -0.978   0.000  0.00  0.00    +0.000 A 
ATOM     28  C   UNL     1       3.453  -0.566   0.000  0.00  0.00    +0.037 A 
BRANCH   6   5
ATOM      5  O   UNL     1       4.882  -0.566   0.000  0.00  0.00    -0.404 OA
BRANCH   5   2
ATOM      1  F   UNL     1       4.882   1.085   0.000  0.00  0.00    -0.133 F 
ATOM      2  C   UNL     1       4.882   0.260   0.000  0.00  0.00    +0.575 C 
ATOM      3  F   UNL     1       4.057   0.260   0.000  0.00  0.00    -0.133 F 
ATOM      4  F   UNL     1       5.707   0.260   0.000  0.00  0.00    -0.133 F 
ENDBRANCH   5   2
ENDBRANCH   6   5
ENDBRANCH  10   9
ENDBRANCH  11  10
TORSDOF 6
