REMARK  Name = 
REMARK  6 active torsions:
REMARK  status: ('A' for Active; 'I' for Inactive)
REMARK    1  A    between atoms: C_2  and  C_4
REMARK    2  A    between atoms: C_6  and  C_7
REMARK    3  A    between atoms: C_7  and  C_8
REMARK    4  A    between atoms: C_19  and  C_20
REMARK    5  A    between atoms: C_20  and  N_21
REMARK    6  A    between atoms: N_24  and  C_25
REMARK                            x       y       z     vdW  Elec       q    Type
REMARK                         _______ _______ _______ _____ _____    ______ ____
ROOT
ATOM      4  C   UNL     1      -0.715  -2.888   0.000  0.00  0.00    +0.006 C 
ATOM      5  C   UNL     1      -1.429  -2.475   0.000  0.00  0.00    +0.005 C 
ATOM      6  C   UNL     1      -1.429  -1.650   0.000  0.00  0.00    +0.027 C 
ATOM     16  C   UNL     1      -0.715  -1.238   0.000  0.00  0.00    -0.048 C 
ATOM     17  C   UNL     1      -0.715  -0.412   0.000  0.00  0.00    +0.026 C 
ATOM     18  C   UNL     1       0.000  -1.650   0.000  0.00  0.00    -0.033 C 
ATOM     19  C   UNL     1       0.000  -2.475   0.000  0.00  0.00    +0.043 C 
ENDROOT
BRANCH   4   2
ATOM      1  C   UNL     1       0.000  -4.125   0.000  0.00  0.00    +0.000 C 
ATOM      2  C   UNL     1      -0.715  -3.712   0.000  0.00  0.00    +0.000 C 
ATOM      3  C   UNL     1      -1.429  -4.125   0.000  0.00  0.00    +0.000 C 
ENDBRANCH   4   2
BRANCH   6   7
ATOM      7  C   UNL     1      -2.143  -1.238   0.000  0.00  0.00    +0.089 C 
BRANCH   7   8
ATOM      8  C   UNL     1      -2.143  -0.412   0.000  0.00  0.00    +0.226 C 
ATOM      9  O   UNL     1      -1.429   0.000   0.000  0.00  0.00    -0.275 OA
ATOM     10  N   UNL     1      -2.858   0.000   0.000  0.00  0.00    -0.274 N 
ATOM     11  C   UNL     1      -3.572  -0.412   0.000  0.00  0.00    +0.125 C 
ATOM     12  C   UNL     1      -4.287   0.000   0.000  0.00  0.00    +0.164 C 
ATOM     13  O   UNL     1      -4.287   0.825   0.000  0.00  0.00    -0.350 OA
ATOM     14  C   UNL     1      -3.572   1.238   0.000  0.00  0.00    +0.164 C 
ATOM     15  C   UNL     1      -2.858   0.825   0.000  0.00  0.00    +0.125 C 
ENDBRANCH   7   8
ENDBRANCH   6   7
BRANCH  19  20
ATOM     20  C   UNL     1       0.715  -2.888   0.000  0.00  0.00    +0.121 C 
BRANCH  20  21
ATOM     21  N   UNL     1       1.429  -2.475   0.000  0.00  0.00    -0.187 NA
ATOM     22  C   UNL     1       2.143  -2.888   0.000  0.00  0.00    +0.344 C 
ATOM     23  O   UNL     1       2.143  -3.712   0.000  0.00  0.00    -0.249 OA
ATOM     24  N   UNL     1       2.858  -2.475   0.000  0.00  0.00    -0.161 NA
BRANCH  24  25
ATOM     25  C   UNL     1       3.572  -2.888   0.000  0.00  0.00    +0.075 A 
ATOM     26  C   UNL     1       4.287  -2.475   0.000  0.00  0.00    +0.017 A 
ATOM     27  C   UNL     1       5.001  -2.888   0.000  0.00  0.00    +0.001 A 
ATOM     28  C   UNL     1       5.001  -3.712   0.000  0.00  0.00    +0.000 A 
ATOM     29  C   UNL     1       4.287  -4.125   0.000  0.00  0.00    +0.001 A 
ATOM     30  C   UNL     1       3.572  -3.712   0.000  0.00  0.00    +0.017 A 
ENDBRANCH  24  25
ENDBRANCH  20  21
ENDBRANCH  19  20
TORSDOF 6
