REMARK  Name = 
REMARK  6 active torsions:
REMARK  status: ('A' for Active; 'I' for Inactive)
REMARK    1  A    between atoms: C_2  and  C_4
REMARK    2  A    between atoms: C_4  and  N_5
REMARK    3  A    between atoms: C_9  and  C_10
REMARK    4  A    between atoms: C_12  and  C_15
REMARK    5  A    between atoms: C_18  and  O_19
REMARK    6  A    between atoms: O_19  and  C_20
REMARK                            x       y       z     vdW  Elec       q    Type
REMARK                         _______ _______ _______ _____ _____    ______ ____
ROOT
ATOM     10  C   UNL     1       3.635  -4.803   0.000  0.00  0.00    +0.251 A 
ATOM     11  N   UNL     1       2.967  -5.287   0.000  0.00  0.00    -0.190 NA
ATOM     12  C   UNL     1       2.300  -4.803   0.000  0.00  0.00    +0.205 A 
ATOM     13  N   UNL     1       2.555  -4.018   0.000  0.00  0.00    -0.056 NA
ATOM     14  O   UNL     1       3.380  -4.018   0.000  0.00  0.00    -0.336 OA
ENDROOT
BRANCH  12  15
ATOM     15  C   UNL     1       1.515  -5.057   0.000  0.00  0.00    +0.058 A 
ATOM     16  C   UNL     1       1.343  -5.864   0.000  0.00  0.00    +0.010 A 
ATOM     17  C   UNL     1       0.559  -6.119   0.000  0.00  0.00    +0.058 A 
ATOM     18  C   UNL     1      -0.054  -5.567   0.000  0.00  0.00    +0.225 A 
ATOM     26  N   UNL     1       0.117  -4.760   0.000  0.00  0.00    -0.210 NA
ATOM     27  C   UNL     1       0.902  -4.505   0.000  0.00  0.00    +0.105 A 
BRANCH  18  19
ATOM     19  O   UNL     1      -0.839  -5.822   0.000  0.00  0.00    -0.464 OA
BRANCH  19  20
ATOM     20  C   UNL     1      -1.452  -5.270   0.000  0.00  0.00    +0.168 C 
ATOM     21  C   UNL     1      -2.237  -5.525   0.000  0.00  0.00    +0.044 C 
ATOM     22  C   UNL     1      -2.850  -4.973   0.000  0.00  0.00    +0.004 C 
ATOM     23  C   UNL     1      -2.678  -4.166   0.000  0.00  0.00    +0.000 C 
ATOM     24  C   UNL     1      -1.893  -3.911   0.000  0.00  0.00    +0.004 C 
ATOM     25  C   UNL     1      -1.280  -4.463   0.000  0.00  0.00    +0.044 C 
ENDBRANCH  19  20
ENDBRANCH  18  19
ENDBRANCH  12  15
BRANCH  10   9
ATOM      5  N   UNL     1       5.087  -4.572   0.000  0.00  0.00    -0.266 NA
ATOM      6  C   UNL     1       5.754  -5.057   0.000  0.00  0.00    +0.073 C 
ATOM      7  C   UNL     1       5.499  -5.842   0.000  0.00  0.00    +0.019 C 
ATOM      8  C   UNL     1       4.674  -5.842   0.000  0.00  0.00    +0.027 C 
ATOM      9  C   UNL     1       4.419  -5.057   0.000  0.00  0.00    +0.138 C 
BRANCH   5   4
ATOM      4  C   UNL     1       5.087  -3.748   0.000  0.00  0.00    +0.072 C 
BRANCH   4   2
ATOM      1  C   UNL     1       5.801  -2.510   0.000  0.00  0.00    +0.001 C 
ATOM      2  C   UNL     1       5.801  -3.335   0.000  0.00  0.00    +0.016 C 
ATOM      3  C   UNL     1       6.516  -3.748   0.000  0.00  0.00    +0.001 C 
ENDBRANCH   4   2
ENDBRANCH   5   4
ENDBRANCH  10   9
TORSDOF 6
