REMARK  Name = 
REMARK  11 active torsions:
REMARK  status: ('A' for Active; 'I' for Inactive)
REMARK    1  A    between atoms: N_2  and  C_3
REMARK    2  A    between atoms: C_3  and  C_5
REMARK    3  A    between atoms: C_10  and  N_29
REMARK    4  A    between atoms: C_12  and  C_13
REMARK    5  A    between atoms: N_15  and  C_16
REMARK    6  A    between atoms: C_16  and  C_17
REMARK    7  A    between atoms: C_16  and  C_26
REMARK    8  A    between atoms: C_17  and  C_18
REMARK    9  A    between atoms: C_21  and  O_22
REMARK   10  A    between atoms: C_30  and  C_32
REMARK   11  A    between atoms: C_32  and  C_33
REMARK                            x       y       z     vdW  Elec       q    Type
REMARK                         _______ _______ _______ _____ _____    ______ ____
ROOT
ATOM      5  C   UNL     1      -1.429  -2.475   0.000  0.00  0.00    +0.242 C 
ATOM      6  O   UNL     1      -0.715  -2.888   0.000  0.00  0.00    -0.273 OA
ATOM      7  N   UNL     1      -1.429  -1.650   0.000  0.00  0.00    -0.272 N 
ATOM      8  C   UNL     1      -2.143  -1.238   0.000  0.00  0.00    +0.096 C 
ATOM      9  C   UNL     1      -2.143  -0.412   0.000  0.00  0.00    +0.043 C 
ATOM     10  C   UNL     1      -1.429   0.000   0.000  0.00  0.00    +0.099 C 
ATOM     11  C   UNL     1      -0.715  -0.412   0.000  0.00  0.00    +0.051 C 
ATOM     12  C   UNL     1      -0.715  -1.238   0.000  0.00  0.00    +0.155 C 
ENDROOT
BRANCH  12  13
ATOM     13  C   UNL     1       0.000  -1.650   0.000  0.00  0.00    +0.260 C 
ATOM     14  O   UNL     1       0.715  -1.238   0.000  0.00  0.00    -0.272 OA
ATOM     15  N   UNL     1       0.000  -2.475   0.000  0.00  0.00    -0.196 NA
BRANCH  15  16
ATOM     16  C   UNL     1       0.715  -2.888   0.000  0.00  0.00    +0.179 C 
BRANCH  16  26
ATOM     26  C   UNL     1       1.429  -2.475   0.000  0.00  0.00    +0.281 C 
ATOM     27  N   UNL     1       1.429  -1.650   0.000  0.00  0.00    -0.086 NA
ATOM     28  O   UNL     1       2.143  -2.888   0.000  0.00  0.00    -0.270 OA
ENDBRANCH  16  26
BRANCH  16  17
ATOM     17  C   UNL     1       0.715  -3.712   0.000  0.00  0.00    +0.057 C 
BRANCH  17  18
ATOM     18  C   UNL     1       1.429  -4.125   0.000  0.00  0.00    -0.020 A 
ATOM     19  C   UNL     1       2.143  -3.712   0.000  0.00  0.00    -0.001 A 
ATOM     20  C   UNL     1       2.858  -4.125   0.000  0.00  0.00    +0.037 A 
ATOM     21  C   UNL     1       2.858  -4.950   0.000  0.00  0.00    +0.139 A 
ATOM     24  C   UNL     1       2.143  -5.362   0.000  0.00  0.00    +0.037 A 
ATOM     25  C   UNL     1       1.429  -4.950   0.000  0.00  0.00    -0.001 A 
BRANCH  21  22
ATOM     22  O   UNL     1       3.572  -5.362   0.000  0.00  0.00    -0.471 OA
ATOM     23  C   UNL     1       3.572  -6.188   0.000  0.00  0.00    +0.252 C 
ENDBRANCH  21  22
ENDBRANCH  17  18
ENDBRANCH  16  17
ENDBRANCH  15  16
ENDBRANCH  12  13
BRANCH  10  29
ATOM     29  N   UNL     1      -1.429   0.825   0.000  0.00  0.00    -0.207 NA
ATOM     30  C   UNL     1      -0.715   1.238   0.000  0.00  0.00    +0.246 C 
ATOM     31  O   UNL     1      -0.715   2.062   0.000  0.00  0.00    -0.273 OA
BRANCH  30  32
ATOM     32  C   UNL     1       0.000   0.825   0.000  0.00  0.00    +0.120 C 
BRANCH  32  33
ATOM     33  C   UNL     1       0.715   1.238   0.000  0.00  0.00    +0.016 A 
ATOM     34  C   UNL     1       0.801   2.058   0.000  0.00  0.00    +0.003 A 
ATOM     35  C   UNL     1       1.608   2.229   0.000  0.00  0.00    +0.007 A 
ATOM     36  C   UNL     1       2.020   1.515   0.000  0.00  0.00    +0.035 A 
ATOM     37  S   UNL     1       1.468   0.902   0.000  0.00  0.00    -0.090 S 
ENDBRANCH  32  33
ENDBRANCH  30  32
ENDBRANCH  10  29
BRANCH   5   3
ATOM      3  C   UNL     1      -2.143  -2.888   0.000  0.00  0.00    +0.149 C 
ATOM      4  C   UNL     1      -2.143  -3.712   0.000  0.00  0.00    +0.029 C 
BRANCH   3   2
ATOM      1  C   UNL     1      -2.858  -1.650   0.000  0.00  0.00    +0.108 C 
ATOM      2  N   UNL     1      -2.858  -2.475   0.000  0.00  0.00    -0.209 NA
ENDBRANCH   3   2
ENDBRANCH   5   3
TORSDOF 11
