REMARK  Name = 
REMARK  6 active torsions:
REMARK  status: ('A' for Active; 'I' for Inactive)
REMARK    1  A    between atoms: C_4  and  C_5
REMARK    2  A    between atoms: C_5  and  C_6
REMARK    3  A    between atoms: C_9  and  C_11
REMARK    4  A    between atoms: C_19  and  N_20
REMARK    5  A    between atoms: N_20  and  C_21
REMARK    6  A    between atoms: C_21  and  C_22
REMARK                            x       y       z     vdW  Elec       q    Type
REMARK                         _______ _______ _______ _____ _____    ______ ____
ROOT
ATOM      1  C   UNL     1       2.012  -1.892   0.000  0.00  0.00    +0.001 C 
ATOM      2  C   UNL     1       1.429  -2.475   0.000  0.00  0.00    +0.015 C 
ATOM      3  C   UNL     1       0.846  -1.892   0.000  0.00  0.00    +0.001 C 
ATOM      4  C   UNL     1       2.012  -3.058   0.000  0.00  0.00    +0.009 C 
ATOM     18  C   UNL     1       1.429  -3.642   0.000  0.00  0.00    +0.018 C 
ATOM     19  C   UNL     1       0.846  -3.058   0.000  0.00  0.00    +0.073 C 
ENDROOT
BRANCH   4   5
ATOM      5  C   UNL     1       2.837  -3.058   0.000  0.00  0.00    +0.049 C 
BRANCH   5   6
ATOM      6  C   UNL     1       3.250  -3.773   0.000  0.00  0.00    +0.101 A 
ATOM      7  N   UNL     1       4.070  -3.859   0.000  0.00  0.00    -0.081 NA
ATOM      8  O   UNL     1       4.242  -4.666   0.000  0.00  0.00    -0.354 OA
ATOM      9  C   UNL     1       3.527  -5.079   0.000  0.00  0.00    +0.177 A 
ATOM     10  C   UNL     1       2.914  -4.527   0.000  0.00  0.00    +0.058 A 
BRANCH   9  11
ATOM     11  C   UNL     1       3.441  -5.899   0.000  0.00  0.00    +0.037 A 
ATOM     12  C   UNL     1       4.109  -6.384   0.000  0.00  0.00    +0.005 A 
ATOM     13  C   UNL     1       4.022  -7.204   0.000  0.00  0.00    +0.030 A 
ATOM     14  C   UNL     1       3.269  -7.540   0.000  0.00  0.00    +0.140 A 
ATOM     15  F   UNL     1       3.182  -8.361   0.000  0.00  0.00    -0.204 F 
ATOM     16  C   UNL     1       2.601  -7.055   0.000  0.00  0.00    +0.030 A 
ATOM     17  C   UNL     1       2.687  -6.235   0.000  0.00  0.00    +0.005 A 
ENDBRANCH   9  11
ENDBRANCH   5   6
ENDBRANCH   4   5
BRANCH  19  20
ATOM     20  N   UNL     1       0.021  -3.058   0.000  0.00  0.00    -0.215 NA
BRANCH  20  21
ATOM     21  C   UNL     1      -0.392  -3.773   0.000  0.00  0.00    +0.116 C 
BRANCH  21  22
ATOM     22  C   UNL     1      -1.217  -3.773   0.000  0.00  0.00    +0.014 A 
ATOM     23  C   UNL     1      -1.629  -4.487   0.000  0.00  0.00    +0.000 A 
ATOM     24  C   UNL     1      -2.454  -4.487   0.000  0.00  0.00    +0.020 A 
ATOM     25  C   UNL     1      -2.867  -3.773   0.000  0.00  0.00    +0.099 A 
ATOM     26  N   UNL     1      -2.454  -3.058   0.000  0.00  0.00    -0.243 NA
ATOM     27  C   UNL     1      -1.629  -3.058   0.000  0.00  0.00    +0.096 A 
ENDBRANCH  21  22
ENDBRANCH  20  21
ENDBRANCH  19  20
TORSDOF 6
