REMARK  Name = 
REMARK  7 active torsions:
REMARK  status: ('A' for Active; 'I' for Inactive)
REMARK    1  A    between atoms: N_2  and  C_3
REMARK    2  A    between atoms: C_3  and  C_4
REMARK    3  A    between atoms: C_10  and  C_12
REMARK    4  A    between atoms: C_12  and  C_13
REMARK    5  A    between atoms: C_15  and  C_16
REMARK    6  A    between atoms: C_16  and  N_17
REMARK    7  A    between atoms: C_18  and  C_20
REMARK                            x       y       z     vdW  Elec       q    Type
REMARK                         _______ _______ _______ _____ _____    ______ ____
ROOT
ATOM     13  C   UNL     1       6.672  -5.886   0.000  0.00  0.00    +0.157 C 
ATOM     14  O   UNL     1       7.425  -5.550   0.000  0.00  0.00    -0.351 OA
ATOM     15  C   UNL     1       7.977  -6.163   0.000  0.00  0.00    +0.170 C 
ATOM     27  C   UNL     1       7.565  -6.878   0.000  0.00  0.00    +0.213 C 
ATOM     28  O   UNL     1       7.900  -7.631   0.000  0.00  0.00    -0.218 OA
ATOM     29  C   UNL     1       6.758  -6.706   0.000  0.00  0.00    +0.212 C 
ATOM     30  O   UNL     1       6.145  -7.258   0.000  0.00  0.00    -0.218 OA
ENDROOT
BRANCH  13  12
ATOM     12  C   UNL     1       5.957  -5.473   0.000  0.00  0.00    +0.117 C 
BRANCH  12  10
ATOM      1  C   UNL     1       4.528  -4.648   0.000  0.00  0.00    +0.115 C 
ATOM      2  N   UNL     1       4.528  -5.473   0.000  0.00  0.00    -0.274 N 
ATOM     10  C   UNL     1       5.243  -5.886   0.000  0.00  0.00    +0.228 C 
ATOM     11  O   UNL     1       5.243  -6.711   0.000  0.00  0.00    -0.275 OA
BRANCH   2   3
ATOM      3  C   UNL     1       3.814  -5.886   0.000  0.00  0.00    +0.120 C 
BRANCH   3   4
ATOM      4  C   UNL     1       3.099  -5.473   0.000  0.00  0.00    -0.002 A 
ATOM      5  C   UNL     1       2.385  -5.886   0.000  0.00  0.00    -0.003 A 
ATOM      6  C   UNL     1       1.670  -5.473   0.000  0.00  0.00    -0.000 A 
ATOM      7  C   UNL     1       1.670  -4.648   0.000  0.00  0.00    -0.000 A 
ATOM      8  C   UNL     1       2.385  -4.236   0.000  0.00  0.00    -0.000 A 
ATOM      9  C   UNL     1       3.099  -4.648   0.000  0.00  0.00    -0.003 A 
ENDBRANCH   3   4
ENDBRANCH   2   3
ENDBRANCH  12  10
ENDBRANCH  13  12
BRANCH  15  16
ATOM     16  C   UNL     1       8.798  -6.077   0.000  0.00  0.00    +0.148 C 
BRANCH  16  17
ATOM     17  N   UNL     1       9.283  -6.744   0.000  0.00  0.00    -0.199 NA
ATOM     18  C   UNL     1      10.103  -6.658   0.000  0.00  0.00    +0.265 C 
ATOM     19  O   UNL     1      10.439  -5.904   0.000  0.00  0.00    -0.268 OA
BRANCH  18  20
ATOM     20  C   UNL     1      10.588  -7.325   0.000  0.00  0.00    +0.055 A 
ATOM     21  C   UNL     1      11.409  -7.239   0.000  0.00  0.00    +0.004 A 
ATOM     22  C   UNL     1      11.893  -7.907   0.000  0.00  0.00    -0.004 A 
ATOM     23  C   UNL     1      11.558  -8.660   0.000  0.00  0.00    -0.022 A 
ATOM     24  C   UNL     1      12.043  -9.328   0.000  0.00  0.00    +0.031 C 
ATOM     25  C   UNL     1      10.738  -8.747   0.000  0.00  0.00    -0.004 A 
ATOM     26  C   UNL     1      10.253  -8.079   0.000  0.00  0.00    +0.004 A 
ENDBRANCH  18  20
ENDBRANCH  16  17
ENDBRANCH  15  16
TORSDOF 7
