REMARK  Name = 
REMARK  5 active torsions:
REMARK  status: ('A' for Active; 'I' for Inactive)
REMARK    1  A    between atoms: N_2  and  C_4
REMARK    2  A    between atoms: C_7  and  C_10
REMARK    3  A    between atoms: C_13  and  C_15
REMARK    4  A    between atoms: N_19  and  C_20
REMARK    5  A    between atoms: C_20  and  C_21
REMARK                            x       y       z     vdW  Elec       q    Type
REMARK                         _______ _______ _______ _____ _____    ______ ____
ROOT
ATOM     15  C   UNL     1       4.734   3.658   0.000  0.00  0.00    +0.138 C 
ATOM     16  C   UNL     1       4.479   4.442   0.000  0.00  0.00    +0.027 C 
ATOM     17  C   UNL     1       3.654   4.442   0.000  0.00  0.00    +0.019 C 
ATOM     18  C   UNL     1       3.399   3.658   0.000  0.00  0.00    +0.073 C 
ATOM     19  N   UNL     1       4.067   3.173   0.000  0.00  0.00    -0.263 NA
ENDROOT
BRANCH  15  13
ATOM     10  C   UNL     1       6.599   2.618   0.000  0.00  0.00    +0.205 A 
ATOM     11  N   UNL     1       6.854   3.403   0.000  0.00  0.00    -0.056 NA
ATOM     12  O   UNL     1       6.186   3.888   0.000  0.00  0.00    -0.336 OA
ATOM     13  C   UNL     1       5.519   3.403   0.000  0.00  0.00    +0.251 A 
ATOM     14  N   UNL     1       5.774   2.618   0.000  0.00  0.00    -0.190 NA
BRANCH  10   7
ATOM      4  C   UNL     1       8.053   0.616   0.000  0.00  0.00    +0.132 A 
ATOM      5  C   UNL     1       7.233   0.530   0.000  0.00  0.00    +0.034 A 
ATOM      6  C   UNL     1       6.748   1.197   0.000  0.00  0.00    +0.008 A 
ATOM      7  C   UNL     1       7.084   1.951   0.000  0.00  0.00    +0.058 A 
ATOM      8  C   UNL     1       7.904   2.037   0.000  0.00  0.00    +0.103 A 
ATOM      9  N   UNL     1       8.389   1.370   0.000  0.00  0.00    -0.229 NA
BRANCH   4   2
ATOM      1  C   UNL     1       9.359   0.035   0.000  0.00  0.00    +0.114 C 
ATOM      2  N   UNL     1       8.538  -0.051   0.000  0.00  0.00    -0.290 N 
ATOM      3  C   UNL     1       8.203  -0.805   0.000  0.00  0.00    +0.114 C 
ENDBRANCH   4   2
ENDBRANCH  10   7
ENDBRANCH  15  13
BRANCH  19  20
ATOM     20  C   UNL     1       4.067   2.348   0.000  0.00  0.00    +0.100 C 
BRANCH  20  21
ATOM     21  C   UNL     1       3.352   1.935   0.000  0.00  0.00    -0.003 A 
ATOM     22  C   UNL     1       3.352   1.110   0.000  0.00  0.00    +0.000 A 
ATOM     23  C   UNL     1       2.638   0.698   0.000  0.00  0.00    +0.040 A 
ATOM     24  C   UNL     1       1.923   1.110   0.000  0.00  0.00    +0.176 A 
ATOM     25  O   UNL     1       1.139   0.856   0.000  0.00  0.00    -0.435 OA
ATOM     26  C   UNL     1       0.654   1.523   0.000  0.00  0.00    +0.429 C 
ATOM     27  O   UNL     1       1.139   2.190   0.000  0.00  0.00    -0.435 OA
ATOM     28  C   UNL     1       1.923   1.935   0.000  0.00  0.00    +0.176 A 
ATOM     29  C   UNL     1       2.638   2.348   0.000  0.00  0.00    +0.037 A 
ENDBRANCH  20  21
ENDBRANCH  19  20
TORSDOF 5
