REMARK  Name = 
REMARK  7 active torsions:
REMARK  status: ('A' for Active; 'I' for Inactive)
REMARK    1  A    between atoms: C_2  and  C_3
REMARK    2  A    between atoms: C_3  and  C_4
REMARK    3  A    between atoms: C_4  and  C_5
REMARK    4  A    between atoms: C_7  and  C_8
REMARK    5  A    between atoms: C_8  and  C_9
REMARK    6  A    between atoms: C_14  and  C_15
REMARK    7  A    between atoms: C_15  and  C_16
REMARK                            x       y       z     vdW  Elec       q    Type
REMARK                         _______ _______ _______ _____ _____    ______ ____
ROOT
ATOM      9  C   UNL     1       1.110  -3.150   0.000  0.00  0.00    +0.024 C 
ATOM     10  C   UNL     1       1.446  -2.396   0.000  0.00  0.00    +0.089 C 
ATOM     11  N   UNL     1       2.266  -2.310   0.000  0.00  0.00    -0.218 NA
ATOM     12  C   UNL     1       2.751  -2.977   0.000  0.00  0.00    +0.089 C 
ATOM     13  C   UNL     1       2.416  -3.731   0.000  0.00  0.00    +0.019 C 
ATOM     14  C   UNL     1       1.595  -3.817   0.000  0.00  0.00    +0.012 C 
ENDROOT
BRANCH   9   8
ATOM      8  C   UNL     1       0.290  -3.236   0.000  0.00  0.00    +0.051 C 
BRANCH   8   7
ATOM      5  C   UNL     1      -0.608  -1.299   0.000  0.00  0.00    +0.154 A 
ATOM      6  C   UNL     1       0.060  -1.784   0.000  0.00  0.00    +0.054 A 
ATOM      7  C   UNL     1      -0.195  -2.569   0.000  0.00  0.00    +0.100 A 
ATOM     24  N   UNL     1      -1.020  -2.569   0.000  0.00  0.00    -0.082 NA
ATOM     25  O   UNL     1      -1.275  -1.784   0.000  0.00  0.00    -0.358 OA
BRANCH   5   4
ATOM      4  C   UNL     1      -0.608  -0.474   0.000  0.00  0.00    +0.067 C 
BRANCH   4   3
ATOM      3  C   UNL     1      -1.322  -0.062   0.000  0.00  0.00    +0.008 C 
BRANCH   3   2
ATOM      1  C   UNL     1      -2.037   1.176   0.000  0.00  0.00    +0.000 C 
ATOM      2  C   UNL     1      -1.322   0.763   0.000  0.00  0.00    +0.000 C 
ENDBRANCH   3   2
ENDBRANCH   4   3
ENDBRANCH   5   4
ENDBRANCH   8   7
ENDBRANCH   9   8
BRANCH  14  15
ATOM     15  C   UNL     1       1.260  -4.571   0.000  0.00  0.00    +0.087 C 
BRANCH  15  16
ATOM     16  C   UNL     1       0.439  -4.657   0.000  0.00  0.00    +0.247 C 
ATOM     17  O   UNL     1      -0.046  -3.990   0.000  0.00  0.00    -0.273 OA
ATOM     18  N   UNL     1       0.103  -5.411   0.000  0.00  0.00    -0.154 NA
ATOM     19  C   UNL     1       0.588  -6.078   0.000  0.00  0.00    +0.186 A 
ATOM     20  N   UNL     1       1.413  -6.078   0.000  0.00  0.00    -0.221 NA
ATOM     21  C   UNL     1       1.668  -6.863   0.000  0.00  0.00    +0.108 A 
ATOM     22  C   UNL     1       1.001  -7.348   0.000  0.00  0.00    +0.059 A 
ATOM     23  S   UNL     1       0.333  -6.863   0.000  0.00  0.00    -0.049 S 
ENDBRANCH  15  16
ENDBRANCH  14  15
TORSDOF 7
