REMARK  Name = 
REMARK  10 active torsions:
REMARK  status: ('A' for Active; 'I' for Inactive)
REMARK    1  A    between atoms: O_2  and  C_3
REMARK    2  A    between atoms: C_3  and  C_4
REMARK    3  A    between atoms: C_4  and  N_5
REMARK    4  A    between atoms: N_8  and  C_9
REMARK    5  A    between atoms: C_9  and  C_10
REMARK    6  A    between atoms: C_14  and  C_15
REMARK    7  A    between atoms: C_15  and  C_16
REMARK    8  A    between atoms: C_19  and  C_21
REMARK    9  A    between atoms: C_24  and  O_25
REMARK   10  A    between atoms: C_30  and  C_31
REMARK                            x       y       z     vdW  Elec       q    Type
REMARK                         _______ _______ _______ _____ _____    ______ ____
ROOT
ATOM     10  C   UNL     1       2.858   0.825   0.000  0.00  0.00    +0.037 C 
ATOM     11  C   UNL     1       2.858   0.000   0.000  0.00  0.00    -0.034 C 
ATOM     12  C   UNL     1       2.143  -0.412   0.000  0.00  0.00    -0.048 C 
ATOM     13  C   UNL     1       2.143  -1.238   0.000  0.00  0.00    +0.026 C 
ATOM     14  C   UNL     1       1.429   0.000   0.000  0.00  0.00    +0.027 C 
ATOM     29  C   UNL     1       1.429   0.825   0.000  0.00  0.00    +0.005 C 
ATOM     30  C   UNL     1       2.143   1.238   0.000  0.00  0.00    +0.006 C 
ENDROOT
BRANCH  30  31
ATOM     31  C   UNL     1       2.143   2.062   0.000  0.00  0.00    +0.000 C 
ATOM     32  C   UNL     1       2.858   2.475   0.000  0.00  0.00    +0.000 C 
ATOM     33  C   UNL     1       1.429   2.475   0.000  0.00  0.00    +0.000 C 
ENDBRANCH  30  31
BRANCH  10   9
ATOM      9  C   UNL     1       3.572   1.238   0.000  0.00  0.00    +0.076 C 
BRANCH   9   8
ATOM      5  N   UNL     1       5.716   0.000   0.000  0.00  0.00    -0.268 NA
ATOM      6  C   UNL     1       5.001  -0.412   0.000  0.00  0.00    +0.090 C 
ATOM      7  C   UNL     1       4.287   0.000   0.000  0.00  0.00    +0.090 C 
ATOM      8  N   UNL     1       4.287   0.825   0.000  0.00  0.00    -0.270 NA
ATOM     34  C   UNL     1       5.001   1.238   0.000  0.00  0.00    +0.090 C 
ATOM     35  C   UNL     1       5.716   0.825   0.000  0.00  0.00    +0.090 C 
BRANCH   5   4
ATOM      4  C   UNL     1       6.430  -0.412   0.000  0.00  0.00    +0.105 C 
BRANCH   4   3
ATOM      3  C   UNL     1       7.145   0.000   0.000  0.00  0.00    +0.160 C 
BRANCH   3   2
ATOM      1  C   UNL     1       8.574   0.000   0.000  0.00  0.00    +0.174 C 
ATOM      2  O   UNL     1       7.859  -0.412   0.000  0.00  0.00    -0.350 OA
ENDBRANCH   3   2
ENDBRANCH   4   3
ENDBRANCH   5   4
ENDBRANCH   9   8
ENDBRANCH  10   9
BRANCH  14  15
ATOM     15  C   UNL     1       0.715  -0.412   0.000  0.00  0.00    +0.091 C 
BRANCH  15  16
ATOM     16  C   UNL     1       0.715  -1.238   0.000  0.00  0.00    +0.227 A 
ATOM     17  N   UNL     1       1.382  -1.722   0.000  0.00  0.00    -0.111 NA
ATOM     18  N   UNL     1       1.127  -2.507   0.000  0.00  0.00    -0.107 NA
ATOM     19  C   UNL     1       0.302  -2.507   0.000  0.00  0.00    +0.250 A 
ATOM     20  O   UNL     1       0.047  -1.722   0.000  0.00  0.00    -0.420 OA
BRANCH  19  21
ATOM     21  C   UNL     1      -0.183  -3.175   0.000  0.00  0.00    +0.055 A 
ATOM     22  C   UNL     1       0.153  -3.928   0.000  0.00  0.00    +0.008 A 
ATOM     23  C   UNL     1      -0.332  -4.596   0.000  0.00  0.00    +0.037 A 
ATOM     24  C   UNL     1      -1.153  -4.509   0.000  0.00  0.00    +0.139 A 
ATOM     27  C   UNL     1      -1.488  -3.756   0.000  0.00  0.00    +0.037 A 
ATOM     28  C   UNL     1      -1.003  -3.088   0.000  0.00  0.00    +0.008 A 
BRANCH  24  25
ATOM     25  O   UNL     1      -1.638  -5.177   0.000  0.00  0.00    -0.471 OA
ATOM     26  C   UNL     1      -1.302  -5.931   0.000  0.00  0.00    +0.252 C 
ENDBRANCH  24  25
ENDBRANCH  19  21
ENDBRANCH  15  16
ENDBRANCH  14  15
TORSDOF 10
