REMARK  Name = 
REMARK  5 active torsions:
REMARK  status: ('A' for Active; 'I' for Inactive)
REMARK    1  A    between atoms: C_2  and  C_4
REMARK    2  A    between atoms: C_4  and  N_5
REMARK    3  A    between atoms: C_9  and  C_10
REMARK    4  A    between atoms: C_12  and  C_15
REMARK    5  A    between atoms: C_18  and  N_21
REMARK                            x       y       z     vdW  Elec       q    Type
REMARK                         _______ _______ _______ _____ _____    ______ ____
ROOT
ATOM     10  C   UNL     1      -2.047  -3.270   0.000  0.00  0.00    +0.251 A 
ATOM     11  N   UNL     1      -2.715  -3.755   0.000  0.00  0.00    -0.190 NA
ATOM     12  C   UNL     1      -3.382  -3.270   0.000  0.00  0.00    +0.205 A 
ATOM     13  N   UNL     1      -3.127  -2.486   0.000  0.00  0.00    -0.056 NA
ATOM     14  O   UNL     1      -2.303  -2.486   0.000  0.00  0.00    -0.336 OA
ENDROOT
BRANCH  12  15
ATOM     15  C   UNL     1      -4.167  -3.525   0.000  0.00  0.00    +0.058 A 
ATOM     16  C   UNL     1      -4.338  -4.332   0.000  0.00  0.00    +0.008 A 
ATOM     17  C   UNL     1      -5.123  -4.587   0.000  0.00  0.00    +0.034 A 
ATOM     18  C   UNL     1      -5.736  -4.035   0.000  0.00  0.00    +0.132 A 
ATOM     19  N   UNL     1      -5.565  -3.228   0.000  0.00  0.00    -0.229 NA
ATOM     20  C   UNL     1      -4.780  -2.973   0.000  0.00  0.00    +0.103 A 
BRANCH  18  21
ATOM     21  N   UNL     1      -6.521  -4.290   0.000  0.00  0.00    -0.290 N 
ATOM     22  C   UNL     1      -6.692  -5.097   0.000  0.00  0.00    +0.114 C 
ATOM     23  C   UNL     1      -7.134  -3.738   0.000  0.00  0.00    +0.114 C 
ENDBRANCH  18  21
ENDBRANCH  12  15
BRANCH  10   9
ATOM      5  N   UNL     1      -0.596  -3.041   0.000  0.00  0.00    -0.266 NA
ATOM      6  C   UNL     1       0.072  -3.525   0.000  0.00  0.00    +0.073 C 
ATOM      7  C   UNL     1      -0.183  -4.310   0.000  0.00  0.00    +0.019 C 
ATOM      8  C   UNL     1      -1.008  -4.310   0.000  0.00  0.00    +0.027 C 
ATOM      9  C   UNL     1      -1.263  -3.525   0.000  0.00  0.00    +0.138 C 
BRANCH   5   4
ATOM      4  C   UNL     1      -0.596  -2.216   0.000  0.00  0.00    +0.072 C 
BRANCH   4   2
ATOM      1  C   UNL     1       0.119  -0.978   0.000  0.00  0.00    +0.001 C 
ATOM      2  C   UNL     1       0.119  -1.803   0.000  0.00  0.00    +0.016 C 
ATOM      3  C   UNL     1       0.834  -2.216   0.000  0.00  0.00    +0.001 C 
ENDBRANCH   4   2
ENDBRANCH   5   4
ENDBRANCH  10   9
TORSDOF 5
