REMARK  Name = 
REMARK  8 active torsions:
REMARK  status: ('A' for Active; 'I' for Inactive)
REMARK    1  A    between atoms: O_2  and  C_3
REMARK    2  A    between atoms: C_6  and  N_7
REMARK    3  A    between atoms: N_10  and  C_11
REMARK    4  A    between atoms: C_13  and  C_19
REMARK    5  A    between atoms: N_21  and  C_22
REMARK    6  A    between atoms: C_22  and  C_23
REMARK    7  A    between atoms: C_22  and  C_33
REMARK    8  A    between atoms: C_23  and  C_24
REMARK                            x       y       z     vdW  Elec       q    Type
REMARK                         _______ _______ _______ _____ _____    ______ ____
ROOT
ATOM     11  C   UNL     1      -2.522   4.001   0.000  0.00  0.00    +0.119 C 
ATOM     12  C   UNL     1      -2.037   3.334   0.000  0.00  0.00    +0.053 C 
ATOM     13  C   UNL     1      -2.522   2.666   0.000  0.00  0.00    +0.155 C 
ATOM     14  N   UNL     1      -3.307   2.921   0.000  0.00  0.00    -0.271 N 
ATOM     15  C   UNL     1      -3.307   3.746   0.000  0.00  0.00    +0.115 C 
ATOM     16  C   UNL     1      -3.974   2.436   0.000  0.00  0.00    +0.226 C 
ATOM     17  C   UNL     1      -4.728   2.772   0.000  0.00  0.00    +0.095 C 
ATOM     18  O   UNL     1      -3.888   1.616   0.000  0.00  0.00    -0.275 OA
ENDROOT
BRANCH  11  10
ATOM      7  N   UNL     1      -2.564   6.184   0.000  0.00  0.00    -0.161 NA
ATOM      8  C   UNL     1      -2.819   5.399   0.000  0.00  0.00    +0.343 C 
ATOM      9  O   UNL     1      -3.626   5.228   0.000  0.00  0.00    -0.249 OA
ATOM     10  N   UNL     1      -2.267   4.786   0.000  0.00  0.00    -0.187 NA
BRANCH   7   6
ATOM      3  C   UNL     1      -4.221   8.023   0.000  0.00  0.00    +0.139 A 
ATOM      4  C   UNL     1      -3.413   8.194   0.000  0.00  0.00    +0.038 A 
ATOM      5  C   UNL     1      -2.861   7.581   0.000  0.00  0.00    +0.020 A 
ATOM      6  C   UNL     1      -3.116   6.797   0.000  0.00  0.00    +0.075 A 
ATOM     36  C   UNL     1      -3.923   6.625   0.000  0.00  0.00    +0.020 A 
ATOM     37  C   UNL     1      -4.476   7.238   0.000  0.00  0.00    +0.038 A 
BRANCH   3   2
ATOM      1  C   UNL     1      -5.580   8.464   0.000  0.00  0.00    +0.252 C 
ATOM      2  O   UNL     1      -4.773   8.636   0.000  0.00  0.00    -0.471 OA
ENDBRANCH   3   2
ENDBRANCH   7   6
ENDBRANCH  11  10
BRANCH  13  19
ATOM     19  C   UNL     1      -2.267   1.882   0.000  0.00  0.00    +0.260 C 
ATOM     20  O   UNL     1      -2.819   1.269   0.000  0.00  0.00    -0.272 OA
ATOM     21  N   UNL     1      -1.460   1.710   0.000  0.00  0.00    -0.196 NA
BRANCH  21  22
ATOM     22  C   UNL     1      -1.205   0.926   0.000  0.00  0.00    +0.179 C 
BRANCH  22  33
ATOM     33  C   UNL     1      -1.758   0.313   0.000  0.00  0.00    +0.281 C 
ATOM     34  N   UNL     1      -1.502  -0.472   0.000  0.00  0.00    -0.086 NA
ATOM     35  O   UNL     1      -2.564   0.484   0.000  0.00  0.00    -0.270 OA
ENDBRANCH  22  33
BRANCH  22  23
ATOM     23  C   UNL     1      -0.398   0.754   0.000  0.00  0.00    +0.059 C 
BRANCH  23  24
ATOM     24  C   UNL     1      -0.143  -0.030   0.000  0.00  0.00    +0.001 A 
ATOM     25  C   UNL     1      -0.628  -0.698   0.000  0.00  0.00    +0.095 A 
ATOM     26  N   UNL     1      -0.143  -1.365   0.000  0.00  0.00    -0.244 NA
ATOM     27  C   UNL     1       0.641  -1.110   0.000  0.00  0.00    +0.081 A 
ATOM     28  C   UNL     1       0.641  -0.285   0.000  0.00  0.00    +0.015 A 
ATOM     29  C   UNL     1       1.356   0.127   0.000  0.00  0.00    +0.001 A 
ATOM     30  C   UNL     1       2.070  -0.285   0.000  0.00  0.00    +0.000 A 
ATOM     31  C   UNL     1       2.070  -1.110   0.000  0.00  0.00    +0.002 A 
ATOM     32  C   UNL     1       1.356  -1.523   0.000  0.00  0.00    +0.019 A 
ENDBRANCH  23  24
ENDBRANCH  22  23
ENDBRANCH  21  22
ENDBRANCH  13  19
TORSDOF 8
