REMARK  Name = 
REMARK  14 active torsions:
REMARK  status: ('A' for Active; 'I' for Inactive)
REMARK    1  A    between atoms: O_2  and  C_3
REMARK    2  A    between atoms: C_5  and  N_6
REMARK    3  A    between atoms: N_9  and  C_10
REMARK    4  A    between atoms: C_14  and  C_15
REMARK    5  A    between atoms: N_17  and  C_18
REMARK    6  A    between atoms: C_18  and  C_19
REMARK    7  A    between atoms: C_18  and  C_28
REMARK    8  A    between atoms: C_19  and  C_20
REMARK    9  A    between atoms: C_20  and  C_21
REMARK   10  A    between atoms: C_21  and  N_22
REMARK   11  A    between atoms: C_23  and  C_25
REMARK   12  A    between atoms: C_25  and  S_26
REMARK   13  A    between atoms: C_31  and  C_33
REMARK   14  A    between atoms: C_33  and  S_34
REMARK                            x       y       z     vdW  Elec       q    Type
REMARK                         _______ _______ _______ _____ _____    ______ ____
ROOT
ATOM     10  C   UNL     1      -4.685   1.699   0.000  0.00  0.00    +0.126 C 
ATOM     11  C   UNL     1      -5.492   1.528   0.000  0.00  0.00    +0.045 C 
ATOM     12  C   UNL     1      -5.905   2.242   0.000  0.00  0.00    +0.096 C 
ATOM     13  N   UNL     1      -5.353   2.855   0.000  0.00  0.00    -0.271 N 
ATOM     14  C   UNL     1      -4.599   2.520   0.000  0.00  0.00    +0.174 C 
ATOM     31  C   UNL     1      -5.524   3.662   0.000  0.00  0.00    +0.237 C 
ATOM     32  O   UNL     1      -4.911   4.214   0.000  0.00  0.00    -0.274 OA
ENDROOT
BRANCH  10   9
ATOM      6  N   UNL     1      -3.631  -0.212   0.000  0.00  0.00    -0.161 NA
ATOM      7  C   UNL     1      -4.244   0.340   0.000  0.00  0.00    +0.344 C 
ATOM      8  O   UNL     1      -5.028   0.085   0.000  0.00  0.00    -0.249 OA
ATOM      9  N   UNL     1      -4.072   1.147   0.000  0.00  0.00    -0.186 NA
BRANCH   6   5
ATOM      3  C   UNL     1      -4.758  -2.081   0.000  0.00  0.00    +0.140 A 
ATOM      4  C   UNL     1      -4.587  -1.274   0.000  0.00  0.00    +0.054 A 
ATOM      5  C   UNL     1      -3.802  -1.019   0.000  0.00  0.00    +0.078 A 
ATOM     36  C   UNL     1      -3.189  -1.571   0.000  0.00  0.00    +0.017 A 
ATOM     37  C   UNL     1      -3.361  -2.378   0.000  0.00  0.00    +0.004 A 
ATOM     38  C   UNL     1      -4.145  -2.633   0.000  0.00  0.00    +0.037 A 
BRANCH   3   2
ATOM      1  C   UNL     1      -5.714  -3.143   0.000  0.00  0.00    +0.252 C 
ATOM      2  O   UNL     1      -5.543  -2.336   0.000  0.00  0.00    -0.471 OA
ENDBRANCH   3   2
ENDBRANCH   6   5
ENDBRANCH  10   9
BRANCH  14  15
ATOM     15  C   UNL     1      -3.885   2.932   0.000  0.00  0.00    +0.262 C 
ATOM     16  O   UNL     1      -3.885   3.757   0.000  0.00  0.00    -0.271 OA
ATOM     17  N   UNL     1      -3.170   2.520   0.000  0.00  0.00    -0.196 NA
BRANCH  17  18
ATOM     18  C   UNL     1      -2.455   2.932   0.000  0.00  0.00    +0.174 C 
BRANCH  18  28
ATOM     28  C   UNL     1      -2.455   3.757   0.000  0.00  0.00    +0.281 C 
ATOM     29  N   UNL     1      -1.741   4.170   0.000  0.00  0.00    -0.086 NA
ATOM     30  O   UNL     1      -3.170   4.170   0.000  0.00  0.00    -0.270 OA
ENDBRANCH  18  28
BRANCH  18  19
ATOM     19  C   UNL     1      -1.741   2.520   0.000  0.00  0.00    +0.033 C 
BRANCH  19  20
ATOM     20  C   UNL     1      -1.027   2.932   0.000  0.00  0.00    +0.026 C 
BRANCH  20  21
ATOM     21  C   UNL     1      -0.312   2.520   0.000  0.00  0.00    +0.115 C 
BRANCH  21  22
ATOM     22  N   UNL     1       0.402   2.932   0.000  0.00  0.00    -0.205 NA
ATOM     23  C   UNL     1       1.117   2.520   0.000  0.00  0.00    +0.252 C 
ATOM     24  O   UNL     1       1.117   1.695   0.000  0.00  0.00    -0.272 OA
BRANCH  23  25
ATOM     25  C   UNL     1       1.831   2.932   0.000  0.00  0.00    +0.144 C 
BRANCH  25  26
ATOM     26  S   UNL     1       2.546   2.520   0.000  0.00  0.00    -0.130 S 
ATOM     27  C   UNL     1       3.260   2.932   0.000  0.00  0.00    +0.070 C 
ENDBRANCH  25  26
ENDBRANCH  23  25
ENDBRANCH  21  22
ENDBRANCH  20  21
ENDBRANCH  19  20
ENDBRANCH  18  19
ENDBRANCH  17  18
ENDBRANCH  14  15
BRANCH  31  33
ATOM     33  C   UNL     1      -6.309   3.917   0.000  0.00  0.00    +0.143 C 
BRANCH  33  34
ATOM     34  S   UNL     1      -6.922   3.365   0.000  0.00  0.00    -0.130 S 
ATOM     35  C   UNL     1      -7.707   3.620   0.000  0.00  0.00    +0.070 C 
ENDBRANCH  33  34
ENDBRANCH  31  33
TORSDOF 14
