REMARK  Name = 
REMARK  12 active torsions:
REMARK  status: ('A' for Active; 'I' for Inactive)
REMARK    1  A    between atoms: C_2  and  C_4
REMARK    2  A    between atoms: C_6  and  C_7
REMARK    3  A    between atoms: C_7  and  C_8
REMARK    4  A    between atoms: C_21  and  C_22
REMARK    5  A    between atoms: C_22  and  N_23
REMARK    6  A    between atoms: C_24  and  C_26
REMARK    7  A    between atoms: C_26  and  O_27
REMARK    8  A    between atoms: C_26  and  C_31
REMARK    9  A    between atoms: O_27  and  C_28
REMARK   10  A    between atoms: C_31  and  O_32
REMARK   11  A    between atoms: C_31  and  C_36
REMARK   12  A    between atoms: O_32  and  C_33
REMARK                            x       y       z     vdW  Elec       q    Type
REMARK                         _______ _______ _______ _____ _____    ______ ____
ROOT
ATOM      4  C   UNL     1      -0.469  -4.878   0.000  0.00  0.00    +0.006 C 
ATOM      5  C   UNL     1      -1.183  -4.466   0.000  0.00  0.00    +0.005 C 
ATOM      6  C   UNL     1      -1.183  -3.641   0.000  0.00  0.00    +0.026 C 
ATOM     18  C   UNL     1      -0.469  -3.228   0.000  0.00  0.00    -0.048 C 
ATOM     19  C   UNL     1      -0.469  -2.403   0.000  0.00  0.00    +0.026 C 
ATOM     20  C   UNL     1       0.245  -3.641   0.000  0.00  0.00    -0.033 C 
ATOM     21  C   UNL     1       0.245  -4.466   0.000  0.00  0.00    +0.043 C 
ENDROOT
BRANCH   4   2
ATOM      1  C   UNL     1       0.245  -6.116   0.000  0.00  0.00    +0.000 C 
ATOM      2  C   UNL     1      -0.469  -5.703   0.000  0.00  0.00    +0.000 C 
ATOM      3  C   UNL     1      -1.183  -6.116   0.000  0.00  0.00    +0.000 C 
ENDBRANCH   4   2
BRANCH   6   7
ATOM      7  C   UNL     1      -1.898  -3.228   0.000  0.00  0.00    +0.070 C 
BRANCH   7   8
ATOM      8  C   UNL     1      -1.898  -2.403   0.000  0.00  0.00    +0.141 A 
ATOM      9  N   UNL     1      -1.230  -1.918   0.000  0.00  0.00    -0.210 NA
ATOM     10  C   UNL     1      -1.485  -1.133   0.000  0.00  0.00    +0.181 A 
ATOM     11  C   UNL     1      -2.310  -1.133   0.000  0.00  0.00    +0.119 A 
ATOM     12  N   UNL     1      -2.565  -1.918   0.000  0.00  0.00    -0.228 NA
ATOM     13  C   UNL     1      -2.723  -0.419   0.000  0.00  0.00    +0.035 A 
ATOM     14  C   UNL     1      -2.310   0.295   0.000  0.00  0.00    +0.078 A 
ATOM     15 CL   UNL     1      -2.723   1.010   0.000  0.00  0.00    -0.081 Cl
ATOM     16  C   UNL     1      -1.485   0.295   0.000  0.00  0.00    +0.112 A 
ATOM     17  N   UNL     1      -1.073  -0.419   0.000  0.00  0.00    -0.223 NA
ENDBRANCH   7   8
ENDBRANCH   6   7
BRANCH  21  22
ATOM     22  C   UNL     1       0.960  -4.878   0.000  0.00  0.00    +0.120 C 
BRANCH  22  23
ATOM     23  N   UNL     1       1.674  -4.466   0.000  0.00  0.00    -0.202 NA
ATOM     24  C   UNL     1       2.389  -4.878   0.000  0.00  0.00    +0.286 C 
ATOM     25  O   UNL     1       2.389  -5.703   0.000  0.00  0.00    -0.269 OA
BRANCH  24  26
ATOM     26  C   UNL     1       3.103  -4.466   0.000  0.00  0.00    +0.296 C 
BRANCH  26  27
ATOM     27  O   UNL     1       3.103  -3.641   0.000  0.00  0.00    -0.438 OA
BRANCH  27  28
ATOM     28  C   UNL     1       2.389  -3.228   0.000  0.00  0.00    +0.318 C 
ATOM     29  C   UNL     1       1.674  -3.641   0.000  0.00  0.00    +0.121 C 
ATOM     30  O   UNL     1       2.389  -2.403   0.000  0.00  0.00    -0.250 OA
ENDBRANCH  27  28
ENDBRANCH  26  27
BRANCH  26  31
ATOM     31  C   UNL     1       3.818  -4.878   0.000  0.00  0.00    +0.319 C 
BRANCH  31  36
ATOM     36  C   UNL     1       3.818  -5.703   0.000  0.00  0.00    +0.408 C 
ATOM     37  O   UNL     1       4.532  -6.116   0.000  0.00  0.00    -0.241 OA
ATOM     38  O   UNL     1       3.103  -6.116   0.000  0.00  0.00    -0.241 OA
ENDBRANCH  31  36
BRANCH  31  32
ATOM     32  O   UNL     1       4.532  -4.466   0.000  0.00  0.00    -0.436 OA
BRANCH  32  33
ATOM     33  C   UNL     1       5.247  -4.878   0.000  0.00  0.00    +0.318 C 
ATOM     34  C   UNL     1       5.961  -4.466   0.000  0.00  0.00    +0.121 C 
ATOM     35  O   UNL     1       5.247  -5.703   0.000  0.00  0.00    -0.250 OA
ENDBRANCH  32  33
ENDBRANCH  31  32
ENDBRANCH  26  31
ENDBRANCH  24  26
ENDBRANCH  22  23
ENDBRANCH  21  22
TORSDOF 12
