REMARK  Name = 
REMARK  5 active torsions:
REMARK  status: ('A' for Active; 'I' for Inactive)
REMARK    1  A    between atoms: O_2  and  C_3
REMARK    2  A    between atoms: C_6  and  C_9
REMARK    3  A    between atoms: C_12  and  C_14
REMARK    4  A    between atoms: N_17  and  C_18
REMARK    5  A    between atoms: C_18  and  C_19
REMARK                            x       y       z     vdW  Elec       q    Type
REMARK                         _______ _______ _______ _____ _____    ______ ____
ROOT
ATOM     14  C   UNL     1      -3.449  -0.960   0.000  0.00  0.00    +0.096 C 
ATOM     15  C   UNL     1      -3.037  -0.245   0.000  0.00  0.00    +0.028 C 
ATOM     16  C   UNL     1      -2.230  -0.417   0.000  0.00  0.00    +0.073 C 
ATOM     17  N   UNL     1      -2.143  -1.238   0.000  0.00  0.00    -0.268 NA
ATOM     29  C   UNL     1      -2.897  -1.573   0.000  0.00  0.00    +0.082 C 
ENDROOT
BRANCH  14  12
ATOM      9  C   UNL     1      -5.489  -1.589   0.000  0.00  0.00    +0.250 A 
ATOM     10  N   UNL     1      -5.575  -0.769   0.000  0.00  0.00    -0.107 NA
ATOM     11  N   UNL     1      -4.822  -0.433   0.000  0.00  0.00    -0.111 NA
ATOM     12  C   UNL     1      -4.270  -1.046   0.000  0.00  0.00    +0.227 A 
ATOM     13  O   UNL     1      -4.682  -1.761   0.000  0.00  0.00    -0.419 OA
BRANCH   9   6
ATOM      3  C   UNL     1      -7.328  -3.245   0.000  0.00  0.00    +0.139 A 
ATOM      4  C   UNL     1      -7.500  -2.438   0.000  0.00  0.00    +0.037 A 
ATOM      5  C   UNL     1      -6.887  -1.886   0.000  0.00  0.00    +0.008 A 
ATOM      6  C   UNL     1      -6.102  -2.141   0.000  0.00  0.00    +0.055 A 
ATOM      7  C   UNL     1      -5.931  -2.948   0.000  0.00  0.00    +0.008 A 
ATOM      8  C   UNL     1      -6.544  -3.500   0.000  0.00  0.00    +0.037 A 
BRANCH   3   2
ATOM      1  C   UNL     1      -7.770  -4.604   0.000  0.00  0.00    +0.252 C 
ATOM      2  O   UNL     1      -7.941  -3.797   0.000  0.00  0.00    -0.471 OA
ENDBRANCH   3   2
ENDBRANCH   9   6
ENDBRANCH  14  12
BRANCH  17  18
ATOM     18  C   UNL     1      -1.429  -1.650   0.000  0.00  0.00    +0.101 C 
BRANCH  18  19
ATOM     19  C   UNL     1      -0.715  -1.238   0.000  0.00  0.00    +0.013 A 
ATOM     20  C   UNL     1       0.000  -1.650   0.000  0.00  0.00    +0.000 A 
ATOM     21  C   UNL     1       0.715  -1.238   0.000  0.00  0.00    +0.017 A 
ATOM     22  C   UNL     1       0.715  -0.412   0.000  0.00  0.00    +0.081 A 
ATOM     23  C   UNL     1       1.429   0.000   0.000  0.00  0.00    +0.019 A 
ATOM     24  C   UNL     1       2.143  -0.412   0.000  0.00  0.00    +0.002 A 
ATOM     25  C   UNL     1       2.143  -1.238   0.000  0.00  0.00    +0.000 A 
ATOM     26  C   UNL     1       1.429  -1.650   0.000  0.00  0.00    +0.001 A 
ATOM     27  N   UNL     1       0.000   0.000   0.000  0.00  0.00    -0.244 NA
ATOM     28  C   UNL     1      -0.715  -0.412   0.000  0.00  0.00    +0.096 A 
ENDBRANCH  18  19
ENDBRANCH  17  18
TORSDOF 5
