REMARK  Name = 
REMARK  4 active torsions:
REMARK  status: ('A' for Active; 'I' for Inactive)
REMARK    1  A    between atoms: N_9  and  C_10
REMARK    2  A    between atoms: C_10  and  C_11
REMARK    3  A    between atoms: C_15  and  C_17
REMARK    4  A    between atoms: C_23  and  C_24
REMARK                            x       y       z     vdW  Elec       q    Type
REMARK                         _______ _______ _______ _____ _____    ______ ____
ROOT
ATOM      1  O   UNL     1       0.679  -3.514   0.000  0.00  0.00    -0.267 OA
ATOM      2  C   UNL     1       1.157  -2.841   0.000  0.00  0.00    +0.261 A 
ATOM      3  N   UNL     1       0.813  -2.091   0.000  0.00  0.00    -0.299 N 
ATOM      4  C   UNL     1       1.629  -1.912   0.000  0.00  0.00    +0.110 C 
ATOM      5  C   UNL     1       1.582  -0.925   0.000  0.00  0.00    +0.039 C 
ATOM      6  C   UNL     1       1.713  -0.121   0.000  0.00  0.00    +0.011 C 
ATOM      7  C   UNL     1       1.163  -0.557   0.000  0.00  0.00    +0.054 C 
ATOM      8  C   UNL     1       0.244  -0.558   0.000  0.00  0.00    +0.078 C 
ATOM      9  N   UNL     1       0.117  -1.360   0.000  0.00  0.00    -0.269 NA
ATOM     19  C   UNL     1       0.622  -0.936   0.000  0.00  0.00    +0.074 C 
ATOM     20  C   UNL     1       1.290  -1.419   0.000  0.00  0.00    +0.041 A 
ATOM     21  C   UNL     1       2.111  -1.496   0.000  0.00  0.00    +0.013 A 
ATOM     22  C   UNL     1       2.455  -2.245   0.000  0.00  0.00    +0.006 A 
ATOM     23  C   UNL     1       1.978  -2.918   0.000  0.00  0.00    +0.062 A 
ENDROOT
BRANCH  23  24
ATOM     24  C   UNL     1       2.322  -3.668   0.000  0.00  0.00    +0.034 A 
ATOM     25  C   UNL     1       1.918  -4.387   0.000  0.00  0.00    +0.007 A 
ATOM     26  C   UNL     1       2.477  -4.994   0.000  0.00  0.00    +0.006 A 
ATOM     27  C   UNL     1       3.227  -4.650   0.000  0.00  0.00    +0.029 A 
ATOM     28  S   UNL     1       3.131  -3.830   0.000  0.00  0.00    -0.087 S 
ATOM     29  C   UNL     1       3.899  -5.127   0.000  0.00  0.00    +0.006 A 
ATOM     30  C   UNL     1       3.822  -5.949   0.000  0.00  0.00    +0.001 A 
ATOM     31  C   UNL     1       3.073  -6.293   0.000  0.00  0.00    +0.000 A 
ATOM     32  C   UNL     1       2.400  -5.815   0.000  0.00  0.00    +0.001 A 
ENDBRANCH  23  24
BRANCH   9  10
ATOM     10  C   UNL     1      -0.288  -2.078   0.000  0.00  0.00    +0.099 C 
BRANCH  10  11
ATOM     11  C   UNL     1      -1.113  -2.086   0.000  0.00  0.00    -0.005 A 
ATOM     12  C   UNL     1      -1.519  -2.804   0.000  0.00  0.00    -0.003 A 
ATOM     13  C   UNL     1      -2.344  -2.812   0.000  0.00  0.00    +0.000 A 
ATOM     14  C   UNL     1      -2.763  -2.102   0.000  0.00  0.00    +0.010 A 
ATOM     15  C   UNL     1      -2.357  -1.383   0.000  0.00  0.00    +0.068 A 
ATOM     16  C   UNL     1      -1.532  -1.375   0.000  0.00  0.00    +0.007 A 
BRANCH  15  17
ATOM     17  C   UNL     1      -2.777  -0.673   0.000  0.00  0.00    +0.100 C 
ATOM     18  N   UNL     1      -3.196   0.038   0.000  0.00  0.00    -0.191 NA
ENDBRANCH  15  17
ENDBRANCH  10  11
ENDBRANCH   9  10
TORSDOF 4
