REMARK  Name = 
REMARK  4 active torsions:
REMARK  status: ('A' for Active; 'I' for Inactive)
REMARK    1  A    between atoms: O_2  and  C_3
REMARK    2  A    between atoms: C_6  and  C_9
REMARK    3  A    between atoms: C_15  and  C_18
REMARK    4  A    between atoms: C_21  and  C_23
REMARK                            x       y       z     vdW  Elec       q    Type
REMARK                         _______ _______ _______ _____ _____    ______ ____
ROOT
ATOM      9  C   UNL     1       0.000   7.179   0.000  0.00  0.00    +0.270 C 
ATOM     10  O   UNL     1      -0.715   6.766   0.000  0.00  0.00    -0.268 OA
ATOM     11  N   UNL     1       0.715   6.766   0.000  0.00  0.00    -0.157 NA
ATOM     12  C   UNL     1       0.715   5.941   0.000  0.00  0.00    +0.155 A 
ATOM     13  N   UNL     1       1.429   5.529   0.000  0.00  0.00    -0.227 NA
ATOM     14  C   UNL     1       1.429   4.704   0.000  0.00  0.00    +0.103 A 
ATOM     15  C   UNL     1       0.715   4.291   0.000  0.00  0.00    +0.058 A 
ATOM     16  C   UNL     1       0.000   4.704   0.000  0.00  0.00    +0.008 A 
ATOM     17  C   UNL     1       0.000   5.529   0.000  0.00  0.00    +0.036 A 
ENDROOT
BRANCH   9   6
ATOM      3  C   UNL     1       0.000   9.654   0.000  0.00  0.00    +0.139 A 
ATOM      4  C   UNL     1       0.715   9.241   0.000  0.00  0.00    +0.037 A 
ATOM      5  C   UNL     1       0.715   8.416   0.000  0.00  0.00    +0.008 A 
ATOM      6  C   UNL     1       0.000   8.004   0.000  0.00  0.00    +0.056 A 
ATOM      7  C   UNL     1      -0.715   8.416   0.000  0.00  0.00    +0.008 A 
ATOM      8  C   UNL     1      -0.715   9.241   0.000  0.00  0.00    +0.037 A 
BRANCH   3   2
ATOM      1  C   UNL     1      -0.715  10.891   0.000  0.00  0.00    +0.252 C 
ATOM      2  O   UNL     1       0.000  10.479   0.000  0.00  0.00    -0.471 OA
ENDBRANCH   3   2
ENDBRANCH   9   6
BRANCH  15  18
ATOM     18  C   UNL     1       0.715   3.466   0.000  0.00  0.00    +0.205 A 
ATOM     19  N   UNL     1       1.382   2.981   0.000  0.00  0.00    -0.056 NA
ATOM     20  O   UNL     1       1.127   2.196   0.000  0.00  0.00    -0.336 OA
ATOM     21  C   UNL     1       0.302   2.196   0.000  0.00  0.00    +0.251 A 
ATOM     22  N   UNL     1       0.047   2.981   0.000  0.00  0.00    -0.190 NA
BRANCH  21  23
ATOM     23  C   UNL     1      -0.183   1.529   0.000  0.00  0.00    +0.138 C 
ATOM     24  C   UNL     1       0.072   0.745   0.000  0.00  0.00    +0.027 C 
ATOM     25  C   UNL     1      -0.596   0.260   0.000  0.00  0.00    +0.019 C 
ATOM     26  C   UNL     1      -1.263   0.745   0.000  0.00  0.00    +0.073 C 
ATOM     27  N   UNL     1      -1.008   1.529   0.000  0.00  0.00    -0.265 NA
ATOM     28  C   UNL     1      -1.493   2.196   0.000  0.00  0.00    +0.090 C 
ENDBRANCH  21  23
ENDBRANCH  15  18
TORSDOF 4
