REMARK  Name = 
REMARK  5 active torsions:
REMARK  status: ('A' for Active; 'I' for Inactive)
REMARK    1  A    between atoms: C_1  and  N_2
REMARK    2  A    between atoms: C_1  and  C_22
REMARK    3  A    between atoms: C_5  and  C_7
REMARK    4  A    between atoms: C_10  and  C_11
REMARK    5  A    between atoms: C_11  and  C_12
REMARK                            x       y       z     vdW  Elec       q    Type
REMARK                         _______ _______ _______ _____ _____    ______ ____
ROOT
ATOM      2  N   UNL     1       4.067   3.173   0.000  0.00  0.00    -0.268 NA
ATOM      3  C   UNL     1       3.399   3.658   0.000  0.00  0.00    +0.073 C 
ATOM      4  C   UNL     1       3.654   4.442   0.000  0.00  0.00    +0.028 C 
ATOM      5  C   UNL     1       4.479   4.442   0.000  0.00  0.00    +0.096 C 
ATOM      6  C   UNL     1       4.734   3.658   0.000  0.00  0.00    +0.082 C 
ENDROOT
BRANCH   5   7
ATOM      7  C   UNL     1       4.964   5.110   0.000  0.00  0.00    +0.227 A 
ATOM      8  N   UNL     1       4.709   5.894   0.000  0.00  0.00    -0.112 NA
ATOM      9  N   UNL     1       5.377   6.380   0.000  0.00  0.00    -0.111 NA
ATOM     10  C   UNL     1       6.044   5.894   0.000  0.00  0.00    +0.231 A 
ATOM     21  O   UNL     1       5.789   5.110   0.000  0.00  0.00    -0.423 OA
BRANCH  10  11
ATOM     11  C   UNL     1       6.829   6.149   0.000  0.00  0.00    +0.115 C 
BRANCH  11  12
ATOM     12  C   UNL     1       7.000   6.957   0.000  0.00  0.00    +0.008 A 
ATOM     13  C   UNL     1       7.754   7.292   0.000  0.00  0.00    +0.095 A 
ATOM     14  N   UNL     1       7.668   8.113   0.000  0.00  0.00    -0.244 NA
ATOM     15  C   UNL     1       6.861   8.284   0.000  0.00  0.00    +0.081 A 
ATOM     16  C   UNL     1       6.448   7.570   0.000  0.00  0.00    +0.016 A 
ATOM     17  C   UNL     1       5.623   7.570   0.000  0.00  0.00    +0.001 A 
ATOM     18  C   UNL     1       5.211   8.284   0.000  0.00  0.00    +0.000 A 
ATOM     19  C   UNL     1       5.623   8.998   0.000  0.00  0.00    +0.002 A 
ATOM     20  C   UNL     1       6.448   8.998   0.000  0.00  0.00    +0.019 A 
ENDBRANCH  11  12
ENDBRANCH  10  11
ENDBRANCH   5   7
BRANCH   2   1
ATOM      1  C   UNL     1       4.067   2.348   0.000  0.00  0.00    +0.099 C 
BRANCH   1  22
ATOM     22  C   UNL     1       3.352   1.935   0.000  0.00  0.00    -0.003 A 
ATOM     23  C   UNL     1       3.352   1.110   0.000  0.00  0.00    +0.000 A 
ATOM     24  C   UNL     1       2.638   0.698   0.000  0.00  0.00    +0.040 A 
ATOM     25  C   UNL     1       1.923   1.110   0.000  0.00  0.00    +0.176 A 
ATOM     26  O   UNL     1       1.139   0.856   0.000  0.00  0.00    -0.435 OA
ATOM     27  C   UNL     1       0.654   1.523   0.000  0.00  0.00    +0.429 C 
ATOM     28  O   UNL     1       1.139   2.190   0.000  0.00  0.00    -0.435 OA
ATOM     29  C   UNL     1       1.923   1.935   0.000  0.00  0.00    +0.176 A 
ATOM     30  C   UNL     1       2.638   2.348   0.000  0.00  0.00    +0.037 A 
ENDBRANCH   1  22
ENDBRANCH   2   1
TORSDOF 5
