REMARK  Name = 
REMARK  4 active torsions:
REMARK  status: ('A' for Active; 'I' for Inactive)
REMARK    1  A    between atoms: C_10  and  C_12
REMARK    2  A    between atoms: C_12  and  C_13
REMARK    3  A    between atoms: C_18  and  C_20
REMARK    4  A    between atoms: C_31  and  C_33
REMARK                            x       y       z     vdW  Elec       q    Type
REMARK                         _______ _______ _______ _____ _____    ______ ____
ROOT
ATOM     13  C   UNL     1       2.143   1.238   0.000  0.00  0.00    +0.050 C 
ATOM     14  C   UNL     1       2.858   0.825   0.000  0.00  0.00    +0.063 A 
ATOM     15  C   UNL     1       2.858   0.000   0.000  0.00  0.00    +0.023 A 
ATOM     16  C   UNL     1       2.143  -0.412   0.000  0.00  0.00    +0.034 C 
ATOM     17  C   UNL     1       1.429   0.000   0.000  0.00  0.00    +0.010 C 
ATOM     18  C   UNL     1       0.715  -0.412   0.000  0.00  0.00    +0.059 C 
ATOM     19  C   UNL     1       1.245  -1.044   0.000  0.00  0.00    +0.005 C 
ATOM     22  C   UNL     1       0.000   0.000   0.000  0.00  0.00    +0.154 C 
ATOM     23  O   UNL     1      -0.715  -0.412   0.000  0.00  0.00    -0.223 OA
ATOM     24  C   UNL     1       0.000   0.825   0.000  0.00  0.00    +0.033 C 
ATOM     25  C   UNL     1       0.715   1.238   0.000  0.00  0.00    +0.003 C 
ATOM     26  C   UNL     1       1.429   0.825   0.000  0.00  0.00    +0.006 C 
ATOM     27  C   UNL     1       1.429   1.650   0.000  0.00  0.00    +0.000 C 
ATOM     28  S   UNL     1       3.643  -0.255   0.000  0.00  0.00    -0.054 S 
ATOM     29  C   UNL     1       4.127   0.412   0.000  0.00  0.00    +0.185 A 
ATOM     30  N   UNL     1       4.952   0.412   0.000  0.00  0.00    -0.154 NA
ATOM     31  C   UNL     1       5.365  -0.302   0.000  0.00  0.00    +0.247 C 
ATOM     32  O   UNL     1       6.190  -0.302   0.000  0.00  0.00    -0.273 OA
ATOM     37  N   UNL     1       3.643   1.080   0.000  0.00  0.00    -0.227 NA
ENDROOT
BRANCH  31  33
ATOM     33  C   UNL     1       4.952  -1.016   0.000  0.00  0.00    +0.079 C 
ATOM     34  C   UNL     1       5.166  -1.813   0.000  0.00  0.00    +0.009 C 
ATOM     35  C   UNL     1       4.369  -2.027   0.000  0.00  0.00    +0.001 C 
ATOM     36  C   UNL     1       4.155  -1.230   0.000  0.00  0.00    +0.009 C 
ENDBRANCH  31  33
BRANCH  18  20
ATOM     20  C   UNL     1       0.184  -1.044   0.000  0.00  0.00    +0.184 C 
ATOM     21  O   UNL     1      -0.628  -0.901   0.000  0.00  0.00    -0.220 OA
ENDBRANCH  18  20
BRANCH  13  12
ATOM     12  C   UNL     1       2.143   2.062   0.000  0.00  0.00    +0.091 C 
BRANCH  12  10
ATOM      1  C   UNL     1       0.715   6.188   0.000  0.00  0.00    +0.095 C 
ATOM      2  C   UNL     1       1.429   5.775   0.000  0.00  0.00    +0.226 C 
ATOM      3  O   UNL     1       2.143   6.188   0.000  0.00  0.00    -0.275 OA
ATOM      4  N   UNL     1       1.429   4.950   0.000  0.00  0.00    -0.276 N 
ATOM      5  C   UNL     1       2.143   4.537   0.000  0.00  0.00    +0.115 C 
ATOM      6  C   UNL     1       2.143   3.712   0.000  0.00  0.00    +0.115 C 
ATOM      7  N   UNL     1       1.429   3.300   0.000  0.00  0.00    -0.276 N 
ATOM      8  C   UNL     1       0.715   3.712   0.000  0.00  0.00    +0.115 C 
ATOM      9  C   UNL     1       0.715   4.537   0.000  0.00  0.00    +0.115 C 
ATOM     10  C   UNL     1       1.429   2.475   0.000  0.00  0.00    +0.226 C 
ATOM     11  O   UNL     1       0.715   2.062   0.000  0.00  0.00    -0.275 OA
ENDBRANCH  12  10
ENDBRANCH  13  12
TORSDOF 4
