REMARK  Name = 
REMARK  3 active torsions:
REMARK  status: ('A' for Active; 'I' for Inactive)
REMARK    1  A    between atoms: C_7  and  C_10
REMARK    2  A    between atoms: N_12  and  C_13
REMARK    3  A    between atoms: N_21  and  C_24
REMARK                            x       y       z     vdW  Elec       q    Type
REMARK                         _______ _______ _______ _____ _____    ______ ____
ROOT
ATOM     13  C   UNL     1       3.352   1.935   0.000  0.00  0.00    +0.099 C 
ATOM     14  C   UNL     1       3.352   1.110   0.000  0.00  0.00    +0.043 C 
ATOM     15  C   UNL     1       2.638   0.698   0.000  0.00  0.00    +0.097 C 
ATOM     16  N   UNL     1       1.923   1.110   0.000  0.00  0.00    -0.257 N 
ATOM     17  C   UNL     1       1.923   1.935   0.000  0.00  0.00    +0.156 C 
ATOM     18  C   UNL     1       2.638   2.348   0.000  0.00  0.00    +0.051 C 
ATOM     19  C   UNL     1       1.139   2.190   0.000  0.00  0.00    +0.254 C 
ATOM     20  O   UNL     1       0.884   2.975   0.000  0.00  0.00    -0.272 OA
ATOM     21  N   UNL     1       0.654   1.523   0.000  0.00  0.00    -0.191 N 
ATOM     22  C   UNL     1       1.139   0.856   0.000  0.00  0.00    +0.317 C 
ATOM     23  O   UNL     1       0.884   0.071   0.000  0.00  0.00    -0.252 OA
ENDROOT
BRANCH  21  24
ATOM     24  C   UNL     1      -0.171   1.523   0.000  0.00  0.00    +0.063 A 
ATOM     25  C   UNL     1      -0.584   0.808   0.000  0.00  0.00    +0.018 A 
ATOM     26  C   UNL     1      -1.409   0.808   0.000  0.00  0.00    +0.032 A 
ATOM     27  C   UNL     1      -1.821   1.523   0.000  0.00  0.00    +0.151 A 
ATOM     28  F   UNL     1      -2.646   1.523   0.000  0.00  0.00    -0.203 F 
ATOM     29  C   UNL     1      -1.409   2.237   0.000  0.00  0.00    +0.086 A 
ATOM     30 CL   UNL     1      -1.821   2.952   0.000  0.00  0.00    -0.080 Cl
ATOM     31  C   UNL     1      -0.584   2.237   0.000  0.00  0.00    +0.029 A 
ENDBRANCH  21  24
BRANCH  13  12
ATOM     10  C   UNL     1       4.781   1.935   0.000  0.00  0.00    +0.241 C 
ATOM     11  O   UNL     1       4.781   1.110   0.000  0.00  0.00    -0.273 OA
ATOM     12  N   UNL     1       4.067   2.348   0.000  0.00  0.00    -0.207 NA
BRANCH  10   7
ATOM      1  C   UNL     1       7.639   4.410   0.000  0.00  0.00    +0.095 C 
ATOM      2  C   UNL     1       7.639   3.585   0.000  0.00  0.00    +0.226 C 
ATOM      3  O   UNL     1       8.354   3.173   0.000  0.00  0.00    -0.275 OA
ATOM      4  N   UNL     1       6.925   3.173   0.000  0.00  0.00    -0.280 N 
ATOM      5  C   UNL     1       6.925   2.348   0.000  0.00  0.00    +0.094 C 
ATOM      6  C   UNL     1       6.210   1.935   0.000  0.00  0.00    +0.031 C 
ATOM      7  C   UNL     1       5.496   2.348   0.000  0.00  0.00    +0.082 C 
ATOM      8  C   UNL     1       5.496   3.173   0.000  0.00  0.00    +0.031 C 
ATOM      9  C   UNL     1       6.210   3.585   0.000  0.00  0.00    +0.094 C 
ENDBRANCH  10   7
ENDBRANCH  13  12
TORSDOF 3
