REMARK  Name = 
REMARK  8 active torsions:
REMARK  status: ('A' for Active; 'I' for Inactive)
REMARK    1  A    between atoms: C_2  and  C_3
REMARK    2  A    between atoms: N_5  and  S_18
REMARK    3  A    between atoms: C_8  and  C_9
REMARK    4  A    between atoms: C_9  and  C_10
REMARK    5  A    between atoms: N_12  and  C_14
REMARK    6  A    between atoms: C_14  and  C_15
REMARK    7  A    between atoms: C_15  and  C_16
REMARK    8  A    between atoms: S_18  and  C_21
REMARK                            x       y       z     vdW  Elec       q    Type
REMARK                         _______ _______ _______ _____ _____    ______ ____
ROOT
ATOM      3  C   UNL     1      -0.715  -5.362   0.000  0.00  0.00    +0.018 C 
ATOM      4  C   UNL     1      -1.429  -4.950   0.000  0.00  0.00    +0.096 C 
ATOM      5  N   UNL     1      -1.429  -4.125   0.000  0.00  0.00    -0.156 NA
ATOM      6  C   UNL     1      -0.715  -3.712   0.000  0.00  0.00    +0.096 C 
ATOM      7  C   UNL     1       0.000  -4.125   0.000  0.00  0.00    +0.020 C 
ATOM      8  C   UNL     1       0.000  -4.950   0.000  0.00  0.00    +0.012 C 
ENDROOT
BRANCH   5  18
ATOM     18  S   UNL     1      -2.143  -3.712   0.000  0.00  0.00    +0.063 S 
ATOM     19  O   UNL     1      -1.731  -2.998   0.000  0.00  0.00    -0.153 OA
ATOM     20  O   UNL     1      -2.556  -4.427   0.000  0.00  0.00    -0.153 OA
BRANCH  18  21
ATOM     21  C   UNL     1      -2.858  -3.300   0.000  0.00  0.00    +0.122 A 
ATOM     22  C   UNL     1      -3.572  -3.712   0.000  0.00  0.00    +0.020 A 
ATOM     23  C   UNL     1      -4.287  -3.300   0.000  0.00  0.00    +0.001 A 
ATOM     24  C   UNL     1      -4.287  -2.475   0.000  0.00  0.00    +0.000 A 
ATOM     25  C   UNL     1      -3.572  -2.062   0.000  0.00  0.00    +0.001 A 
ATOM     26  C   UNL     1      -2.858  -2.475   0.000  0.00  0.00    +0.020 A 
ENDBRANCH  18  21
ENDBRANCH   5  18
BRANCH   3   2
ATOM      1  C   UNL     1       0.000  -6.600   0.000  0.00  0.00    +0.000 C 
ATOM      2  C   UNL     1      -0.715  -6.188   0.000  0.00  0.00    +0.001 C 
ENDBRANCH   3   2
BRANCH   8   9
ATOM      9  C   UNL     1       0.715  -5.362   0.000  0.00  0.00    +0.085 C 
BRANCH   9  10
ATOM     10  C   UNL     1       1.429  -4.950   0.000  0.00  0.00    +0.226 C 
ATOM     11  O   UNL     1       1.429  -4.125   0.000  0.00  0.00    -0.275 OA
ATOM     12  N   UNL     1       2.143  -5.362   0.000  0.00  0.00    -0.277 N 
ATOM     13  C   UNL     1       2.143  -6.188   0.000  0.00  0.00    +0.115 C 
BRANCH  12  14
ATOM     14  C   UNL     1       2.858  -4.950   0.000  0.00  0.00    +0.110 C 
BRANCH  14  15
ATOM     15  C   UNL     1       3.572  -5.362   0.000  0.00  0.00    +0.127 C 
BRANCH  15  16
ATOM     16  C   UNL     1       4.287  -4.950   0.000  0.00  0.00    +0.075 C 
ATOM     17  N   UNL     1       5.001  -4.537   0.000  0.00  0.00    -0.196 NA
ENDBRANCH  15  16
ENDBRANCH  14  15
ENDBRANCH  12  14
ENDBRANCH   9  10
ENDBRANCH   8   9
TORSDOF 8
