REMARK  Name = 
REMARK  6 active torsions:
REMARK  status: ('A' for Active; 'I' for Inactive)
REMARK    1  A    between atoms: O_2  and  C_3
REMARK    2  A    between atoms: C_6  and  S_9
REMARK    3  A    between atoms: S_9  and  N_12
REMARK    4  A    between atoms: C_19  and  N_20
REMARK    5  A    between atoms: N_20  and  S_21
REMARK    6  A    between atoms: S_21  and  C_24
REMARK                            x       y       z     vdW  Elec       q    Type
REMARK                         _______ _______ _______ _____ _____    ______ ____
ROOT
ATOM     12  N   UNL     1       0.813  -2.091   0.000  0.00  0.00    -0.155 NA
ATOM     13  C   UNL     1       1.629  -1.912   0.000  0.00  0.00    +0.098 C 
ATOM     14  C   UNL     1       1.582  -0.925   0.000  0.00  0.00    +0.041 C 
ATOM     15  C   UNL     1       1.713  -0.121   0.000  0.00  0.00    +0.011 C 
ATOM     16  C   UNL     1       1.163  -0.557   0.000  0.00  0.00    +0.058 C 
ATOM     17  C   UNL     1       1.225  -1.510   0.000  0.00  0.00    +0.102 C 
ATOM     18  C   UNL     1       0.244  -0.558   0.000  0.00  0.00    +0.058 A 
ATOM     19  C   UNL     1      -0.397  -0.039   0.000  0.00  0.00    +0.103 A 
ATOM     30  C   UNL     1      -1.167  -0.335   0.000  0.00  0.00    +0.024 A 
ATOM     31  C   UNL     1      -1.296  -1.150   0.000  0.00  0.00    +0.062 A 
ATOM     32  C   UNL     1      -0.655  -1.669   0.000  0.00  0.00    +0.261 A 
ATOM     33  O   UNL     1      -0.881  -2.616   0.000  0.00  0.00    -0.267 OA
ATOM     34  N   UNL     1       0.115  -1.373   0.000  0.00  0.00    -0.298 N 
ATOM     35  C   UNL     1       0.622  -0.936   0.000  0.00  0.00    +0.110 C 
ENDROOT
BRANCH  12   9
ATOM      9  S   UNL     1       0.189  -2.668   0.000  0.00  0.00    +0.063 S 
ATOM     10  O   UNL     1      -0.074  -3.533   0.000  0.00  0.00    -0.153 OA
ATOM     11  O   UNL     1       0.836  -3.293   0.000  0.00  0.00    -0.153 OA
BRANCH   9   6
ATOM      3  C   UNL     1      -1.325  -0.566   0.000  0.00  0.00    +0.139 A 
ATOM      4  C   UNL     1      -0.418  -0.433   0.000  0.00  0.00    +0.038 A 
ATOM      5  C   UNL     1      -0.045  -1.038   0.000  0.00  0.00    +0.023 A 
ATOM      6  C   UNL     1      -0.331  -1.859   0.000  0.00  0.00    +0.122 A 
ATOM      7  C   UNL     1      -1.154  -1.910   0.000  0.00  0.00    +0.023 A 
ATOM      8  C   UNL     1      -1.610  -1.222   0.000  0.00  0.00    +0.038 A 
BRANCH   3   2
ATOM      1  C   UNL     1      -3.032  -0.130   0.000  0.00  0.00    +0.252 C 
ATOM      2  O   UNL     1      -2.129  -0.011   0.000  0.00  0.00    -0.471 OA
ENDBRANCH   3   2
ENDBRANCH   9   6
ENDBRANCH  12   9
BRANCH  19  20
ATOM     20  N   UNL     1      -0.264   0.865   0.000  0.00  0.00    -0.095 NA
BRANCH  20  21
ATOM     21  S   UNL     1      -0.824   1.432   0.000  0.00  0.00    +0.093 S 
ATOM     22  O   UNL     1      -0.275   2.047   0.000  0.00  0.00    -0.148 OA
ATOM     23  O   UNL     1      -1.783   1.173   0.000  0.00  0.00    -0.148 OA
BRANCH  21  24
ATOM     24  C   UNL     1      -1.550   1.814   0.000  0.00  0.00    +0.127 A 
ATOM     25  C   UNL     1      -2.321   1.518   0.000  0.00  0.00    +0.020 A 
ATOM     26  C   UNL     1      -2.962   2.037   0.000  0.00  0.00    +0.001 A 
ATOM     27  C   UNL     1      -2.833   2.852   0.000  0.00  0.00    +0.000 A 
ATOM     28  C   UNL     1      -2.063   3.148   0.000  0.00  0.00    +0.001 A 
ATOM     29  C   UNL     1      -1.421   2.629   0.000  0.00  0.00    +0.020 A 
ENDBRANCH  21  24
ENDBRANCH  20  21
ENDBRANCH  19  20
TORSDOF 6
