REMARK  Name = 
REMARK  4 active torsions:
REMARK  status: ('A' for Active; 'I' for Inactive)
REMARK    1  A    between atoms: C_2  and  C_20
REMARK    2  A    between atoms: C_9  and  N_10
REMARK    3  A    between atoms: C_20  and  C_22
REMARK    4  A    between atoms: N_24  and  C_25
REMARK                            x       y       z     vdW  Elec       q    Type
REMARK                         _______ _______ _______ _____ _____    ______ ____
ROOT
ATOM      1  C   UNL     1       1.429  -2.475   0.000  0.00  0.00    +0.052 C 
ATOM      2  C   UNL     1       1.429  -3.300   0.000  0.00  0.00    -0.001 C 
ATOM      3  C   UNL     1       0.715  -3.712   0.000  0.00  0.00    -0.000 C 
ATOM      4  C   UNL     1       0.000  -3.300   0.000  0.00  0.00    -0.001 C 
ATOM      5  C   UNL     1       0.000  -4.125   0.000  0.00  0.00    -0.000 C 
ATOM      6  C   UNL     1      -0.715  -3.712   0.000  0.00  0.00    +0.002 C 
ATOM      7  C   UNL     1      -1.429  -3.300   0.000  0.00  0.00    +0.022 C 
ATOM      8  C   UNL     1      -1.429  -2.475   0.000  0.00  0.00    +0.095 C 
ATOM     13  C   UNL     1      -0.715  -2.062   0.000  0.00  0.00    +0.019 C 
ATOM     14  C   UNL     1      -0.715  -1.238   0.000  0.00  0.00    +0.002 C 
ATOM     15  C   UNL     1       0.000  -2.475   0.000  0.00  0.00    +0.045 C 
ATOM     16  C   UNL     1       0.715  -2.062   0.000  0.00  0.00    +0.145 C 
ATOM     17  O   UNL     1       0.715  -1.238   0.000  0.00  0.00    -0.224 OA
ENDROOT
BRANCH   8   9
ATOM      9  N   UNL     1      -2.143  -2.062   0.000  0.00  0.00    -0.207 NA
ATOM     10  C   UNL     1      -2.858  -2.475   0.000  0.00  0.00    +0.242 C 
ATOM     11  C   UNL     1      -3.572  -2.062   0.000  0.00  0.00    +0.096 C 
ATOM     12  O   UNL     1      -2.858  -3.300   0.000  0.00  0.00    -0.273 OA
ENDBRANCH   8   9
BRANCH   1  18
ATOM     18  C   UNL     1       2.143  -2.062   0.000  0.00  0.00    +0.077 C 
ATOM     19  C   UNL     1       2.143  -1.238   0.000  0.00  0.00    +0.009 C 
BRANCH  18  20
ATOM     20  C   UNL     1       2.858  -2.475   0.000  0.00  0.00    +0.241 C 
ATOM     21  O   UNL     1       2.858  -3.300   0.000  0.00  0.00    -0.273 OA
ATOM     22  N   UNL     1       3.572  -2.062   0.000  0.00  0.00    -0.207 NA
BRANCH  22  23
ATOM     23  C   UNL     1       4.287  -2.475   0.000  0.00  0.00    +0.095 C 
ATOM     24  C   UNL     1       5.001  -2.062   0.000  0.00  0.00    +0.023 C 
ATOM     25  C   UNL     1       4.287  -3.300   0.000  0.00  0.00    +0.023 C 
ENDBRANCH  22  23
ENDBRANCH  18  20
ENDBRANCH   1  18
TORSDOF 4
