REMARK  Name = 
REMARK  9 active torsions:
REMARK  status: ('A' for Active; 'I' for Inactive)
REMARK    1  A    between atoms: O_2  and  C_3
REMARK    2  A    between atoms: C_5  and  N_6
REMARK    3  A    between atoms: N_9  and  C_10
REMARK    4  A    between atoms: C_10  and  C_11
REMARK    5  A    between atoms: C_13  and  C_14
REMARK    6  A    between atoms: C_18  and  N_19
REMARK    7  A    between atoms: N_19  and  C_21
REMARK    8  A    between atoms: C_21  and  C_22
REMARK    9  A    between atoms: C_22  and  C_23
REMARK                            x       y       z     vdW  Elec       q    Type
REMARK                         _______ _______ _______ _____ _____    ______ ____
ROOT
ATOM     11  C   UNL     1       1.683  -3.969   0.000  0.00  0.00    +0.154 C 
ATOM     12  O   UNL     1       1.769  -3.148   0.000  0.00  0.00    -0.350 OA
ATOM     13  C   UNL     1       2.576  -2.977   0.000  0.00  0.00    +0.180 C 
ATOM     16  C   UNL     1       2.989  -3.692   0.000  0.00  0.00    +0.198 C 
ATOM     17  O   UNL     1       3.809  -3.778   0.000  0.00  0.00    -0.219 OA
ATOM     18  C   UNL     1       2.437  -4.305   0.000  0.00  0.00    +0.120 C 
ENDROOT
BRANCH  13  14
ATOM     14  C   UNL     1       2.912  -2.223   0.000  0.00  0.00    +0.214 C 
ATOM     15  O   UNL     1       3.732  -2.137   0.000  0.00  0.00    -0.218 OA
ENDBRANCH  13  14
BRANCH  18  19
ATOM     19  N   UNL     1       2.608  -5.112   0.000  0.00  0.00    -0.268 NA
ATOM     20  C   UNL     1       3.393  -5.367   0.000  0.00  0.00    +0.090 C 
BRANCH  19  21
ATOM     21  C   UNL     1       1.995  -5.664   0.000  0.00  0.00    +0.079 C 
BRANCH  21  22
ATOM     22  C   UNL     1       2.167  -6.471   0.000  0.00  0.00    +0.063 C 
BRANCH  22  23
ATOM     23  C   UNL     1       2.951  -6.726   0.000  0.00  0.00    +0.060 A 
ATOM     24  N   UNL     1       3.564  -6.173   0.000  0.00  0.00    -0.248 NA
ATOM     25  C   UNL     1       4.349  -6.428   0.000  0.00  0.00    +0.098 A 
ATOM     26  C   UNL     1       4.520  -7.235   0.000  0.00  0.00    +0.021 A 
ATOM     27  C   UNL     1       3.907  -7.787   0.000  0.00  0.00    +0.003 A 
ATOM     28  C   UNL     1       3.123  -7.532   0.000  0.00  0.00    +0.015 A 
ENDBRANCH  22  23
ENDBRANCH  21  22
ENDBRANCH  19  21
ENDBRANCH  18  19
BRANCH  11  10
ATOM     10  C   UNL     1       0.968  -4.381   0.000  0.00  0.00    +0.148 C 
BRANCH  10   9
ATOM      6  N   UNL     1      -1.175  -3.969   0.000  0.00  0.00    -0.161 NA
ATOM      7  C   UNL     1      -0.461  -4.381   0.000  0.00  0.00    +0.344 C 
ATOM      8  O   UNL     1      -0.461  -5.207   0.000  0.00  0.00    -0.249 OA
ATOM      9  N   UNL     1       0.254  -3.969   0.000  0.00  0.00    -0.184 NA
BRANCH   6   5
ATOM      3  C   UNL     1      -3.318  -4.381   0.000  0.00  0.00    +0.140 A 
ATOM      4  C   UNL     1      -2.604  -3.969   0.000  0.00  0.00    +0.054 A 
ATOM      5  C   UNL     1      -1.889  -4.381   0.000  0.00  0.00    +0.078 A 
ATOM     29  C   UNL     1      -1.889  -5.207   0.000  0.00  0.00    +0.017 A 
ATOM     30  C   UNL     1      -2.604  -5.619   0.000  0.00  0.00    +0.004 A 
ATOM     31  C   UNL     1      -3.318  -5.207   0.000  0.00  0.00    +0.037 A 
BRANCH   3   2
ATOM      1  C   UNL     1      -4.747  -4.381   0.000  0.00  0.00    +0.252 C 
ATOM      2  O   UNL     1      -4.033  -3.969   0.000  0.00  0.00    -0.471 OA
ENDBRANCH   3   2
ENDBRANCH   6   5
ENDBRANCH  10   9
ENDBRANCH  11  10
TORSDOF 9
