REMARK  Name = 
REMARK  5 active torsions:
REMARK  status: ('A' for Active; 'I' for Inactive)
REMARK    1  A    between atoms: C_4  and  C_8
REMARK    2  A    between atoms: C_11  and  C_13
REMARK    3  A    between atoms: N_18  and  C_19
REMARK    4  A    between atoms: C_19  and  C_20
REMARK    5  A    between atoms: C_23  and  C_24
REMARK                            x       y       z     vdW  Elec       q    Type
REMARK                         _______ _______ _______ _____ _____    ______ ____
ROOT
ATOM     13  C   UNL     1      -2.220   0.353   0.000  0.00  0.00    +0.141 C 
ATOM     14  C   UNL     1      -1.965  -0.431   0.000  0.00  0.00    +0.060 C 
ATOM     15  C   UNL     1      -2.632  -0.916   0.000  0.00  0.00    +0.170 C 
ATOM     16  O   UNL     1      -2.632  -1.741   0.000  0.00  0.00    -0.222 OA
ATOM     17  C   UNL     1      -3.300  -0.431   0.000  0.00  0.00    +0.106 C 
ATOM     18  N   UNL     1      -3.045   0.353   0.000  0.00  0.00    -0.258 NA
ENDROOT
BRANCH  13  11
ATOM      8  C   UNL     1      -1.322   2.290   0.000  0.00  0.00    +0.203 A 
ATOM      9  N   UNL     1      -0.655   1.805   0.000  0.00  0.00    -0.056 NA
ATOM     10  O   UNL     1      -0.910   1.021   0.000  0.00  0.00    -0.336 OA
ATOM     11  C   UNL     1      -1.735   1.021   0.000  0.00  0.00    +0.251 A 
ATOM     12  N   UNL     1      -1.990   1.805   0.000  0.00  0.00    -0.190 NA
BRANCH   8   4
ATOM      1  C   UNL     1       0.107   4.765   0.000  0.00  0.00    +0.031 C 
ATOM      2  C   UNL     1      -0.608   4.353   0.000  0.00  0.00    -0.022 A 
ATOM      3  C   UNL     1      -0.608   3.528   0.000  0.00  0.00    -0.001 A 
ATOM      4  C   UNL     1      -1.322   3.115   0.000  0.00  0.00    +0.039 A 
ATOM      5  C   UNL     1      -2.037   3.528   0.000  0.00  0.00    +0.003 A 
ATOM      6  C   UNL     1      -2.037   4.353   0.000  0.00  0.00    -0.000 A 
ATOM      7  C   UNL     1      -1.322   4.765   0.000  0.00  0.00    -0.004 A 
ENDBRANCH   8   4
ENDBRANCH  13  11
BRANCH  18  19
ATOM     19  C   UNL     1      -3.530   1.021   0.000  0.00  0.00    +0.138 C 
BRANCH  19  20
ATOM     20  C   UNL     1      -4.350   0.934   0.000  0.00  0.00    +0.139 A 
ATOM     21  C   UNL     1      -4.763   0.220   0.000  0.00  0.00    +0.037 A 
ATOM     22  C   UNL     1      -5.569   0.392   0.000  0.00  0.00    +0.038 A 
ATOM     23  C   UNL     1      -5.656   1.212   0.000  0.00  0.00    +0.156 A 
ATOM     26  O   UNL     1      -4.902   1.548   0.000  0.00  0.00    -0.458 OA
BRANCH  23  24
ATOM     24  C   UNL     1      -6.370   1.624   0.000  0.00  0.00    +0.246 C 
ATOM     25  O   UNL     1      -7.085   1.212   0.000  0.00  0.00    -0.212 OA
ENDBRANCH  23  24
ENDBRANCH  19  20
ENDBRANCH  18  19
TORSDOF 5
