REMARK  Name = 
REMARK  7 active torsions:
REMARK  status: ('A' for Active; 'I' for Inactive)
REMARK    1  A    between atoms: S_2  and  N_5
REMARK    2  A    between atoms: N_5  and  C_6
REMARK    3  A    between atoms: C_6  and  C_7
REMARK    4  A    between atoms: C_10  and  N_11
REMARK    5  A    between atoms: N_11  and  C_12
REMARK    6  A    between atoms: C_12  and  C_13
REMARK    7  A    between atoms: C_17  and  C_19
REMARK                            x       y       z     vdW  Elec       q    Type
REMARK                         _______ _______ _______ _____ _____    ______ ____
ROOT
ATOM      7  C   UNL     1       0.000  -2.475   0.000  0.00  0.00    +0.166 C 
ATOM      8  O   UNL     1       0.667  -2.960   0.000  0.00  0.00    -0.350 OA
ATOM      9  C   UNL     1       0.412  -3.744   0.000  0.00  0.00    +0.162 C 
ATOM     10  C   UNL     1      -0.412  -3.744   0.000  0.00  0.00    +0.135 C 
ATOM     21  C   UNL     1      -0.667  -2.960   0.000  0.00  0.00    +0.199 C 
ATOM     22  O   UNL     1      -1.452  -2.705   0.000  0.00  0.00    -0.219 OA
ENDROOT
BRANCH   7   6
ATOM      6  C   UNL     1       0.000  -1.650   0.000  0.00  0.00    +0.147 C 
BRANCH   6   5
ATOM      5  N   UNL     1       0.715  -1.238   0.000  0.00  0.00    -0.079 NA
BRANCH   5   2
ATOM      1  C   UNL     1       0.715   0.412   0.000  0.00  0.00    +0.197 C 
ATOM      2  S   UNL     1       0.715  -0.412   0.000  0.00  0.00    +0.059 S 
ATOM      3  O   UNL     1      -0.111  -0.412   0.000  0.00  0.00    -0.156 OA
ATOM      4  O   UNL     1       1.540  -0.412   0.000  0.00  0.00    -0.156 OA
ENDBRANCH   5   2
ENDBRANCH   6   5
ENDBRANCH   7   6
BRANCH  10  11
ATOM     11  N   UNL     1      -0.897  -4.412   0.000  0.00  0.00    -0.209 NA
BRANCH  11  12
ATOM     12  C   UNL     1      -1.718  -4.326   0.000  0.00  0.00    +0.115 C 
BRANCH  12  13
ATOM     13  C   UNL     1      -2.203  -4.993   0.000  0.00  0.00    -0.004 A 
ATOM     14  C   UNL     1      -1.867  -5.747   0.000  0.00  0.00    -0.003 A 
ATOM     15  C   UNL     1      -2.352  -6.414   0.000  0.00  0.00    +0.000 A 
ATOM     16  C   UNL     1      -3.173  -6.328   0.000  0.00  0.00    +0.010 A 
ATOM     17  C   UNL     1      -3.508  -5.574   0.000  0.00  0.00    +0.068 A 
ATOM     18  C   UNL     1      -3.023  -4.907   0.000  0.00  0.00    +0.007 A 
BRANCH  17  19
ATOM     19  C   UNL     1      -4.329  -5.488   0.000  0.00  0.00    +0.100 C 
ATOM     20  N   UNL     1      -5.149  -5.402   0.000  0.00  0.00    -0.191 NA
ENDBRANCH  17  19
ENDBRANCH  12  13
ENDBRANCH  11  12
ENDBRANCH  10  11
TORSDOF 7
