REMARK  Name = 
REMARK  7 active torsions:
REMARK  status: ('A' for Active; 'I' for Inactive)
REMARK    1  A    between atoms: C_2  and  N_4
REMARK    2  A    between atoms: N_4  and  C_5
REMARK    3  A    between atoms: C_5  and  C_6
REMARK    4  A    between atoms: C_10  and  C_11
REMARK    5  A    between atoms: C_11  and  C_12
REMARK    6  A    between atoms: C_15  and  C_17
REMARK    7  A    between atoms: C_25  and  C_26
REMARK                            x       y       z     vdW  Elec       q    Type
REMARK                         _______ _______ _______ _____ _____    ______ ____
ROOT
ATOM      6  C   UNL     1       2.858   0.825   0.000  0.00  0.00    +0.039 C 
ATOM      7  C   UNL     1       2.858   0.000   0.000  0.00  0.00    -0.033 C 
ATOM      8  C   UNL     1       2.143  -0.412   0.000  0.00  0.00    -0.048 C 
ATOM      9  C   UNL     1       2.143  -1.238   0.000  0.00  0.00    +0.026 C 
ATOM     10  C   UNL     1       1.429   0.000   0.000  0.00  0.00    +0.027 C 
ATOM     24  C   UNL     1       1.429   0.825   0.000  0.00  0.00    +0.005 C 
ATOM     25  C   UNL     1       2.143   1.238   0.000  0.00  0.00    +0.006 C 
ENDROOT
BRANCH  25  26
ATOM     26  C   UNL     1       2.143   2.062   0.000  0.00  0.00    +0.000 C 
ATOM     27  C   UNL     1       2.858   2.475   0.000  0.00  0.00    +0.000 C 
ATOM     28  C   UNL     1       1.429   2.475   0.000  0.00  0.00    +0.000 C 
ENDBRANCH  25  26
BRANCH   6   5
ATOM      5  C   UNL     1       3.572   1.238   0.000  0.00  0.00    +0.093 C 
BRANCH   5   4
ATOM      4  N   UNL     1       3.572   2.062   0.000  0.00  0.00    -0.219 NA
BRANCH   4   2
ATOM      1  C   UNL     1       4.287   3.300   0.000  0.00  0.00    +0.019 C 
ATOM      2  C   UNL     1       4.287   2.475   0.000  0.00  0.00    +0.073 C 
ATOM      3  C   UNL     1       5.001   2.062   0.000  0.00  0.00    +0.019 C 
ENDBRANCH   4   2
ENDBRANCH   5   4
ENDBRANCH   6   5
BRANCH  10  11
ATOM     11  C   UNL     1       0.715  -0.412   0.000  0.00  0.00    +0.091 C 
BRANCH  11  12
ATOM     12  C   UNL     1       0.715  -1.238   0.000  0.00  0.00    +0.227 A 
ATOM     13  N   UNL     1       1.382  -1.722   0.000  0.00  0.00    -0.111 NA
ATOM     14  N   UNL     1       1.127  -2.507   0.000  0.00  0.00    -0.107 NA
ATOM     15  C   UNL     1       0.302  -2.507   0.000  0.00  0.00    +0.252 A 
ATOM     16  O   UNL     1       0.047  -1.722   0.000  0.00  0.00    -0.419 OA
BRANCH  15  17
ATOM     17  C   UNL     1      -0.183  -3.175   0.000  0.00  0.00    +0.083 A 
ATOM     18  C   UNL     1       0.153  -3.928   0.000  0.00  0.00    +0.007 A 
ATOM     19  C   UNL     1      -0.332  -4.596   0.000  0.00  0.00    +0.000 A 
ATOM     20  C   UNL     1      -1.153  -4.509   0.000  0.00  0.00    +0.002 A 
ATOM     21  C   UNL     1      -1.488  -3.756   0.000  0.00  0.00    +0.030 A 
ATOM     22  C   UNL     1      -1.003  -3.088   0.000  0.00  0.00    +0.145 A 
ATOM     23  F   UNL     1      -1.339  -2.335   0.000  0.00  0.00    -0.204 F 
ENDBRANCH  15  17
ENDBRANCH  11  12
ENDBRANCH  10  11
TORSDOF 7
