REMARK  Name = 
REMARK  8 active torsions:
REMARK  status: ('A' for Active; 'I' for Inactive)
REMARK    1  A    between atoms: O_2  and  C_3
REMARK    2  A    between atoms: C_3  and  C_4
REMARK    3  A    between atoms: N_8  and  C_9
REMARK    4  A    between atoms: C_12  and  C_13
REMARK    5  A    between atoms: C_16  and  C_17
REMARK    6  A    between atoms: C_17  and  N_18
REMARK    7  A    between atoms: N_18  and  S_19
REMARK    8  A    between atoms: S_19  and  C_22
REMARK                            x       y       z     vdW  Elec       q    Type
REMARK                         _______ _______ _______ _____ _____    ______ ____
ROOT
ATOM      9  C   UNL     1       2.096  -2.841   0.000  0.00  0.00    +0.120 C 
ATOM     10  C   UNL     1       1.429  -3.326   0.000  0.00  0.00    +0.198 C 
ATOM     11  O   UNL     1       1.429  -4.151   0.000  0.00  0.00    -0.219 OA
ATOM     12  C   UNL     1       0.761  -2.841   0.000  0.00  0.00    +0.180 C 
ATOM     15  O   UNL     1       1.016  -2.057   0.000  0.00  0.00    -0.350 OA
ATOM     16  C   UNL     1       1.841  -2.057   0.000  0.00  0.00    +0.152 C 
ENDROOT
BRANCH   9   8
ATOM      4  C   UNL     1       3.548  -2.611   0.000  0.00  0.00    +0.087 C 
ATOM      5  C   UNL     1       4.216  -3.096   0.000  0.00  0.00    +0.020 C 
ATOM      6  C   UNL     1       3.961  -3.881   0.000  0.00  0.00    +0.019 C 
ATOM      7  C   UNL     1       3.136  -3.881   0.000  0.00  0.00    +0.072 C 
ATOM      8  N   UNL     1       2.881  -3.096   0.000  0.00  0.00    -0.269 NA
BRANCH   4   3
ATOM      3  C   UNL     1       3.548  -1.786   0.000  0.00  0.00    +0.158 C 
BRANCH   3   2
ATOM      1  C   UNL     1       4.263  -0.549   0.000  0.00  0.00    +0.174 C 
ATOM      2  O   UNL     1       4.263  -1.374   0.000  0.00  0.00    -0.350 OA
ENDBRANCH   3   2
ENDBRANCH   4   3
ENDBRANCH   9   8
BRANCH  12  13
ATOM     13  C   UNL     1      -0.023  -3.096   0.000  0.00  0.00    +0.214 C 
ATOM     14  O   UNL     1      -0.636  -2.544   0.000  0.00  0.00    -0.218 OA
ENDBRANCH  12  13
BRANCH  16  17
ATOM     17  C   UNL     1       2.326  -1.389   0.000  0.00  0.00    +0.146 C 
BRANCH  17  18
ATOM     18  N   UNL     1       1.991  -0.636   0.000  0.00  0.00    -0.075 NA
BRANCH  18  19
ATOM     19  S   UNL     1       2.476   0.032   0.000  0.00  0.00    +0.077 S 
ATOM     20  O   UNL     1       3.143  -0.453   0.000  0.00  0.00    -0.152 OA
ATOM     21  O   UNL     1       1.808   0.517   0.000  0.00  0.00    -0.152 OA
BRANCH  19  22
ATOM     22  C   UNL     1       2.961   0.699   0.000  0.00  0.00    +0.124 A 
ATOM     23  C   UNL     1       2.625   1.453   0.000  0.00  0.00    +0.021 A 
ATOM     24  C   UNL     1       3.110   2.120   0.000  0.00  0.00    +0.013 A 
ATOM     25  C   UNL     1       3.930   2.034   0.000  0.00  0.00    +0.058 A 
ATOM     26 CL   UNL     1       4.415   2.702   0.000  0.00  0.00    -0.082 Cl
ATOM     27  C   UNL     1       4.266   1.280   0.000  0.00  0.00    +0.013 A 
ATOM     28  C   UNL     1       3.781   0.613   0.000  0.00  0.00    +0.021 A 
ENDBRANCH  19  22
ENDBRANCH  18  19
ENDBRANCH  17  18
ENDBRANCH  16  17
TORSDOF 8
