REMARK  Name = 
REMARK  3 active torsions:
REMARK  status: ('A' for Active; 'I' for Inactive)
REMARK    1  A    between atoms: N_5  and  C_6
REMARK    2  A    between atoms: C_6  and  C_7
REMARK    3  A    between atoms: C_10  and  N_11
REMARK                            x       y       z     vdW  Elec       q    Type
REMARK                         _______ _______ _______ _____ _____    ______ ____
ROOT
ATOM      1  C   UNL     1       0.715  -1.238   0.000  0.00  0.00    +0.115 C 
ATOM      2  N   UNL     1       0.715  -0.412   0.000  0.00  0.00    -0.274 N 
ATOM      3  C   UNL     1       0.000   0.000   0.000  0.00  0.00    +0.120 C 
ATOM      4  C   UNL     1      -0.785  -0.255   0.000  0.00  0.00    +0.095 C 
ATOM      5  N   UNL     1      -1.270   0.412   0.000  0.00  0.00    -0.265 NA
ATOM     17  C   UNL     1      -0.785   1.080   0.000  0.00  0.00    +0.104 C 
ATOM     18  C   UNL     1       0.000   0.825   0.000  0.00  0.00    +0.151 C 
ATOM     19  O   UNL     1       0.715   1.238   0.000  0.00  0.00    -0.344 OA
ATOM     20  C   UNL     1       1.429   0.825   0.000  0.00  0.00    +0.227 C 
ATOM     21  C   UNL     1       1.429   0.000   0.000  0.00  0.00    +0.256 C 
ATOM     22  O   UNL     1       2.143  -0.412   0.000  0.00  0.00    -0.272 OA
ENDROOT
BRANCH   5   6
ATOM      6  C   UNL     1      -2.095   0.412   0.000  0.00  0.00    +0.099 C 
BRANCH   6   7
ATOM      7  C   UNL     1      -2.507   1.127   0.000  0.00  0.00    -0.006 A 
ATOM      8  C   UNL     1      -3.332   1.127   0.000  0.00  0.00    -0.002 A 
ATOM      9  C   UNL     1      -3.744   1.841   0.000  0.00  0.00    +0.016 A 
ATOM     10  C   UNL     1      -3.332   2.556   0.000  0.00  0.00    +0.073 A 
ATOM     15  C   UNL     1      -2.507   2.556   0.000  0.00  0.00    +0.016 A 
ATOM     16  C   UNL     1      -2.095   1.841   0.000  0.00  0.00    -0.002 A 
BRANCH  10  11
ATOM     11  N   UNL     1      -3.744   3.270   0.000  0.00  0.00    -0.179 NA
ATOM     12  C   UNL     1      -3.332   3.985   0.000  0.00  0.00    +0.246 C 
ATOM     13  C   UNL     1      -3.744   4.699   0.000  0.00  0.00    +0.097 C 
ATOM     14  O   UNL     1      -2.507   3.985   0.000  0.00  0.00    -0.273 OA
ENDBRANCH  10  11
ENDBRANCH   6   7
ENDBRANCH   5   6
TORSDOF 3
