REMARK  Name = 
REMARK  4 active torsions:
REMARK  status: ('A' for Active; 'I' for Inactive)
REMARK    1  A    between atoms: C_5  and  C_6
REMARK    2  A    between atoms: C_6  and  N_7
REMARK    3  A    between atoms: C_16  and  N_17
REMARK    4  A    between atoms: C_18  and  C_20
REMARK                            x       y       z     vdW  Elec       q    Type
REMARK                         _______ _______ _______ _____ _____    ______ ____
ROOT
ATOM      7  N   UNL     1       0.813  -2.091   0.000  0.00  0.00    -0.269 NA
ATOM      8  C   UNL     1       1.629  -1.912   0.000  0.00  0.00    +0.074 C 
ATOM      9  C   UNL     1       1.582  -0.925   0.000  0.00  0.00    +0.039 C 
ATOM     10  C   UNL     1       1.713  -0.121   0.000  0.00  0.00    +0.011 C 
ATOM     11  C   UNL     1       1.163  -0.557   0.000  0.00  0.00    +0.054 C 
ATOM     12  C   UNL     1       1.225  -1.510   0.000  0.00  0.00    +0.078 C 
ATOM     13  C   UNL     1       0.244  -0.558   0.000  0.00  0.00    +0.041 A 
ATOM     14  C   UNL     1      -0.397  -0.039   0.000  0.00  0.00    +0.014 A 
ATOM     15  C   UNL     1      -1.167  -0.335   0.000  0.00  0.00    +0.023 A 
ATOM     16  C   UNL     1      -1.296  -1.150   0.000  0.00  0.00    +0.130 A 
ATOM     26  C   UNL     1      -0.655  -1.669   0.000  0.00  0.00    +0.276 A 
ATOM     27  O   UNL     1      -0.784  -2.484   0.000  0.00  0.00    -0.266 OA
ATOM     28  N   UNL     1       0.115  -1.373   0.000  0.00  0.00    -0.298 N 
ATOM     29  C   UNL     1       0.622  -0.936   0.000  0.00  0.00    +0.110 C 
ENDROOT
BRANCH  16  17
ATOM     17  N   UNL     1      -2.066  -1.445   0.000  0.00  0.00    -0.171 NA
ATOM     18  C   UNL     1      -2.195  -2.260   0.000  0.00  0.00    +0.269 C 
ATOM     19  O   UNL     1      -1.554  -2.779   0.000  0.00  0.00    -0.268 OA
BRANCH  18  20
ATOM     20  C   UNL     1      -2.965  -2.556   0.000  0.00  0.00    +0.055 A 
ATOM     21  C   UNL     1      -3.094  -3.371   0.000  0.00  0.00    +0.005 A 
ATOM     22  C   UNL     1      -3.864  -3.667   0.000  0.00  0.00    +0.000 A 
ATOM     23  C   UNL     1      -4.505  -3.147   0.000  0.00  0.00    +0.000 A 
ATOM     24  C   UNL     1      -4.377  -2.333   0.000  0.00  0.00    +0.000 A 
ATOM     25  C   UNL     1      -3.606  -2.037   0.000  0.00  0.00    +0.005 A 
ENDBRANCH  18  20
ENDBRANCH  16  17
BRANCH   7   6
ATOM      6  C   UNL     1       0.125  -2.547   0.000  0.00  0.00    +0.099 C 
BRANCH   6   5
ATOM      1  F   UNL     1       0.328  -5.841   0.000  0.00  0.00    -0.204 F 
ATOM      2  C   UNL     1       0.277  -5.017   0.000  0.00  0.00    +0.140 A 
ATOM      3  C   UNL     1      -0.461  -4.650   0.000  0.00  0.00    +0.029 A 
ATOM      4  C   UNL     1      -0.512  -3.826   0.000  0.00  0.00    -0.001 A 
ATOM      5  C   UNL     1       0.176  -3.370   0.000  0.00  0.00    -0.006 A 
ATOM     30  C   UNL     1       0.914  -3.738   0.000  0.00  0.00    -0.001 A 
ATOM     31  C   UNL     1       0.965  -4.562   0.000  0.00  0.00    +0.029 A 
ENDBRANCH   6   5
ENDBRANCH   7   6
TORSDOF 4
