REMARK  Name = 
REMARK  2 active torsions:
REMARK  status: ('A' for Active; 'I' for Inactive)
REMARK    1  A    between atoms: C_5  and  C_8
REMARK    2  A    between atoms: C_18  and  C_20
REMARK                            x       y       z     vdW  Elec       q    Type
REMARK                         _______ _______ _______ _____ _____    ______ ____
ROOT
ATOM      8  C   UNL     1      -1.296  -1.150   0.000  0.00  0.00    +0.056 A 
ATOM      9  C   UNL     1      -1.167  -0.335   0.000  0.00  0.00    +0.006 A 
ATOM     10  C   UNL     1      -0.397  -0.039   0.000  0.00  0.00    +0.013 A 
ATOM     11  C   UNL     1       0.244  -0.558   0.000  0.00  0.00    +0.041 A 
ATOM     12  C   UNL     1       1.163  -0.557   0.000  0.00  0.00    +0.058 C 
ATOM     13  C   UNL     1       1.713  -0.121   0.000  0.00  0.00    +0.011 C 
ATOM     14  C   UNL     1       1.582  -0.925   0.000  0.00  0.00    +0.043 C 
ATOM     15  C   UNL     1       1.629  -1.912   0.000  0.00  0.00    +0.096 C 
ATOM     16  N   UNL     1       0.813  -2.091   0.000  0.00  0.00    -0.273 N 
ATOM     17  C   UNL     1       1.225  -1.510   0.000  0.00  0.00    +0.100 C 
ATOM     18  C   UNL     1       0.206  -2.683   0.000  0.00  0.00    +0.284 C 
ATOM     19  O   UNL     1       0.472  -3.518   0.000  0.00  0.00    -0.267 OA
ATOM     25  C   UNL     1       0.622  -0.936   0.000  0.00  0.00    +0.110 C 
ATOM     26  N   UNL     1       0.115  -1.373   0.000  0.00  0.00    -0.299 N 
ATOM     27  C   UNL     1      -0.655  -1.669   0.000  0.00  0.00    +0.261 A 
ATOM     28  O   UNL     1      -0.514  -2.701   0.000  0.00  0.00    -0.267 OA
ENDROOT
BRANCH   8   5
ATOM      1 CL   UNL     1      -4.424  -2.328   0.000  0.00  0.00    -0.082 Cl
ATOM      2  C   UNL     1      -3.606  -2.037   0.000  0.00  0.00    +0.058 A 
ATOM      3  C   UNL     1      -3.478  -1.222   0.000  0.00  0.00    +0.011 A 
ATOM      4  C   UNL     1      -2.707  -0.926   0.000  0.00  0.00    +0.001 A 
ATOM      5  C   UNL     1      -2.066  -1.445   0.000  0.00  0.00    +0.005 A 
ATOM      6  C   UNL     1      -2.195  -2.260   0.000  0.00  0.00    +0.001 A 
ATOM      7  C   UNL     1      -2.965  -2.556   0.000  0.00  0.00    +0.011 A 
ENDBRANCH   8   5
BRANCH  18  20
ATOM     20  C   UNL     1      -0.614  -2.179   0.000  0.00  0.00    +0.199 A 
ATOM     21  C   UNL     1      -1.345  -2.561   0.000  0.00  0.00    +0.045 A 
ATOM     22  C   UNL     1      -1.934  -1.982   0.000  0.00  0.00    +0.044 A 
ATOM     23  C   UNL     1      -1.566  -1.244   0.000  0.00  0.00    +0.180 A 
ATOM     24  O   UNL     1      -0.750  -1.366   0.000  0.00  0.00    -0.446 OA
ENDBRANCH  18  20
TORSDOF 2
