REMARK  Name = 
REMARK  3 active torsions:
REMARK  status: ('A' for Active; 'I' for Inactive)
REMARK    1  A    between atoms: N_2  and  C_4
REMARK    2  A    between atoms: C_7  and  C_8
REMARK    3  A    between atoms: C_8  and  N_9
REMARK                            x       y       z     vdW  Elec       q    Type
REMARK                         _______ _______ _______ _____ _____    ______ ____
ROOT
ATOM      4  C   UNL     1       1.671  -1.616   0.000  0.00  0.00    +0.048 A 
ATOM      5  C   UNL     1       2.385  -2.029   0.000  0.00  0.00    +0.014 A 
ATOM      6  C   UNL     1       2.385  -2.853   0.000  0.00  0.00    -0.002 A 
ATOM      7  C   UNL     1       1.671  -3.266   0.000  0.00  0.00    -0.006 A 
ATOM     17  C   UNL     1       0.957  -2.853   0.000  0.00  0.00    -0.002 A 
ATOM     18  C   UNL     1       0.957  -2.029   0.000  0.00  0.00    +0.014 A 
ENDROOT
BRANCH   4   2
ATOM      1  C   UNL     1       0.957  -0.379   0.000  0.00  0.00    +0.112 C 
ATOM      2  N   UNL     1       1.671  -0.791   0.000  0.00  0.00    -0.304 N 
ATOM      3  C   UNL     1       2.385  -0.379   0.000  0.00  0.00    +0.112 C 
ENDBRANCH   4   2
BRANCH   7   8
ATOM      8  C   UNL     1       1.671  -4.091   0.000  0.00  0.00    +0.099 C 
BRANCH   8   9
ATOM      9  N   UNL     1       0.957  -4.503   0.000  0.00  0.00    -0.265 NA
ATOM     10  C   UNL     1       1.018  -5.326   0.000  0.00  0.00    +0.105 C 
ATOM     11  C   UNL     1       0.413  -5.887   0.000  0.00  0.00    +0.160 C 
ATOM     12  O   UNL     1      -0.402  -5.764   0.000  0.00  0.00    -0.350 OA
ATOM     13  C   UNL     1      -0.815  -5.050   0.000  0.00  0.00    +0.176 C 
ATOM     14  C   UNL     1      -0.513  -4.282   0.000  0.00  0.00    +0.197 C 
ATOM     15  O   UNL     1      -1.075  -3.677   0.000  0.00  0.00    -0.219 OA
ATOM     16  C   UNL     1       0.275  -4.039   0.000  0.00  0.00    +0.108 C 
ENDBRANCH   8   9
ENDBRANCH   7   8
TORSDOF 3
