REMARK  Name = 
REMARK  9 active torsions:
REMARK  status: ('A' for Active; 'I' for Inactive)
REMARK    1  A    between atoms: O_2  and  C_3
REMARK    2  A    between atoms: C_6  and  C_7
REMARK    3  A    between atoms: C_7  and  C_8
REMARK    4  A    between atoms: C_13  and  C_14
REMARK    5  A    between atoms: C_14  and  C_15
REMARK    6  A    between atoms: C_18  and  C_19
REMARK    7  A    between atoms: C_19  and  C_20
REMARK    8  A    between atoms: C_20  and  N_21
REMARK    9  A    between atoms: C_24  and  N_27
REMARK                            x       y       z     vdW  Elec       q    Type
REMARK                         _______ _______ _______ _____ _____    ______ ____
ROOT
ATOM      8  C   UNL     1      -4.094   5.192   0.000  0.00  0.00    +0.230 C 
ATOM      9  O   UNL     1      -4.646   4.579   0.000  0.00  0.00    -0.275 OA
ATOM     10  N   UNL     1      -3.287   5.020   0.000  0.00  0.00    -0.279 N 
ATOM     11  C   UNL     1      -2.735   5.633   0.000  0.00  0.00    +0.093 C 
ATOM     12  C   UNL     1      -1.928   5.462   0.000  0.00  0.00    +0.022 C 
ATOM     13  C   UNL     1      -1.673   4.677   0.000  0.00  0.00    +0.015 C 
ATOM     18  C   UNL     1      -2.225   4.064   0.000  0.00  0.00    +0.022 C 
ATOM     37  C   UNL     1      -3.032   4.236   0.000  0.00  0.00    +0.093 C 
ENDROOT
BRANCH   8   7
ATOM      7  C   UNL     1      -4.349   5.976   0.000  0.00  0.00    +0.112 C 
BRANCH   7   6
ATOM      3  C   UNL     1      -6.770   6.491   0.000  0.00  0.00    +0.139 A 
ATOM      4  C   UNL     1      -6.218   7.104   0.000  0.00  0.00    +0.037 A 
ATOM      5  C   UNL     1      -5.411   6.933   0.000  0.00  0.00    -0.001 A 
ATOM      6  C   UNL     1      -5.156   6.148   0.000  0.00  0.00    -0.013 A 
ATOM     38  C   UNL     1      -5.708   5.535   0.000  0.00  0.00    -0.001 A 
ATOM     39  C   UNL     1      -6.515   5.706   0.000  0.00  0.00    +0.037 A 
BRANCH   3   2
ATOM      1  C   UNL     1      -7.832   7.447   0.000  0.00  0.00    +0.252 C 
ATOM      2  O   UNL     1      -7.577   6.662   0.000  0.00  0.00    -0.471 OA
ENDBRANCH   3   2
ENDBRANCH   7   6
ENDBRANCH   8   7
BRANCH  13  14
ATOM     14  C   UNL     1      -0.866   4.506   0.000  0.00  0.00    +0.114 C 
BRANCH  14  15
ATOM     15  C   UNL     1      -0.314   5.119   0.000  0.00  0.00    +0.365 C 
ATOM     16  O   UNL     1      -0.569   5.903   0.000  0.00  0.00    -0.246 OA
ATOM     17  O   UNL     1       0.493   4.947   0.000  0.00  0.00    -0.246 OA
ENDBRANCH  14  15
ENDBRANCH  13  14
BRANCH  18  19
ATOM     19  C   UNL     1      -1.970   3.280   0.000  0.00  0.00    +0.019 C 
BRANCH  19  20
ATOM     20  C   UNL     1      -1.163   3.108   0.000  0.00  0.00    +0.072 C 
BRANCH  20  21
ATOM     21  N   UNL     1      -0.908   2.323   0.000  0.00  0.00    -0.273 NA
ATOM     22  C   UNL     1      -0.101   2.152   0.000  0.00  0.00    +0.074 C 
ATOM     23  C   UNL     1       0.154   1.367   0.000  0.00  0.00    +0.040 C 
ATOM     24  C   UNL     1      -0.398   0.754   0.000  0.00  0.00    +0.093 C 
ATOM     25  C   UNL     1      -1.205   0.926   0.000  0.00  0.00    +0.040 C 
ATOM     26  C   UNL     1      -1.460   1.710   0.000  0.00  0.00    +0.074 C 
BRANCH  24  27
ATOM     27  N   UNL     1      -0.143  -0.030   0.000  0.00  0.00    -0.280 N 
ATOM     28  C   UNL     1      -0.628  -0.698   0.000  0.00  0.00    +0.350 A 
ATOM     29  O   UNL     1      -1.453  -0.698   0.000  0.00  0.00    -0.244 OA
ATOM     30  N   UNL     1      -0.143  -1.365   0.000  0.00  0.00    -0.191 NA
ATOM     31  C   UNL     1       0.641  -1.110   0.000  0.00  0.00    +0.102 A 
ATOM     32  C   UNL     1       0.641  -0.285   0.000  0.00  0.00    +0.082 A 
ATOM     33  C   UNL     1       1.356   0.127   0.000  0.00  0.00    +0.019 A 
ATOM     34  C   UNL     1       2.070  -0.285   0.000  0.00  0.00    +0.002 A 
ATOM     35  C   UNL     1       2.070  -1.110   0.000  0.00  0.00    +0.002 A 
ATOM     36  C   UNL     1       1.356  -1.523   0.000  0.00  0.00    +0.021 A 
ENDBRANCH  24  27
ENDBRANCH  20  21
ENDBRANCH  19  20
ENDBRANCH  18  19
TORSDOF 9
