REMARK  Name = 
REMARK  6 active torsions:
REMARK  status: ('A' for Active; 'I' for Inactive)
REMARK    1  A    between atoms: C_5  and  C_8
REMARK    2  A    between atoms: C_11  and  C_13
REMARK    3  A    between atoms: C_19  and  C_21
REMARK    4  A    between atoms: C_21  and  O_22
REMARK    5  A    between atoms: O_22  and  C_23
REMARK    6  A    between atoms: C_23  and  C_24
REMARK                            x       y       z     vdW  Elec       q    Type
REMARK                         _______ _______ _______ _____ _____    ______ ____
ROOT
ATOM     13  C   UNL     1       0.715  -0.412   0.000  0.00  0.00    +0.161 C 
ATOM     14  C   UNL     1       0.000   0.000   0.000  0.00  0.00    +0.077 C 
ATOM     15  C   UNL     1       0.000   0.825   0.000  0.00  0.00    +0.078 A 
ATOM     16  C   UNL     1       0.715   1.238   0.000  0.00  0.00    +0.094 A 
ATOM     17  C   UNL     1       1.429   0.825   0.000  0.00  0.00    +0.141 C 
ATOM     18  N   UNL     1       1.429   0.000   0.000  0.00  0.00    -0.265 N 
ATOM     19  C   UNL     1       2.143  -0.412   0.000  0.00  0.00    +0.256 C 
ATOM     20  O   UNL     1       2.143  -1.238   0.000  0.00  0.00    -0.272 OA
ATOM     27  N   UNL     1       0.543   2.045   0.000  0.00  0.00    -0.225 NA
ATOM     28  C   UNL     1      -0.278   2.131   0.000  0.00  0.00    +0.198 A 
ATOM     29  N   UNL     1      -0.613   1.377   0.000  0.00  0.00    -0.227 NA
ENDROOT
BRANCH  13  11
ATOM      8  C   UNL     1       1.127  -2.507   0.000  0.00  0.00    +0.203 A 
ATOM      9  N   UNL     1       0.302  -2.507   0.000  0.00  0.00    -0.056 NA
ATOM     10  O   UNL     1       0.047  -1.722   0.000  0.00  0.00    -0.335 OA
ATOM     11  C   UNL     1       0.715  -1.238   0.000  0.00  0.00    +0.255 A 
ATOM     12  N   UNL     1       1.382  -1.722   0.000  0.00  0.00    -0.189 NA
BRANCH   8   5
ATOM      1  C   UNL     1       3.067  -5.177   0.000  0.00  0.00    +0.031 C 
ATOM      2  C   UNL     1       2.582  -4.509   0.000  0.00  0.00    -0.022 A 
ATOM      3  C   UNL     1       1.761  -4.596   0.000  0.00  0.00    -0.004 A 
ATOM      4  C   UNL     1       1.276  -3.928   0.000  0.00  0.00    +0.003 A 
ATOM      5  C   UNL     1       1.612  -3.175   0.000  0.00  0.00    +0.039 A 
ATOM      6  C   UNL     1       2.432  -3.088   0.000  0.00  0.00    +0.003 A 
ATOM      7  C   UNL     1       2.917  -3.756   0.000  0.00  0.00    -0.004 A 
ENDBRANCH   8   5
ENDBRANCH  13  11
BRANCH  19  21
ATOM     21  C   UNL     1       2.858   0.000   0.000  0.00  0.00    +0.228 C 
BRANCH  21  22
ATOM     22  O   UNL     1       3.572  -0.412   0.000  0.00  0.00    -0.333 OA
BRANCH  22  23
ATOM     23  C   UNL     1       4.287   0.000   0.000  0.00  0.00    +0.257 C 
BRANCH  23  24
ATOM     24  C   UNL     1       5.001  -0.412   0.000  0.00  0.00    +0.394 C 
ATOM     25  O   UNL     1       5.716   0.000   0.000  0.00  0.00    -0.243 OA
ATOM     26  O   UNL     1       5.001  -1.238   0.000  0.00  0.00    -0.243 OA
ENDBRANCH  23  24
ENDBRANCH  22  23
ENDBRANCH  21  22
ENDBRANCH  19  21
TORSDOF 6
