REMARK  Name = 
REMARK  5 active torsions:
REMARK  status: ('A' for Active; 'I' for Inactive)
REMARK    1  A    between atoms: C_2  and  C_4
REMARK    2  A    between atoms: C_2  and  C_8
REMARK    3  A    between atoms: C_4  and  C_5
REMARK    4  A    between atoms: C_8  and  C_9
REMARK    5  A    between atoms: C_23  and  C_26
REMARK                            x       y       z     vdW  Elec       q    Type
REMARK                         _______ _______ _______ _____ _____    ______ ____
ROOT
ATOM      9  C   UNL     1       6.912   0.608   0.000  0.00  0.00    +0.226 C 
ATOM     10  O   UNL     1       7.517   1.169   0.000  0.00  0.00    -0.275 OA
ATOM     11  N   UNL     1       6.124   0.851   0.000  0.00  0.00    -0.276 N 
ATOM     12  C   UNL     1       5.940   1.655   0.000  0.00  0.00    +0.115 C 
ATOM     13  C   UNL     1       5.152   1.899   0.000  0.00  0.00    +0.116 C 
ATOM     14  N   UNL     1       4.547   1.337   0.000  0.00  0.00    -0.266 N 
ATOM     15  C   UNL     1       4.731   0.533   0.000  0.00  0.00    +0.174 C 
ATOM     16  C   UNL     1       5.519   0.290   0.000  0.00  0.00    +0.123 C 
ATOM     17  C   UNL     1       4.216  -0.112   0.000  0.00  0.00    +0.265 C 
ATOM     18  O   UNL     1       4.574  -0.855   0.000  0.00  0.00    -0.271 OA
ATOM     19  N   UNL     1       3.391  -0.112   0.000  0.00  0.00    -0.178 NA
ATOM     20  C   UNL     1       2.877   0.533   0.000  0.00  0.00    +0.078 A 
ATOM     21  C   UNL     1       3.060   1.337   0.000  0.00  0.00    +0.069 A 
ATOM     22  C   UNL     1       2.456   1.899   0.000  0.00  0.00    +0.006 A 
ATOM     23  C   UNL     1       1.667   1.655   0.000  0.00  0.00    +0.002 A 
ATOM     24  C   UNL     1       1.484   0.851   0.000  0.00  0.00    +0.001 A 
ATOM     25  C   UNL     1       2.088   0.290   0.000  0.00  0.00    +0.017 A 
ATOM     33  C   UNL     1       3.804   1.695   0.000  0.00  0.00    +0.251 C 
ATOM     34  O   UNL     1       3.804   2.520   0.000  0.00  0.00    -0.270 OA
ENDROOT
BRANCH  23  26
ATOM     26  C   UNL     1       1.062   2.216   0.000  0.00  0.00    +0.027 A 
ATOM     27  C   UNL     1       0.274   1.973   0.000  0.00  0.00    +0.002 A 
ATOM     28  C   UNL     1      -0.331   2.534   0.000  0.00  0.00    +0.000 A 
ATOM     29  C   UNL     1      -0.147   3.339   0.000  0.00  0.00    +0.002 A 
ATOM     30  C   UNL     1       0.641   3.582   0.000  0.00  0.00    +0.030 A 
ATOM     31  C   UNL     1       1.246   3.021   0.000  0.00  0.00    +0.140 A 
ATOM     32  F   UNL     1       2.034   3.264   0.000  0.00  0.00    -0.204 F 
ENDBRANCH  23  26
BRANCH   9   8
ATOM      8  C   UNL     1       7.096  -0.197   0.000  0.00  0.00    +0.086 C 
BRANCH   8   2
ATOM      1  C   UNL     1       8.127   0.349   0.000  0.00  0.00    +0.001 C 
ATOM      2  C   UNL     1       7.884  -0.440   0.000  0.00  0.00    +0.019 C 
ATOM      3  C   UNL     1       7.641  -1.228   0.000  0.00  0.00    +0.001 C 
BRANCH   2   4
ATOM      4  C   UNL     1       8.672  -0.683   0.000  0.00  0.00    +0.115 C 
BRANCH   4   5
ATOM      5  C   UNL     1       8.856  -1.487   0.000  0.00  0.00    +0.365 C 
ATOM      6  O   UNL     1       9.644  -1.730   0.000  0.00  0.00    -0.246 OA
ATOM      7  O   UNL     1       8.251  -2.048   0.000  0.00  0.00    -0.246 OA
ENDBRANCH   4   5
ENDBRANCH   2   4
ENDBRANCH   8   2
ENDBRANCH   9   8
TORSDOF 5
