REMARK  Name = 
REMARK  6 active torsions:
REMARK  status: ('A' for Active; 'I' for Inactive)
REMARK    1  A    between atoms: O_2  and  C_3
REMARK    2  A    between atoms: C_6  and  N_7
REMARK    3  A    between atoms: N_10  and  C_11
REMARK    4  A    between atoms: C_11  and  C_12
REMARK    5  A    between atoms: C_19  and  C_20
REMARK    6  A    between atoms: C_20  and  N_21
REMARK                            x       y       z     vdW  Elec       q    Type
REMARK                         _______ _______ _______ _____ _____    ______ ____
ROOT
ATOM     12  C   UNL     1       1.814  -2.106   0.000  0.00  0.00    +0.079 C 
ATOM     13  C   UNL     1       1.661  -1.343   0.000  0.00  0.00    +0.018 C 
ATOM     14  C   UNL     1       0.923  -1.010   0.000  0.00  0.00    +0.005 C 
ATOM     15  C   UNL     1       0.961  -0.114   0.000  0.00  0.00    +0.017 C 
ATOM     16  C   UNL     1       1.205  -0.720   0.000  0.00  0.00    +0.072 C 
ATOM     17  N   UNL     1       1.065  -1.759   0.000  0.00  0.00    -0.272 NA
ATOM     18  C   UNL     1       0.226  -2.118   0.000  0.00  0.00    +0.073 C 
ATOM     19  C   UNL     1       0.119  -1.362   0.000  0.00  0.00    +0.032 C 
ENDROOT
BRANCH  12  11
ATOM     11  C   UNL     1       2.324  -2.754   0.000  0.00  0.00    +0.133 C 
BRANCH  11  10
ATOM      7  N   UNL     1       2.223  -4.934   0.000  0.00  0.00    -0.161 NA
ATOM      8  C   UNL     1       2.529  -4.168   0.000  0.00  0.00    +0.344 C 
ATOM      9  O   UNL     1       3.345  -4.050   0.000  0.00  0.00    -0.249 OA
ATOM     10  N   UNL     1       2.018  -3.520   0.000  0.00  0.00    -0.185 NA
BRANCH   7   6
ATOM      3  C   UNL     1       3.754  -6.878   0.000  0.00  0.00    +0.139 A 
ATOM      4  C   UNL     1       2.938  -6.996   0.000  0.00  0.00    +0.038 A 
ATOM      5  C   UNL     1       2.427  -6.348   0.000  0.00  0.00    +0.020 A 
ATOM      6  C   UNL     1       2.733  -5.582   0.000  0.00  0.00    +0.075 A 
ATOM     27  C   UNL     1       3.550  -5.464   0.000  0.00  0.00    +0.020 A 
ATOM     28  C   UNL     1       4.060  -6.112   0.000  0.00  0.00    +0.038 A 
BRANCH   3   2
ATOM      1  C   UNL     1       5.081  -7.409   0.000  0.00  0.00    +0.252 C 
ATOM      2  O   UNL     1       4.264  -7.527   0.000  0.00  0.00    -0.471 OA
ENDBRANCH   3   2
ENDBRANCH   7   6
ENDBRANCH  11  10
ENDBRANCH  12  11
BRANCH  19  20
ATOM     20  C   UNL     1      -0.602  -0.960   0.000  0.00  0.00    +0.073 C 
BRANCH  20  21
ATOM     21  N   UNL     1      -0.614  -0.136   0.000  0.00  0.00    -0.271 NA
ATOM     22  C   UNL     1      -1.335   0.266   0.000  0.00  0.00    +0.084 C 
ATOM     23  C   UNL     1      -1.347   1.091   0.000  0.00  0.00    +0.075 C 
ATOM     24  S   UNL     1      -0.639   1.514   0.000  0.00  0.00    -0.137 S 
ATOM     25  C   UNL     1       0.082   1.113   0.000  0.00  0.00    +0.075 C 
ATOM     26  C   UNL     1       0.094   0.288   0.000  0.00  0.00    +0.084 C 
ENDBRANCH  20  21
ENDBRANCH  19  20
TORSDOF 6
