REMARK  Name = 
REMARK  7 active torsions:
REMARK  status: ('A' for Active; 'I' for Inactive)
REMARK    1  A    between atoms: C_2  and  C_3
REMARK    2  A    between atoms: C_3  and  N_4
REMARK    3  A    between atoms: C_10  and  C_11
REMARK    4  A    between atoms: C_11  and  C_12
REMARK    5  A    between atoms: C_15  and  C_16
REMARK    6  A    between atoms: C_16  and  C_17
REMARK    7  A    between atoms: C_24  and  O_25
REMARK                            x       y       z     vdW  Elec       q    Type
REMARK                         _______ _______ _______ _____ _____    ______ ____
ROOT
ATOM      4  N   UNL     1      -2.858  -3.300   0.000  0.00  0.00    -0.188 NA
ATOM      5  C   UNL     1      -2.143  -3.712   0.000  0.00  0.00    +0.323 C 
ATOM      6  O   UNL     1      -2.143  -4.537   0.000  0.00  0.00    -0.251 OA
ATOM      7  N   UNL     1      -1.429  -3.300   0.000  0.00  0.00    -0.263 N 
ATOM      8  C   UNL     1      -1.429  -2.475   0.000  0.00  0.00    +0.095 C 
ATOM      9  C   UNL     1      -0.715  -2.062   0.000  0.00  0.00    +0.022 C 
ATOM     10  C   UNL     1       0.000  -2.475   0.000  0.00  0.00    +0.015 C 
ATOM     15  C   UNL     1       0.000  -3.300   0.000  0.00  0.00    +0.026 C 
ATOM     29  C   UNL     1      -0.715  -3.712   0.000  0.00  0.00    +0.095 C 
ENDROOT
BRANCH   4   3
ATOM      3  C   UNL     1      -3.572  -3.712   0.000  0.00  0.00    +0.117 C 
BRANCH   3   2
ATOM      1  C   UNL     1      -5.001  -3.712   0.000  0.00  0.00    +0.002 C 
ATOM      2  C   UNL     1      -4.287  -3.300   0.000  0.00  0.00    +0.023 C 
ENDBRANCH   3   2
ENDBRANCH   4   3
BRANCH  10  11
ATOM     11  C   UNL     1       0.715  -2.062   0.000  0.00  0.00    +0.114 C 
BRANCH  11  12
ATOM     12  C   UNL     1       0.715  -1.238   0.000  0.00  0.00    +0.365 C 
ATOM     13  O   UNL     1       0.000  -0.825   0.000  0.00  0.00    -0.246 OA
ATOM     14  O   UNL     1       1.429  -0.825   0.000  0.00  0.00    -0.246 OA
ENDBRANCH  11  12
ENDBRANCH  10  11
BRANCH  15  16
ATOM     16  C   UNL     1       0.715  -3.712   0.000  0.00  0.00    +0.047 C 
BRANCH  16  17
ATOM     17  C   UNL     1       0.715  -4.537   0.000  0.00  0.00    +0.053 C 
ATOM     18  N   UNL     1       0.000  -4.950   0.000  0.00  0.00    -0.274 NA
ATOM     19  C   UNL     1       0.000  -5.775   0.000  0.00  0.00    +0.130 C 
ATOM     20  C   UNL     1       0.715  -6.188   0.000  0.00  0.00    +0.053 C 
ATOM     21  C   UNL     1       1.429  -5.775   0.000  0.00  0.00    -0.019 A 
ATOM     22  C   UNL     1       1.429  -4.950   0.000  0.00  0.00    +0.012 A 
ATOM     23  C   UNL     1       2.143  -4.537   0.000  0.00  0.00    +0.038 A 
ATOM     24  C   UNL     1       2.858  -4.950   0.000  0.00  0.00    +0.139 A 
ATOM     27  C   UNL     1       2.858  -5.775   0.000  0.00  0.00    +0.037 A 
ATOM     28  C   UNL     1       2.143  -6.188   0.000  0.00  0.00    -0.001 A 
BRANCH  24  25
ATOM     25  O   UNL     1       3.572  -4.537   0.000  0.00  0.00    -0.471 OA
ATOM     26  C   UNL     1       3.572  -3.712   0.000  0.00  0.00    +0.252 C 
ENDBRANCH  24  25
ENDBRANCH  16  17
ENDBRANCH  15  16
TORSDOF 7
