REMARK  Name = 
REMARK  7 active torsions:
REMARK  status: ('A' for Active; 'I' for Inactive)
REMARK    1  A    between atoms: C_2  and  C_5
REMARK    2  A    between atoms: N_11  and  C_12
REMARK    3  A    between atoms: N_11  and  C_19
REMARK    4  A    between atoms: C_12  and  C_13
REMARK    5  A    between atoms: C_23  and  O_27
REMARK    6  A    between atoms: O_27  and  C_28
REMARK    7  A    between atoms: C_28  and  C_29
REMARK                            x       y       z     vdW  Elec       q    Type
REMARK                         _______ _______ _______ _____ _____    ______ ____
ROOT
ATOM      5  C   UNL     1      -0.854  -2.835   0.000  0.00  0.00    +0.063 A 
ATOM      6  C   UNL     1      -1.406  -2.222   0.000  0.00  0.00    +0.035 A 
ATOM      7  C   UNL     1      -1.151  -1.437   0.000  0.00  0.00    +0.103 A 
ATOM      8  N   UNL     1      -0.344  -1.265   0.000  0.00  0.00    -0.212 NA
ATOM      9  C   UNL     1       0.208  -1.879   0.000  0.00  0.00    +0.220 A 
ATOM     10  N   UNL     1      -0.047  -2.663   0.000  0.00  0.00    -0.218 NA
ATOM     11  N   UNL     1       1.015  -1.707   0.000  0.00  0.00    -0.271 N 
ENDROOT
BRANCH  11  19
ATOM     19  C   UNL     1       1.270  -0.922   0.000  0.00  0.00    +0.135 C 
ATOM     20  C   UNL     1       0.785  -0.255   0.000  0.00  0.00    +0.164 C 
ATOM     21  O   UNL     1       1.270   0.412   0.000  0.00  0.00    -0.349 OA
ATOM     22  C   UNL     1       2.054   0.158   0.000  0.00  0.00    +0.173 C 
ATOM     23  C   UNL     1       2.839   0.412   0.000  0.00  0.00    +0.175 C 
ATOM     24  C   UNL     1       3.324  -0.255   0.000  0.00  0.00    +0.174 C 
ATOM     25  O   UNL     1       2.839  -0.922   0.000  0.00  0.00    -0.349 OA
ATOM     26  C   UNL     1       2.054  -0.667   0.000  0.00  0.00    +0.165 C 
BRANCH  23  27
ATOM     27  O   UNL     1       3.094   1.197   0.000  0.00  0.00    -0.346 OA
BRANCH  27  28
ATOM     28  C   UNL     1       2.542   1.810   0.000  0.00  0.00    +0.169 C 
BRANCH  28  29
ATOM     29  C   UNL     1       2.797   2.595   0.000  0.00  0.00    +0.007 A 
ATOM     30  C   UNL     1       2.245   3.208   0.000  0.00  0.00    -0.002 A 
ATOM     31  C   UNL     1       2.499   3.993   0.000  0.00  0.00    -0.000 A 
ATOM     32  C   UNL     1       3.307   4.164   0.000  0.00  0.00    -0.000 A 
ATOM     33  C   UNL     1       3.858   3.551   0.000  0.00  0.00    -0.000 A 
ATOM     34  C   UNL     1       3.604   2.766   0.000  0.00  0.00    -0.002 A 
ENDBRANCH  28  29
ENDBRANCH  27  28
ENDBRANCH  23  27
ENDBRANCH  11  19
BRANCH   5   2
ATOM      1  C   UNL     1      -1.364  -4.404   0.000  0.00  0.00    +0.006 C 
ATOM      2  C   UNL     1      -1.109  -3.619   0.000  0.00  0.00    +0.036 C 
ATOM      3  C   UNL     1      -0.325  -3.874   0.000  0.00  0.00    +0.006 C 
ATOM      4  C   UNL     1      -1.894  -3.364   0.000  0.00  0.00    +0.006 C 
ENDBRANCH   5   2
BRANCH  11  12
ATOM     12  C   UNL     1       1.567  -2.320   0.000  0.00  0.00    +0.120 C 
BRANCH  12  13
ATOM     13  C   UNL     1       2.374  -2.149   0.000  0.00  0.00    -0.002 A 
ATOM     14  C   UNL     1       2.628  -1.364   0.000  0.00  0.00    -0.003 A 
ATOM     15  C   UNL     1       3.436  -1.192   0.000  0.00  0.00    -0.000 A 
ATOM     16  C   UNL     1       3.988  -1.806   0.000  0.00  0.00    -0.000 A 
ATOM     17  C   UNL     1       3.733  -2.590   0.000  0.00  0.00    -0.000 A 
ATOM     18  C   UNL     1       2.926  -2.762   0.000  0.00  0.00    -0.003 A 
ENDBRANCH  12  13
ENDBRANCH  11  12
TORSDOF 7
