REMARK  Name = 
REMARK  7 active torsions:
REMARK  status: ('A' for Active; 'I' for Inactive)
REMARK    1  A    between atoms: C_2  and  C_4
REMARK    2  A    between atoms: C_7  and  N_8
REMARK    3  A    between atoms: C_9  and  O_11
REMARK    4  A    between atoms: O_11  and  C_12
REMARK    5  A    between atoms: C_16  and  N_20
REMARK    6  A    between atoms: N_20  and  S_21
REMARK    7  A    between atoms: S_21  and  C_24
REMARK                            x       y       z     vdW  Elec       q    Type
REMARK                         _______ _______ _______ _____ _____    ______ ____
ROOT
ATOM     12  C   UNL     1      -1.694   3.875   0.000  0.00  0.00    +0.229 C 
ATOM     13  C   UNL     1      -0.940   4.210   0.000  0.00  0.00    +0.188 C 
ATOM     14  O   UNL     1      -0.388   3.598   0.000  0.00  0.00    -0.348 OA
ATOM     15  C   UNL     1      -0.801   2.883   0.000  0.00  0.00    +0.166 C 
ATOM     16  C   UNL     1      -0.715   2.062   0.000  0.00  0.00    +0.157 C 
ATOM     17  C   UNL     1      -1.468   1.727   0.000  0.00  0.00    +0.164 C 
ATOM     18  O   UNL     1      -2.020   2.340   0.000  0.00  0.00    -0.348 OA
ATOM     19  C   UNL     1      -1.608   3.054   0.000  0.00  0.00    +0.186 C 
ENDROOT
BRANCH  12  11
ATOM     11  O   UNL     1      -2.408   4.287   0.000  0.00  0.00    -0.432 OA
BRANCH  11   9
ATOM      8  N   UNL     1      -3.123   5.525   0.000  0.00  0.00    -0.142 NA
ATOM      9  C   UNL     1      -2.408   5.112   0.000  0.00  0.00    +0.425 C 
ATOM     10  O   UNL     1      -1.694   5.525   0.000  0.00  0.00    -0.224 OA
BRANCH   8   7
ATOM      4  C   UNL     1      -3.123   8.000   0.000  0.00  0.00    -0.022 A 
ATOM      5  C   UNL     1      -2.408   7.588   0.000  0.00  0.00    -0.003 A 
ATOM      6  C   UNL     1      -2.408   6.763   0.000  0.00  0.00    +0.016 A 
ATOM      7  C   UNL     1      -3.123   6.350   0.000  0.00  0.00    +0.077 A 
ATOM     34  C   UNL     1      -3.837   6.763   0.000  0.00  0.00    +0.016 A 
ATOM     35  C   UNL     1      -3.837   7.588   0.000  0.00  0.00    -0.003 A 
BRANCH   4   2
ATOM      1  C   UNL     1      -3.837   9.238   0.000  0.00  0.00    +0.005 C 
ATOM      2  C   UNL     1      -3.123   8.825   0.000  0.00  0.00    +0.022 C 
ATOM      3  C   UNL     1      -2.408   9.238   0.000  0.00  0.00    +0.005 C 
ENDBRANCH   4   2
ENDBRANCH   8   7
ENDBRANCH  11   9
ENDBRANCH  12  11
BRANCH  16  20
ATOM     20  N   UNL     1       0.000   1.650   0.000  0.00  0.00    -0.074 NA
BRANCH  20  21
ATOM     21  S   UNL     1       0.000   0.825   0.000  0.00  0.00    +0.078 S 
ATOM     22  O   UNL     1      -0.825   0.825   0.000  0.00  0.00    -0.152 OA
ATOM     23  O   UNL     1       0.825   0.825   0.000  0.00  0.00    -0.152 OA
BRANCH  21  24
ATOM     24  C   UNL     1       0.000   0.000   0.000  0.00  0.00    +0.141 A 
ATOM     25  C   UNL     1      -0.715  -0.412   0.000  0.00  0.00    +0.022 A 
ATOM     26  C   UNL     1      -0.715  -1.238   0.000  0.00  0.00    +0.001 A 
ATOM     27  C   UNL     1       0.000  -1.650   0.000  0.00  0.00    +0.002 A 
ATOM     28  C   UNL     1       0.715  -1.238   0.000  0.00  0.00    +0.019 A 
ATOM     29  C   UNL     1       0.715  -0.412   0.000  0.00  0.00    +0.100 A 
ATOM     30  N   UNL     1       1.429   0.000   0.000  0.00  0.00    -0.242 NA
ATOM     31  C   UNL     1       2.143  -0.412   0.000  0.00  0.00    +0.099 A 
ATOM     32  C   UNL     1       2.143  -1.238   0.000  0.00  0.00    +0.021 A 
ATOM     33  C   UNL     1       1.429  -1.650   0.000  0.00  0.00    +0.003 A 
ENDBRANCH  21  24
ENDBRANCH  20  21
ENDBRANCH  16  20
TORSDOF 7
