REMARK  Name = 
REMARK  4 active torsions:
REMARK  status: ('A' for Active; 'I' for Inactive)
REMARK    1  A    between atoms: O_2  and  C_3
REMARK    2  A    between atoms: C_8  and  C_9
REMARK    3  A    between atoms: C_9  and  N_10
REMARK    4  A    between atoms: C_13  and  C_15
REMARK                            x       y       z     vdW  Elec       q    Type
REMARK                         _______ _______ _______ _____ _____    ______ ____
ROOT
ATOM     10  N   UNL     1      -2.723  -1.110   0.000  0.00  0.00    -0.268 NA
ATOM     11  C   UNL     1      -2.723  -0.285   0.000  0.00  0.00    +0.073 C 
ATOM     12  C   UNL     1      -1.938  -0.030   0.000  0.00  0.00    +0.028 C 
ATOM     13  C   UNL     1      -1.453  -0.698   0.000  0.00  0.00    +0.094 C 
ATOM     14  C   UNL     1      -1.938  -1.365   0.000  0.00  0.00    +0.082 C 
ENDROOT
BRANCH  13  15
ATOM     15  C   UNL     1      -0.628  -0.698   0.000  0.00  0.00    +0.207 A 
ATOM     16  N   UNL     1      -0.143  -1.365   0.000  0.00  0.00    -0.212 NA
ATOM     17  C   UNL     1       0.641  -1.110   0.000  0.00  0.00    +0.118 A 
ATOM     18  C   UNL     1       0.641  -0.285   0.000  0.00  0.00    +0.164 A 
ATOM     19  O   UNL     1      -0.143  -0.030   0.000  0.00  0.00    -0.438 OA
ATOM     20  C   UNL     1       1.356   0.127   0.000  0.00  0.00    +0.039 A 
ATOM     21  C   UNL     1       2.070  -0.285   0.000  0.00  0.00    -0.001 A 
ATOM     22  C   UNL     1       2.070  -1.110   0.000  0.00  0.00    -0.020 A 
ATOM     23  C   UNL     1       2.784  -1.523   0.000  0.00  0.00    +0.031 C 
ATOM     24  C   UNL     1       1.356  -1.523   0.000  0.00  0.00    +0.018 A 
ENDBRANCH  13  15
BRANCH  10   9
ATOM      9  C   UNL     1      -3.390  -1.595   0.000  0.00  0.00    +0.102 C 
BRANCH   9   8
ATOM      3  C   UNL     1      -4.811  -1.745   0.000  0.00  0.00    +0.136 A 
ATOM      4  C   UNL     1      -5.565  -1.409   0.000  0.00  0.00    +0.037 A 
ATOM      5  C   UNL     1      -5.651  -0.589   0.000  0.00  0.00    +0.003 A 
ATOM      6  C   UNL     1      -4.984  -0.104   0.000  0.00  0.00    -0.000 A 
ATOM      7  C   UNL     1      -4.230  -0.439   0.000  0.00  0.00    +0.000 A 
ATOM      8  C   UNL     1      -4.144  -1.260   0.000  0.00  0.00    +0.028 A 
BRANCH   3   2
ATOM      1  C   UNL     1      -5.393  -3.050   0.000  0.00  0.00    +0.252 C 
ATOM      2  O   UNL     1      -4.725  -2.565   0.000  0.00  0.00    -0.472 OA
ENDBRANCH   3   2
ENDBRANCH   9   8
ENDBRANCH  10   9
TORSDOF 4
