REMARK  Name = 
REMARK  3 active torsions:
REMARK  status: ('A' for Active; 'I' for Inactive)
REMARK    1  A    between atoms: C_2  and  C_5
REMARK    2  A    between atoms: N_18  and  C_19
REMARK    3  A    between atoms: C_19  and  C_20
REMARK                            x       y       z     vdW  Elec       q    Type
REMARK                         _______ _______ _______ _____ _____    ______ ____
ROOT
ATOM      5  C   UNL     1      -1.409   0.017   0.000  0.00  0.00    +0.157 A 
ATOM      6  N   UNL     1      -0.584   0.017   0.000  0.00  0.00    -0.210 NA
ATOM      7  C   UNL     1      -0.171  -0.698   0.000  0.00  0.00    +0.220 A 
ATOM      8  N   UNL     1      -0.584  -1.412   0.000  0.00  0.00    -0.212 NA
ATOM      9  C   UNL     1      -1.409  -1.412   0.000  0.00  0.00    +0.103 A 
ATOM     10  C   UNL     1      -1.821  -0.698   0.000  0.00  0.00    +0.044 A 
ATOM     11  N   UNL     1       0.654  -0.698   0.000  0.00  0.00    -0.274 N 
ATOM     12  C   UNL     1       1.139  -0.030   0.000  0.00  0.00    +0.125 C 
ATOM     13  C   UNL     1       1.923  -0.285   0.000  0.00  0.00    +0.155 C 
ATOM     14  O   UNL     1       2.638   0.127   0.000  0.00  0.00    -0.343 OA
ATOM     15  C   UNL     1       3.352  -0.285   0.000  0.00  0.00    +0.227 C 
ATOM     16  C   UNL     1       3.352  -1.110   0.000  0.00  0.00    +0.256 C 
ATOM     17  O   UNL     1       4.067  -1.523   0.000  0.00  0.00    -0.272 OA
ATOM     18  N   UNL     1       2.638  -1.523   0.000  0.00  0.00    -0.271 N 
ATOM     26  C   UNL     1       1.923  -1.110   0.000  0.00  0.00    +0.124 C 
ATOM     27  C   UNL     1       1.139  -1.365   0.000  0.00  0.00    +0.116 C 
ENDROOT
BRANCH   5   2
ATOM      1  F   UNL     1      -2.234   1.446   0.000  0.00  0.00    -0.164 F 
ATOM      2  C   UNL     1      -1.821   0.731   0.000  0.00  0.00    +0.435 C 
ATOM      3  F   UNL     1      -2.536   0.319   0.000  0.00  0.00    -0.164 F 
ATOM      4  F   UNL     1      -1.107   1.143   0.000  0.00  0.00    -0.164 F 
ENDBRANCH   5   2
BRANCH  18  19
ATOM     19  C   UNL     1       2.638  -2.348   0.000  0.00  0.00    +0.120 C 
BRANCH  19  20
ATOM     20  C   UNL     1       1.923  -2.760   0.000  0.00  0.00    -0.002 A 
ATOM     21  C   UNL     1       1.923  -3.585   0.000  0.00  0.00    -0.003 A 
ATOM     22  C   UNL     1       1.209  -3.998   0.000  0.00  0.00    -0.000 A 
ATOM     23  C   UNL     1       0.494  -3.585   0.000  0.00  0.00    -0.000 A 
ATOM     24  C   UNL     1       0.494  -2.760   0.000  0.00  0.00    -0.000 A 
ATOM     25  C   UNL     1       1.209  -2.348   0.000  0.00  0.00    -0.003 A 
ENDBRANCH  19  20
ENDBRANCH  18  19
TORSDOF 3
