REMARK  Name = 
REMARK  3 active torsions:
REMARK  status: ('A' for Active; 'I' for Inactive)
REMARK    1  A    between atoms: C_2  and  C_3
REMARK    2  A    between atoms: C_10  and  C_12
REMARK    3  A    between atoms: N_15  and  C_17
REMARK                            x       y       z     vdW  Elec       q    Type
REMARK                         _______ _______ _______ _____ _____    ______ ____
ROOT
ATOM      3  C   UNL     1       2.070   1.110   0.000  0.00  0.00    +0.070 A 
ATOM      4  C   UNL     1       1.356   0.698   0.000  0.00  0.00    +0.031 A 
ATOM      5  C   UNL     1       0.641   1.110   0.000  0.00  0.00    +0.101 A 
ATOM      6  C   UNL     1       0.641   1.935   0.000  0.00  0.00    +0.100 A 
ATOM      7  C   UNL     1       1.356   2.348   0.000  0.00  0.00    +0.021 A 
ATOM      8  C   UNL     1       2.070   1.935   0.000  0.00  0.00    +0.012 A 
ATOM      9  N   UNL     1      -0.143   2.190   0.000  0.00  0.00    -0.229 NA
ATOM     10  C   UNL     1      -0.628   1.523   0.000  0.00  0.00    +0.140 A 
ATOM     11  N   UNL     1      -0.143   0.856   0.000  0.00  0.00    -0.229 NA
ENDROOT
BRANCH  10  12
ATOM     12  C   UNL     1      -1.453   1.523   0.000  0.00  0.00    +0.076 C 
ATOM     13  C   UNL     1      -1.938   0.856   0.000  0.00  0.00    +0.026 C 
ATOM     14  C   UNL     1      -2.723   1.110   0.000  0.00  0.00    +0.073 C 
ATOM     15  N   UNL     1      -2.723   1.935   0.000  0.00  0.00    -0.274 NA
ATOM     16  C   UNL     1      -1.938   2.190   0.000  0.00  0.00    +0.080 C 
BRANCH  15  17
ATOM     17  C   UNL     1      -3.390   2.420   0.000  0.00  0.00    +0.058 C 
ATOM     18  C   UNL     1      -4.205   2.291   0.000  0.00  0.00    +0.016 C 
ATOM     19  C   UNL     1      -4.334   3.106   0.000  0.00  0.00    +0.003 C 
ATOM     20  C   UNL     1      -3.519   3.235   0.000  0.00  0.00    +0.016 C 
ENDBRANCH  15  17
ENDBRANCH  10  12
BRANCH   3   2
ATOM      1  N   UNL     1       3.499   0.285   0.000  0.00  0.00    -0.191 NA
ATOM      2  C   UNL     1       2.784   0.698   0.000  0.00  0.00    +0.100 C 
ENDBRANCH   3   2
TORSDOF 3
