REMARK  Name = 
REMARK  6 active torsions:
REMARK  status: ('A' for Active; 'I' for Inactive)
REMARK    1  A    between atoms: C_2  and  N_3
REMARK    2  A    between atoms: C_2  and  C_22
REMARK    3  A    between atoms: C_4  and  C_6
REMARK    4  A    between atoms: C_8  and  N_9
REMARK    5  A    between atoms: C_10  and  C_12
REMARK    6  A    between atoms: C_12  and  C_13
REMARK                            x       y       z     vdW  Elec       q    Type
REMARK                         _______ _______ _______ _____ _____    ______ ____
ROOT
ATOM      6  C   UNL     1      -1.429  -1.650   0.000  0.00  0.00    +0.033 C 
ATOM      7  C   UNL     1      -1.429  -2.475   0.000  0.00  0.00    -0.002 C 
ATOM      8  C   UNL     1      -2.143  -2.888   0.000  0.00  0.00    +0.150 C 
ATOM     17  C   UNL     1      -2.858  -2.475   0.000  0.00  0.00    +0.206 C 
ATOM     18  O   UNL     1      -3.572  -2.888   0.000  0.00  0.00    -0.218 OA
ATOM     19  C   UNL     1      -2.858  -1.650   0.000  0.00  0.00    +0.189 C 
ATOM     20  O   UNL     1      -3.572  -1.238   0.000  0.00  0.00    -0.220 OA
ATOM     21  C   UNL     1      -2.143  -1.238   0.000  0.00  0.00    +0.066 C 
ENDROOT
BRANCH   6   4
ATOM      3  N   UNL     1       0.000  -1.650   0.000  0.00  0.00    -0.194 NA
ATOM      4  C   UNL     1      -0.715  -1.238   0.000  0.00  0.00    +0.261 C 
ATOM      5  O   UNL     1      -0.715  -0.412   0.000  0.00  0.00    -0.269 OA
BRANCH   3   2
ATOM      1  C   UNL     1       0.715  -0.412   0.000  0.00  0.00    +0.033 C 
ATOM      2  C   UNL     1       0.715  -1.238   0.000  0.00  0.00    +0.175 C 
BRANCH   2  22
ATOM     22  C   UNL     1       1.429  -1.650   0.000  0.00  0.00    +0.281 C 
ATOM     23  N   UNL     1       2.143  -1.238   0.000  0.00  0.00    -0.086 NA
ATOM     24  O   UNL     1       1.429  -2.475   0.000  0.00  0.00    -0.270 OA
ENDBRANCH   2  22
ENDBRANCH   3   2
ENDBRANCH   6   4
BRANCH   8   9
ATOM      9  N   UNL     1      -2.143  -3.712   0.000  0.00  0.00    -0.200 NA
ATOM     10  C   UNL     1      -2.858  -4.125   0.000  0.00  0.00    +0.242 C 
ATOM     11  O   UNL     1      -3.572  -3.712   0.000  0.00  0.00    -0.273 OA
BRANCH  10  12
ATOM     12  C   UNL     1      -2.858  -4.950   0.000  0.00  0.00    +0.087 C 
BRANCH  12  13
ATOM     13  C   UNL     1      -3.572  -5.362   0.000  0.00  0.00    +0.009 C 
ATOM     14  C   UNL     1      -4.287  -5.775   0.000  0.00  0.00    +0.000 C 
ATOM     15  C   UNL     1      -3.160  -6.077   0.000  0.00  0.00    +0.000 C 
ATOM     16  C   UNL     1      -3.985  -4.648   0.000  0.00  0.00    +0.000 C 
ENDBRANCH  12  13
ENDBRANCH  10  12
ENDBRANCH   8   9
TORSDOF 6
