REMARK  Name = 
REMARK  5 active torsions:
REMARK  status: ('A' for Active; 'I' for Inactive)
REMARK    1  A    between atoms: O_2  and  C_3
REMARK    2  A    between atoms: C_3  and  C_4
REMARK    3  A    between atoms: C_11  and  C_12
REMARK    4  A    between atoms: C_12  and  O_14
REMARK    5  A    between atoms: N_18  and  C_19
REMARK                            x       y       z     vdW  Elec       q    Type
REMARK                         _______ _______ _______ _____ _____    ______ ____
ROOT
ATOM      4  C   UNL     1       2.784   0.698   0.000  0.00  0.00    +0.257 C 
ATOM      5  O   UNL     1       2.784  -0.127   0.000  0.00  0.00    -0.272 OA
ATOM      6  N   UNL     1       2.070   1.110   0.000  0.00  0.00    -0.263 N 
ATOM      7  C   UNL     1       1.356   0.698   0.000  0.00  0.00    +0.139 C 
ATOM      8  C   UNL     1       0.641   1.110   0.000  0.00  0.00    +0.072 A 
ATOM      9  C   UNL     1       0.641   1.935   0.000  0.00  0.00    +0.076 A 
ATOM     10  C   UNL     1       1.356   2.348   0.000  0.00  0.00    +0.078 C 
ATOM     11  C   UNL     1       2.070   1.935   0.000  0.00  0.00    +0.181 C 
ATOM     16  N   UNL     1      -0.143   2.190   0.000  0.00  0.00    -0.229 NA
ATOM     17  C   UNL     1      -0.628   1.523   0.000  0.00  0.00    +0.178 A 
ATOM     18  N   UNL     1      -0.143   0.856   0.000  0.00  0.00    -0.313 N 
ENDROOT
BRANCH  18  19
ATOM     19  C   UNL     1      -0.398   0.071   0.000  0.00  0.00    +0.087 C 
ATOM     20  C   UNL     1       0.154  -0.542   0.000  0.00  0.00    +0.025 C 
ATOM     21  C   UNL     1      -1.205  -0.101   0.000  0.00  0.00    +0.025 C 
ENDBRANCH  18  19
BRANCH  11  12
ATOM     12  C   UNL     1       2.784   2.348   0.000  0.00  0.00    +0.336 C 
ATOM     13  O   UNL     1       3.499   1.935   0.000  0.00  0.00    -0.248 OA
BRANCH  12  14
ATOM     14  O   UNL     1       2.784   3.173   0.000  0.00  0.00    -0.443 OA
ATOM     15  C   UNL     1       3.499   3.585   0.000  0.00  0.00    +0.256 C 
ENDBRANCH  12  14
ENDBRANCH  11  12
BRANCH   4   3
ATOM      3  C   UNL     1       3.499   1.110   0.000  0.00  0.00    +0.227 C 
BRANCH   3   2
ATOM      1  C   UNL     1       4.928   1.110   0.000  0.00  0.00    +0.175 C 
ATOM      2  O   UNL     1       4.213   0.698   0.000  0.00  0.00    -0.342 OA
ENDBRANCH   3   2
ENDBRANCH   4   3
TORSDOF 5
