REMARK  Name = 
REMARK  11 active torsions:
REMARK  status: ('A' for Active; 'I' for Inactive)
REMARK    1  A    between atoms: N_2  and  C_4
REMARK    2  A    between atoms: C_4  and  C_5
REMARK    3  A    between atoms: C_5  and  N_6
REMARK    4  A    between atoms: N_6  and  C_8
REMARK    5  A    between atoms: C_11  and  C_12
REMARK    6  A    between atoms: C_15  and  C_16
REMARK    7  A    between atoms: C_16  and  N_17
REMARK    8  A    between atoms: N_17  and  C_18
REMARK    9  A    between atoms: N_17  and  C_26
REMARK   10  A    between atoms: C_18  and  C_19
REMARK   11  A    between atoms: C_26  and  C_27
REMARK                            x       y       z     vdW  Elec       q    Type
REMARK                         _______ _______ _______ _____ _____    ______ ____
ROOT
ATOM     17  N   UNL     1       3.599  -4.634   0.000  0.00  0.00    -0.263 NA
ENDROOT
BRANCH  17  16
ATOM     16  C   UNL     1       2.815  -4.889   0.000  0.00  0.00    +0.104 C 
BRANCH  16  15
ATOM      8  C   UNL     1       1.889  -6.032   0.000  0.00  0.00    +0.120 C 
ATOM      9  C   UNL     1       1.976  -6.852   0.000  0.00  0.00    +0.198 C 
ATOM     10  O   UNL     1       1.363  -7.404   0.000  0.00  0.00    -0.219 OA
ATOM     11  C   UNL     1       2.783  -7.024   0.000  0.00  0.00    +0.180 C 
ATOM     14  O   UNL     1       3.195  -6.309   0.000  0.00  0.00    -0.350 OA
ATOM     15  C   UNL     1       2.643  -5.696   0.000  0.00  0.00    +0.148 C 
BRANCH   8   6
ATOM      6  N   UNL     1       1.175  -5.619   0.000  0.00  0.00    -0.267 NA
ATOM      7  C   UNL     1       1.175  -4.794   0.000  0.00  0.00    +0.090 C 
BRANCH   6   5
ATOM      5  C   UNL     1       0.461  -6.032   0.000  0.00  0.00    +0.090 C 
BRANCH   5   4
ATOM      4  C   UNL     1      -0.254  -5.619   0.000  0.00  0.00    +0.090 C 
BRANCH   4   2
ATOM      1  C   UNL     1      -1.683  -5.619   0.000  0.00  0.00    +0.090 C 
ATOM      2  N   UNL     1      -0.968  -6.032   0.000  0.00  0.00    -0.269 NA
ATOM      3  C   UNL     1      -0.968  -6.856   0.000  0.00  0.00    +0.090 C 
ENDBRANCH   4   2
ENDBRANCH   5   4
ENDBRANCH   6   5
ENDBRANCH   8   6
BRANCH  11  12
ATOM     12  C   UNL     1       3.118  -7.777   0.000  0.00  0.00    +0.214 C 
ATOM     13  O   UNL     1       2.633  -8.445   0.000  0.00  0.00    -0.218 OA
ENDBRANCH  11  12
ENDBRANCH  16  15
ENDBRANCH  17  16
BRANCH  17  18
ATOM     18  C   UNL     1       3.771  -3.827   0.000  0.00  0.00    +0.099 C 
BRANCH  18  19
ATOM     19  C   UNL     1       3.158  -3.275   0.000  0.00  0.00    -0.006 A 
ATOM     20  C   UNL     1       2.373  -3.530   0.000  0.00  0.00    -0.001 A 
ATOM     21  C   UNL     1       1.760  -2.978   0.000  0.00  0.00    +0.029 A 
ATOM     22  C   UNL     1       1.931  -2.171   0.000  0.00  0.00    +0.140 A 
ATOM     23  F   UNL     1       1.318  -1.619   0.000  0.00  0.00    -0.204 F 
ATOM     24  C   UNL     1       2.716  -1.916   0.000  0.00  0.00    +0.029 A 
ATOM     25  C   UNL     1       3.329  -2.468   0.000  0.00  0.00    -0.001 A 
ENDBRANCH  18  19
ENDBRANCH  17  18
BRANCH  17  26
ATOM     26  C   UNL     1       4.212  -5.186   0.000  0.00  0.00    +0.099 C 
BRANCH  26  27
ATOM     27  C   UNL     1       4.997  -4.931   0.000  0.00  0.00    -0.006 A 
ATOM     28  C   UNL     1       5.168  -4.124   0.000  0.00  0.00    -0.001 A 
ATOM     29  C   UNL     1       5.953  -3.869   0.000  0.00  0.00    +0.029 A 
ATOM     30  C   UNL     1       6.566  -4.421   0.000  0.00  0.00    +0.140 A 
ATOM     31  F   UNL     1       7.351  -4.166   0.000  0.00  0.00    -0.204 F 
ATOM     32  C   UNL     1       6.395  -5.228   0.000  0.00  0.00    +0.029 A 
ATOM     33  C   UNL     1       5.610  -5.483   0.000  0.00  0.00    -0.001 A 
ENDBRANCH  26  27
ENDBRANCH  17  26
TORSDOF 11
