REMARK  Name = 
REMARK  5 active torsions:
REMARK  status: ('A' for Active; 'I' for Inactive)
REMARK    1  A    between atoms: C_2  and  N_4
REMARK    2  A    between atoms: C_5  and  C_6
REMARK    3  A    between atoms: C_8  and  C_13
REMARK    4  A    between atoms: C_16  and  N_17
REMARK    5  A    between atoms: C_18  and  C_20
REMARK                            x       y       z     vdW  Elec       q    Type
REMARK                         _______ _______ _______ _____ _____    ______ ____
ROOT
ATOM     13  C   UNL     1       2.143   8.416   0.000  0.00  0.00    +0.006 A 
ATOM     14  C   UNL     1       2.858   8.004   0.000  0.00  0.00    -0.001 A 
ATOM     15  C   UNL     1       2.858   7.179   0.000  0.00  0.00    +0.016 A 
ATOM     16  C   UNL     1       2.143   6.766   0.000  0.00  0.00    +0.074 A 
ATOM     26  C   UNL     1       1.429   7.179   0.000  0.00  0.00    +0.016 A 
ATOM     27  C   UNL     1       1.429   8.004   0.000  0.00  0.00    -0.001 A 
ENDROOT
BRANCH  13   8
ATOM      4  N   UNL     1       2.858  10.479   0.000  0.00  0.00    -0.275 N 
ATOM      5  C   UNL     1       2.858   9.654   0.000  0.00  0.00    +0.139 C 
ATOM      8  C   UNL     1       2.143   9.241   0.000  0.00  0.00    +0.159 C 
ATOM      9  O   UNL     1       1.429   9.654   0.000  0.00  0.00    -0.341 OA
ATOM     10  C   UNL     1       1.429  10.479   0.000  0.00  0.00    +0.227 C 
ATOM     11  C   UNL     1       2.143  10.891   0.000  0.00  0.00    +0.256 C 
ATOM     12  O   UNL     1       2.143  11.716   0.000  0.00  0.00    -0.272 OA
BRANCH   4   2
ATOM      1  C   UNL     1       3.572  11.716   0.000  0.00  0.00    +0.022 C 
ATOM      2  C   UNL     1       3.572  10.891   0.000  0.00  0.00    +0.076 C 
ATOM      3  C   UNL     1       4.287  10.479   0.000  0.00  0.00    +0.022 C 
ENDBRANCH   4   2
BRANCH   5   6
ATOM      6  C   UNL     1       3.572   9.241   0.000  0.00  0.00    +0.205 C 
ATOM      7  O   UNL     1       3.572   8.416   0.000  0.00  0.00    -0.218 OA
ENDBRANCH   5   6
ENDBRANCH  13   8
BRANCH  16  17
ATOM     17  N   UNL     1       2.143   5.941   0.000  0.00  0.00    -0.174 NA
ATOM     18  C   UNL     1       1.429   5.529   0.000  0.00  0.00    +0.290 C 
ATOM     19  O   UNL     1       0.715   5.941   0.000  0.00  0.00    -0.266 OA
BRANCH  18  20
ATOM     20  C   UNL     1       1.429   4.704   0.000  0.00  0.00    +0.178 A 
ATOM     21  N   UNL     1       2.096   4.219   0.000  0.00  0.00    -0.073 NA
ATOM     22  O   UNL     1       1.841   3.434   0.000  0.00  0.00    -0.358 OA
ATOM     23  C   UNL     1       1.016   3.434   0.000  0.00  0.00    +0.155 A 
ATOM     24  C   UNL     1       0.531   2.767   0.000  0.00  0.00    +0.075 C 
ATOM     25  C   UNL     1       0.761   4.219   0.000  0.00  0.00    +0.063 A 
ENDBRANCH  18  20
ENDBRANCH  16  17
TORSDOF 5
