REMARK  Name = 
REMARK  5 active torsions:
REMARK  status: ('A' for Active; 'I' for Inactive)
REMARK    1  A    between atoms: C_2  and  N_4
REMARK    2  A    between atoms: C_5  and  C_6
REMARK    3  A    between atoms: C_8  and  C_13
REMARK    4  A    between atoms: C_16  and  N_17
REMARK    5  A    between atoms: C_18  and  C_20
REMARK                            x       y       z     vdW  Elec       q    Type
REMARK                         _______ _______ _______ _____ _____    ______ ____
ROOT
ATOM      4  N   UNL     1       0.000  10.028   0.000  0.00  0.00    -0.275 N 
ATOM      5  C   UNL     1       0.000   9.203   0.000  0.00  0.00    +0.139 C 
ATOM      8  C   UNL     1      -0.715   8.790   0.000  0.00  0.00    +0.159 C 
ATOM      9  O   UNL     1      -1.429   9.203   0.000  0.00  0.00    -0.341 OA
ATOM     10  C   UNL     1      -1.429  10.028   0.000  0.00  0.00    +0.227 C 
ATOM     11  C   UNL     1      -0.715  10.440   0.000  0.00  0.00    +0.256 C 
ATOM     12  O   UNL     1      -0.715  11.265   0.000  0.00  0.00    -0.272 OA
ENDROOT
BRANCH   8  13
ATOM     13  C   UNL     1      -0.715   7.965   0.000  0.00  0.00    +0.006 A 
ATOM     14  C   UNL     1       0.000   7.553   0.000  0.00  0.00    -0.001 A 
ATOM     15  C   UNL     1       0.000   6.728   0.000  0.00  0.00    +0.016 A 
ATOM     16  C   UNL     1      -0.715   6.315   0.000  0.00  0.00    +0.073 A 
ATOM     23  C   UNL     1      -1.429   6.728   0.000  0.00  0.00    +0.016 A 
ATOM     24  C   UNL     1      -1.429   7.553   0.000  0.00  0.00    -0.001 A 
BRANCH  16  17
ATOM     17  N   UNL     1      -0.715   5.490   0.000  0.00  0.00    -0.179 NA
ATOM     18  C   UNL     1       0.000   5.078   0.000  0.00  0.00    +0.245 C 
ATOM     19  O   UNL     1       0.715   5.490   0.000  0.00  0.00    -0.273 OA
BRANCH  18  20
ATOM     20  C   UNL     1       0.000   4.253   0.000  0.00  0.00    +0.079 C 
ATOM     21  C   UNL     1       0.412   3.538   0.000  0.00  0.00    +0.010 C 
ATOM     22  C   UNL     1      -0.412   3.538   0.000  0.00  0.00    +0.010 C 
ENDBRANCH  18  20
ENDBRANCH  16  17
ENDBRANCH   8  13
BRANCH   4   2
ATOM      1  C   UNL     1       0.715  11.265   0.000  0.00  0.00    +0.022 C 
ATOM      2  C   UNL     1       0.715  10.440   0.000  0.00  0.00    +0.076 C 
ATOM      3  C   UNL     1       1.429  10.028   0.000  0.00  0.00    +0.022 C 
ENDBRANCH   4   2
BRANCH   5   6
ATOM      6  C   UNL     1       0.715   8.790   0.000  0.00  0.00    +0.205 C 
ATOM      7  O   UNL     1       0.715   7.965   0.000  0.00  0.00    -0.218 OA
ENDBRANCH   5   6
TORSDOF 5
