REMARK  Name = 
REMARK  8 active torsions:
REMARK  status: ('A' for Active; 'I' for Inactive)
REMARK    1  A    between atoms: C_2  and  C_4
REMARK    2  A    between atoms: N_7  and  C_10
REMARK    3  A    between atoms: C_12  and  C_16
REMARK    4  A    between atoms: C_19  and  C_21
REMARK    5  A    between atoms: N_25  and  C_26
REMARK    6  A    between atoms: C_26  and  C_27
REMARK    7  A    between atoms: C_31  and  O_32
REMARK    8  A    between atoms: O_32  and  C_33
REMARK                            x       y       z     vdW  Elec       q    Type
REMARK                         _______ _______ _______ _____ _____    ______ ____
ROOT
ATOM     16  C   UNL     1       1.048  -2.790   0.000  0.00  0.00    +0.203 A 
ATOM     17  N   UNL     1       1.716  -3.275   0.000  0.00  0.00    -0.056 NA
ATOM     18  O   UNL     1       1.461  -4.060   0.000  0.00  0.00    -0.336 OA
ATOM     19  C   UNL     1       0.636  -4.060   0.000  0.00  0.00    +0.251 A 
ATOM     20  N   UNL     1       0.381  -3.275   0.000  0.00  0.00    -0.190 NA
ENDROOT
BRANCH  16  12
ATOM     10  C   UNL     1       1.763  -0.728   0.000  0.00  0.00    +0.132 A 
ATOM     11  C   UNL     1       1.763  -1.553   0.000  0.00  0.00    +0.037 A 
ATOM     12  C   UNL     1       1.048  -1.965   0.000  0.00  0.00    +0.043 A 
ATOM     13  C   UNL     1       0.334  -1.553   0.000  0.00  0.00    +0.024 A 
ATOM     14  C   UNL     1       0.334  -0.728   0.000  0.00  0.00    +0.100 A 
ATOM     15  N   UNL     1       1.048  -0.315   0.000  0.00  0.00    -0.229 NA
BRANCH  10   7
ATOM      4  C   UNL     1       3.906   0.510   0.000  0.00  0.00    +0.083 C 
ATOM      5  C   UNL     1       3.906  -0.315   0.000  0.00  0.00    +0.031 C 
ATOM      6  C   UNL     1       3.192  -0.728   0.000  0.00  0.00    +0.093 C 
ATOM      7  N   UNL     1       2.477  -0.315   0.000  0.00  0.00    -0.293 N 
ATOM      8  C   UNL     1       2.477   0.510   0.000  0.00  0.00    +0.093 C 
ATOM      9  C   UNL     1       3.192   0.922   0.000  0.00  0.00    +0.031 C 
BRANCH   4   2
ATOM      1  N   UNL     1       4.621   1.747   0.000  0.00  0.00    -0.088 NA
ATOM      2  C   UNL     1       4.621   0.922   0.000  0.00  0.00    +0.260 C 
ATOM      3  O   UNL     1       5.335   0.510   0.000  0.00  0.00    -0.272 OA
ENDBRANCH   4   2
ENDBRANCH  10   7
ENDBRANCH  16  12
BRANCH  19  21
ATOM     21  C   UNL     1       0.151  -4.727   0.000  0.00  0.00    +0.138 C 
ATOM     22  C   UNL     1       0.406  -5.512   0.000  0.00  0.00    +0.027 C 
ATOM     23  C   UNL     1      -0.262  -5.997   0.000  0.00  0.00    +0.019 C 
ATOM     24  C   UNL     1      -0.929  -5.512   0.000  0.00  0.00    +0.073 C 
ATOM     25  N   UNL     1      -0.674  -4.727   0.000  0.00  0.00    -0.263 NA
BRANCH  25  26
ATOM     26  C   UNL     1      -1.159  -4.060   0.000  0.00  0.00    +0.100 C 
BRANCH  26  27
ATOM     27  C   UNL     1      -1.979  -4.146   0.000  0.00  0.00    -0.003 A 
ATOM     28  C   UNL     1      -2.315  -4.900   0.000  0.00  0.00    -0.003 A 
ATOM     29  C   UNL     1      -3.135  -4.986   0.000  0.00  0.00    +0.003 A 
ATOM     30  C   UNL     1      -3.620  -4.319   0.000  0.00  0.00    +0.037 A 
ATOM     31  C   UNL     1      -3.285  -3.565   0.000  0.00  0.00    +0.147 A 
ATOM     37  C   UNL     1      -2.464  -3.479   0.000  0.00  0.00    +0.034 A 
BRANCH  31  32
ATOM     32  O   UNL     1      -3.770  -2.897   0.000  0.00  0.00    -0.404 OA
BRANCH  32  33
ATOM     33  C   UNL     1      -4.590  -2.984   0.000  0.00  0.00    +0.575 C 
ATOM     34  F   UNL     1      -5.411  -3.070   0.000  0.00  0.00    -0.133 F 
ATOM     35  F   UNL     1      -4.676  -2.163   0.000  0.00  0.00    -0.133 F 
ATOM     36  F   UNL     1      -4.504  -3.804   0.000  0.00  0.00    -0.133 F 
ENDBRANCH  32  33
ENDBRANCH  31  32
ENDBRANCH  26  27
ENDBRANCH  25  26
ENDBRANCH  19  21
TORSDOF 8
