REMARK  Name = 
REMARK  6 active torsions:
REMARK  status: ('A' for Active; 'I' for Inactive)
REMARK    1  A    between atoms: O_2  and  C_3
REMARK    2  A    between atoms: C_6  and  C_9
REMARK    3  A    between atoms: C_11  and  C_12
REMARK    4  A    between atoms: C_12  and  C_13
REMARK    5  A    between atoms: C_18  and  C_19
REMARK    6  A    between atoms: C_19  and  N_20
REMARK                            x       y       z     vdW  Elec       q    Type
REMARK                         _______ _______ _______ _____ _____    ______ ____
ROOT
ATOM      9  C   UNL     1      -0.608  -1.299   0.000  0.00  0.00    +0.177 A 
ATOM     10  C   UNL     1       0.060  -1.784   0.000  0.00  0.00    +0.058 A 
ATOM     11  C   UNL     1      -0.195  -2.569   0.000  0.00  0.00    +0.103 A 
ATOM     24  N   UNL     1      -1.020  -2.569   0.000  0.00  0.00    -0.081 NA
ATOM     25  O   UNL     1      -1.275  -1.784   0.000  0.00  0.00    -0.354 OA
ENDROOT
BRANCH   9   6
ATOM      3  C   UNL     1      -0.608   1.176   0.000  0.00  0.00    +0.139 A 
ATOM      4  C   UNL     1       0.107   0.763   0.000  0.00  0.00    +0.037 A 
ATOM      5  C   UNL     1       0.107  -0.062   0.000  0.00  0.00    +0.006 A 
ATOM      6  C   UNL     1      -0.608  -0.474   0.000  0.00  0.00    +0.037 A 
ATOM      7  C   UNL     1      -1.322  -0.062   0.000  0.00  0.00    +0.006 A 
ATOM      8  C   UNL     1      -1.322   0.763   0.000  0.00  0.00    +0.037 A 
BRANCH   3   2
ATOM      1  C   UNL     1      -1.322   2.413   0.000  0.00  0.00    +0.252 C 
ATOM      2  O   UNL     1      -0.608   2.001   0.000  0.00  0.00    -0.471 OA
ENDBRANCH   3   2
ENDBRANCH   9   6
BRANCH  11  12
ATOM     12  C   UNL     1       0.290  -3.236   0.000  0.00  0.00    +0.079 C 
BRANCH  12  13
ATOM     13  C   UNL     1       1.110  -3.150   0.000  0.00  0.00    +0.121 C 
ATOM     14  C   UNL     1       1.446  -2.396   0.000  0.00  0.00    +0.033 C 
ATOM     15  C   UNL     1       2.266  -2.310   0.000  0.00  0.00    +0.038 C 
ATOM     16  C   UNL     1       2.751  -2.977   0.000  0.00  0.00    +0.180 C 
ATOM     17  O   UNL     1       3.572  -2.891   0.000  0.00  0.00    -0.220 OA
ATOM     18  C   UNL     1       2.416  -3.731   0.000  0.00  0.00    +0.161 C 
ATOM     23  O   UNL     1       1.595  -3.817   0.000  0.00  0.00    -0.354 OA
BRANCH  18  19
ATOM     19  C   UNL     1       2.901  -4.399   0.000  0.00  0.00    +0.105 C 
BRANCH  19  20
ATOM     20  N   UNL     1       2.565  -5.152   0.000  0.00  0.00    -0.268 NA
ATOM     21  C   UNL     1       3.050  -5.820   0.000  0.00  0.00    +0.090 C 
ATOM     22  C   UNL     1       1.744  -5.238   0.000  0.00  0.00    +0.090 C 
ENDBRANCH  19  20
ENDBRANCH  18  19
ENDBRANCH  12  13
ENDBRANCH  11  12
TORSDOF 6
