REMARK  Name = 
REMARK  5 active torsions:
REMARK  status: ('A' for Active; 'I' for Inactive)
REMARK    1  A    between atoms: O_2  and  C_3
REMARK    2  A    between atoms: C_3  and  C_4
REMARK    3  A    between atoms: C_4  and  N_5
REMARK    4  A    between atoms: N_9  and  S_15
REMARK    5  A    between atoms: S_15  and  C_18
REMARK                            x       y       z     vdW  Elec       q    Type
REMARK                         _______ _______ _______ _____ _____    ______ ____
ROOT
ATOM      5  N   UNL     1       0.654  -0.698   0.000  0.00  0.00    -0.260 N 
ATOM      6  C   UNL     1       1.139  -0.030   0.000  0.00  0.00    +0.116 C 
ATOM      7  C   UNL     1       1.923  -0.285   0.000  0.00  0.00    +0.114 C 
ATOM      8  C   UNL     1       2.638   0.127   0.000  0.00  0.00    +0.117 C 
ATOM      9  N   UNL     1       3.352  -0.285   0.000  0.00  0.00    -0.152 NA
ATOM     10  C   UNL     1       3.352  -1.110   0.000  0.00  0.00    +0.117 C 
ATOM     11  C   UNL     1       2.638  -1.523   0.000  0.00  0.00    +0.114 C 
ATOM     12  N   UNL     1       1.923  -1.110   0.000  0.00  0.00    -0.261 N 
ATOM     13  C   UNL     1       1.139  -1.365   0.000  0.00  0.00    +0.307 C 
ATOM     14  O   UNL     1       0.884  -2.150   0.000  0.00  0.00    -0.252 OA
ENDROOT
BRANCH   9  15
ATOM     15  S   UNL     1       4.067   0.127   0.000  0.00  0.00    +0.063 S 
ATOM     16  O   UNL     1       4.479  -0.587   0.000  0.00  0.00    -0.153 OA
ATOM     17  O   UNL     1       3.654   0.842   0.000  0.00  0.00    -0.153 OA
BRANCH  15  18
ATOM     18  C   UNL     1       4.781   0.540   0.000  0.00  0.00    +0.122 A 
ATOM     19  C   UNL     1       4.781   1.365   0.000  0.00  0.00    +0.020 A 
ATOM     20  C   UNL     1       5.496   1.777   0.000  0.00  0.00    +0.001 A 
ATOM     21  C   UNL     1       6.210   1.365   0.000  0.00  0.00    +0.000 A 
ATOM     22  C   UNL     1       6.210   0.540   0.000  0.00  0.00    +0.001 A 
ATOM     23  C   UNL     1       5.496   0.127   0.000  0.00  0.00    +0.020 A 
ENDBRANCH  15  18
ENDBRANCH   9  15
BRANCH   5   4
ATOM      4  C   UNL     1      -0.171  -0.698   0.000  0.00  0.00    +0.127 C 
BRANCH   4   3
ATOM      3  C   UNL     1      -0.584  -1.412   0.000  0.00  0.00    +0.164 C 
BRANCH   3   2
ATOM      1  C   UNL     1      -1.821  -2.127   0.000  0.00  0.00    +0.174 C 
ATOM      2  O   UNL     1      -1.409  -1.412   0.000  0.00  0.00    -0.349 OA
ENDBRANCH   3   2
ENDBRANCH   4   3
ENDBRANCH   5   4
TORSDOF 5
