REMARK  Name = 
REMARK  4 active torsions:
REMARK  status: ('A' for Active; 'I' for Inactive)
REMARK    1  A    between atoms: C_5  and  N_8
REMARK    2  A    between atoms: C_15  and  N_16
REMARK    3  A    between atoms: N_16  and  S_17
REMARK    4  A    between atoms: S_17  and  C_20
REMARK                            x       y       z     vdW  Elec       q    Type
REMARK                         _______ _______ _______ _____ _____    ______ ____
ROOT
ATOM      8  N   UNL     1       0.813  -2.091   0.000  0.00  0.00    -0.273 NA
ATOM      9  C   UNL     1       1.629  -1.912   0.000  0.00  0.00    +0.074 C 
ATOM     10  C   UNL     1       1.582  -0.925   0.000  0.00  0.00    +0.039 C 
ATOM     11  C   UNL     1       1.713  -0.121   0.000  0.00  0.00    +0.011 C 
ATOM     12  C   UNL     1       1.163  -0.557   0.000  0.00  0.00    +0.056 C 
ATOM     13  C   UNL     1       1.225  -1.510   0.000  0.00  0.00    +0.078 C 
ATOM     14  C   UNL     1       0.244  -0.558   0.000  0.00  0.00    +0.057 A 
ATOM     15  C   UNL     1      -0.397  -0.039   0.000  0.00  0.00    +0.103 A 
ATOM     27  C   UNL     1      -1.167  -0.335   0.000  0.00  0.00    +0.024 A 
ATOM     28  C   UNL     1      -1.296  -1.150   0.000  0.00  0.00    +0.062 A 
ATOM     29  C   UNL     1      -0.655  -1.669   0.000  0.00  0.00    +0.261 A 
ATOM     30  O   UNL     1      -1.238  -2.252   0.000  0.00  0.00    -0.267 OA
ATOM     31  N   UNL     1       0.115  -1.373   0.000  0.00  0.00    -0.298 N 
ATOM     32  C   UNL     1       0.622  -0.936   0.000  0.00  0.00    +0.110 C 
ENDROOT
BRANCH   8   5
ATOM      1  C   UNL     1      -1.938  -3.914   0.000  0.00  0.00    +0.090 C 
ATOM      2  N   UNL     1      -1.251  -3.458   0.000  0.00  0.00    -0.271 NA
ATOM      3  C   UNL     1      -1.301  -2.635   0.000  0.00  0.00    +0.074 C 
ATOM      4  C   UNL     1      -0.614  -2.179   0.000  0.00  0.00    +0.033 C 
ATOM      5  C   UNL     1       0.125  -2.547   0.000  0.00  0.00    +0.060 C 
ATOM      6  C   UNL     1       0.176  -3.370   0.000  0.00  0.00    +0.033 C 
ATOM      7  C   UNL     1      -0.512  -3.826   0.000  0.00  0.00    +0.074 C 
ENDBRANCH   8   5
BRANCH  15  16
ATOM     16  N   UNL     1      -0.268   0.776   0.000  0.00  0.00    -0.095 NA
BRANCH  16  17
ATOM     17  S   UNL     1      -0.909   1.295   0.000  0.00  0.00    +0.093 S 
ATOM     18  O   UNL     1      -0.390   1.936   0.000  0.00  0.00    -0.148 OA
ATOM     19  O   UNL     1      -1.428   0.654   0.000  0.00  0.00    -0.148 OA
BRANCH  17  20
ATOM     20  C   UNL     1      -1.550   1.814   0.000  0.00  0.00    +0.127 A 
ATOM     21  C   UNL     1      -2.321   1.518   0.000  0.00  0.00    +0.020 A 
ATOM     22  C   UNL     1      -2.962   2.037   0.000  0.00  0.00    -0.003 A 
ATOM     23  C   UNL     1      -2.833   2.852   0.000  0.00  0.00    -0.022 A 
ATOM     24  C   UNL     1      -3.474   3.371   0.000  0.00  0.00    +0.031 C 
ATOM     25  C   UNL     1      -2.063   3.148   0.000  0.00  0.00    -0.003 A 
ATOM     26  C   UNL     1      -1.421   2.629   0.000  0.00  0.00    +0.020 A 
ENDBRANCH  17  20
ENDBRANCH  16  17
ENDBRANCH  15  16
TORSDOF 4
