REMARK  Name = 
REMARK  9 active torsions:
REMARK  status: ('A' for Active; 'I' for Inactive)
REMARK    1  A    between atoms: N_2  and  C_3
REMARK    2  A    between atoms: N_2  and  C_11
REMARK    3  A    between atoms: C_3  and  C_4
REMARK    4  A    between atoms: C_4  and  C_5
REMARK    5  A    between atoms: C_12  and  C_13
REMARK    6  A    between atoms: C_13  and  N_14
REMARK    7  A    between atoms: N_14  and  S_15
REMARK    8  A    between atoms: S_15  and  C_18
REMARK    9  A    between atoms: C_26  and  C_27
REMARK                            x       y       z     vdW  Elec       q    Type
REMARK                         _______ _______ _______ _____ _____    ______ ____
ROOT
ATOM     11  C   UNL     1       1.429  -3.300   0.000  0.00  0.00    +0.120 C 
ATOM     12  C   UNL     1       2.096  -3.785   0.000  0.00  0.00    +0.152 C 
ATOM     25  O   UNL     1       1.841  -4.569   0.000  0.00  0.00    -0.350 OA
ATOM     26  C   UNL     1       1.016  -4.569   0.000  0.00  0.00    +0.180 C 
ATOM     29  C   UNL     1       0.761  -3.785   0.000  0.00  0.00    +0.198 C 
ATOM     30  O   UNL     1      -0.023  -3.530   0.000  0.00  0.00    -0.219 OA
ENDROOT
BRANCH  11   2
ATOM      1  C   UNL     1       2.143  -2.062   0.000  0.00  0.00    +0.090 C 
ATOM      2  N   UNL     1       1.429  -2.475   0.000  0.00  0.00    -0.268 NA
BRANCH   2   3
ATOM      3  C   UNL     1       0.715  -2.062   0.000  0.00  0.00    +0.077 C 
BRANCH   3   4
ATOM      4  C   UNL     1       0.715  -1.238   0.000  0.00  0.00    +0.044 C 
BRANCH   4   5
ATOM      5  C   UNL     1       0.000  -0.825   0.000  0.00  0.00    -0.021 A 
ATOM      6  C   UNL     1      -0.715  -1.238   0.000  0.00  0.00    -0.004 A 
ATOM      7  C   UNL     1      -1.429  -0.825   0.000  0.00  0.00    -0.000 A 
ATOM      8  C   UNL     1      -1.429   0.000   0.000  0.00  0.00    -0.000 A 
ATOM      9  C   UNL     1      -0.715   0.412   0.000  0.00  0.00    -0.000 A 
ATOM     10  C   UNL     1       0.000   0.000   0.000  0.00  0.00    -0.004 A 
ENDBRANCH   4   5
ENDBRANCH   3   4
ENDBRANCH   2   3
ENDBRANCH  11   2
BRANCH  26  27
ATOM     27  C   UNL     1       0.531  -5.237   0.000  0.00  0.00    +0.214 C 
ATOM     28  O   UNL     1      -0.289  -5.151   0.000  0.00  0.00    -0.218 OA
ENDBRANCH  26  27
BRANCH  12  13
ATOM     13  C   UNL     1       2.881  -3.530   0.000  0.00  0.00    +0.146 C 
BRANCH  13  14
ATOM     14  N   UNL     1       3.053  -2.723   0.000  0.00  0.00    -0.075 NA
BRANCH  14  15
ATOM     15  S   UNL     1       3.837  -2.468   0.000  0.00  0.00    +0.077 S 
ATOM     16  O   UNL     1       4.092  -3.253   0.000  0.00  0.00    -0.152 OA
ATOM     17  O   UNL     1       3.582  -1.683   0.000  0.00  0.00    -0.152 OA
BRANCH  15  18
ATOM     18  C   UNL     1       4.622  -2.213   0.000  0.00  0.00    +0.124 A 
ATOM     19  C   UNL     1       4.793  -1.406   0.000  0.00  0.00    +0.020 A 
ATOM     20  C   UNL     1       5.578  -1.151   0.000  0.00  0.00    -0.003 A 
ATOM     21  C   UNL     1       6.191  -1.703   0.000  0.00  0.00    -0.022 A 
ATOM     22  C   UNL     1       6.976  -1.448   0.000  0.00  0.00    +0.031 C 
ATOM     23  C   UNL     1       6.019  -2.510   0.000  0.00  0.00    -0.003 A 
ATOM     24  C   UNL     1       5.235  -2.765   0.000  0.00  0.00    +0.020 A 
ENDBRANCH  15  18
ENDBRANCH  14  15
ENDBRANCH  13  14
ENDBRANCH  12  13
TORSDOF 9
