REMARK  Name = 
REMARK  5 active torsions:
REMARK  status: ('A' for Active; 'I' for Inactive)
REMARK    1  A    between atoms: C_4  and  N_18
REMARK    2  A    between atoms: C_6  and  C_7
REMARK    3  A    between atoms: C_9  and  C_12
REMARK    4  A    between atoms: N_18  and  S_19
REMARK    5  A    between atoms: S_19  and  C_22
REMARK                            x       y       z     vdW  Elec       q    Type
REMARK                         _______ _______ _______ _____ _____    ______ ____
ROOT
ATOM      1  C   UNL     1       2.037  -1.299   0.000  0.00  0.00    +0.090 C 
ATOM      2  N   UNL     1       2.037  -2.124   0.000  0.00  0.00    -0.264 NA
ATOM      3  C   UNL     1       2.704  -2.609   0.000  0.00  0.00    +0.092 C 
ATOM      4  C   UNL     1       2.449  -3.394   0.000  0.00  0.00    +0.115 C 
ATOM      5  C   UNL     1       1.624  -3.394   0.000  0.00  0.00    +0.046 C 
ATOM      6  C   UNL     1       1.369  -2.609   0.000  0.00  0.00    +0.139 C 
ENDROOT
BRANCH   6   7
ATOM      7  C   UNL     1       0.585  -2.354   0.000  0.00  0.00    +0.251 A 
ATOM      8  N   UNL     1      -0.083  -2.839   0.000  0.00  0.00    -0.188 NA
ATOM      9  C   UNL     1      -0.750  -2.354   0.000  0.00  0.00    +0.223 A 
ATOM     10  N   UNL     1      -0.495  -1.569   0.000  0.00  0.00    -0.054 NA
ATOM     11  O   UNL     1       0.330  -1.569   0.000  0.00  0.00    -0.336 OA
BRANCH   9  12
ATOM     12  C   UNL     1      -1.535  -2.609   0.000  0.00  0.00    +0.139 A 
ATOM     13  C   UNL     1      -1.706  -3.416   0.000  0.00  0.00    +0.121 A 
ATOM     14  N   UNL     1      -2.491  -3.671   0.000  0.00  0.00    -0.239 NA
ATOM     15  C   UNL     1      -3.104  -3.119   0.000  0.00  0.00    +0.120 A 
ATOM     16  C   UNL     1      -2.933  -2.312   0.000  0.00  0.00    +0.120 A 
ATOM     17  N   UNL     1      -2.148  -2.057   0.000  0.00  0.00    -0.237 NA
ENDBRANCH   9  12
ENDBRANCH   6   7
BRANCH   4  18
ATOM     18  N   UNL     1       2.934  -4.061   0.000  0.00  0.00    -0.078 NA
BRANCH  18  19
ATOM     19  S   UNL     1       2.599  -4.815   0.000  0.00  0.00    +0.077 S 
ATOM     20  O   UNL     1       1.845  -4.479   0.000  0.00  0.00    -0.152 OA
ATOM     21  O   UNL     1       3.352  -5.150   0.000  0.00  0.00    -0.152 OA
BRANCH  19  22
ATOM     22  C   UNL     1       2.263  -5.568   0.000  0.00  0.00    +0.124 A 
ATOM     23  C   UNL     1       2.748  -6.236   0.000  0.00  0.00    +0.020 A 
ATOM     24  C   UNL     1       2.412  -6.990   0.000  0.00  0.00    -0.003 A 
ATOM     25  C   UNL     1       1.592  -7.076   0.000  0.00  0.00    -0.022 A 
ATOM     26  C   UNL     1       1.256  -7.830   0.000  0.00  0.00    +0.031 C 
ATOM     27  C   UNL     1       1.107  -6.408   0.000  0.00  0.00    -0.003 A 
ATOM     28  C   UNL     1       1.442  -5.655   0.000  0.00  0.00    +0.020 A 
ENDBRANCH  19  22
ENDBRANCH  18  19
ENDBRANCH   4  18
TORSDOF 5
