REMARK  Name = 
REMARK  6 active torsions:
REMARK  status: ('A' for Active; 'I' for Inactive)
REMARK    1  A    between atoms: C_3  and  C_4
REMARK    2  A    between atoms: C_4  and  N_5
REMARK    3  A    between atoms: C_6  and  C_8
REMARK    4  A    between atoms: C_15  and  N_16
REMARK    5  A    between atoms: N_16  and  C_17
REMARK    6  A    between atoms: C_17  and  C_18
REMARK                            x       y       z     vdW  Elec       q    Type
REMARK                         _______ _______ _______ _____ _____    ______ ____
ROOT
ATOM      1  O   UNL     1       2.318  -1.136   0.000  0.00  0.00    -0.219 OA
ATOM      2  C   UNL     1       2.318  -1.961   0.000  0.00  0.00    +0.199 C 
ATOM      3  C   UNL     1       2.986  -2.446   0.000  0.00  0.00    +0.169 C 
ATOM     13  O   UNL     1       2.731  -3.231   0.000  0.00  0.00    -0.350 OA
ATOM     14  C   UNL     1       1.906  -3.231   0.000  0.00  0.00    +0.162 C 
ATOM     15  C   UNL     1       1.651  -2.446   0.000  0.00  0.00    +0.135 C 
ENDROOT
BRANCH   3   4
ATOM      4  C   UNL     1       3.770  -2.191   0.000  0.00  0.00    +0.147 C 
BRANCH   4   5
ATOM      5  N   UNL     1       4.383  -2.743   0.000  0.00  0.00    -0.203 NA
ATOM      6  C   UNL     1       5.168  -2.488   0.000  0.00  0.00    +0.241 C 
ATOM      7  O   UNL     1       5.340  -1.681   0.000  0.00  0.00    -0.273 OA
BRANCH   6   8
ATOM      8  C   UNL     1       5.781  -3.041   0.000  0.00  0.00    +0.078 C 
ATOM      9  C   UNL     1       6.588  -2.869   0.000  0.00  0.00    +0.009 C 
ATOM     10  C   UNL     1       7.001  -3.583   0.000  0.00  0.00    +0.001 C 
ATOM     11  C   UNL     1       6.449  -4.197   0.000  0.00  0.00    +0.001 C 
ATOM     12  C   UNL     1       5.695  -3.861   0.000  0.00  0.00    +0.009 C 
ENDBRANCH   6   8
ENDBRANCH   4   5
ENDBRANCH   3   4
BRANCH  15  16
ATOM     16  N   UNL     1       0.866  -2.191   0.000  0.00  0.00    -0.209 NA
BRANCH  16  17
ATOM     17  C   UNL     1       0.253  -2.743   0.000  0.00  0.00    +0.122 C 
BRANCH  17  18
ATOM     18  C   UNL     1      -0.531  -2.488   0.000  0.00  0.00    +0.025 A 
ATOM     19  C   UNL     1      -1.199  -2.973   0.000  0.00  0.00    +0.004 A 
ATOM     20  C   UNL     1      -1.866  -2.488   0.000  0.00  0.00    +0.007 A 
ATOM     21  C   UNL     1      -1.611  -1.704   0.000  0.00  0.00    +0.035 A 
ATOM     22  S   UNL     1      -0.786  -1.704   0.000  0.00  0.00    -0.089 S 
ENDBRANCH  17  18
ENDBRANCH  16  17
ENDBRANCH  15  16
TORSDOF 6
