REMARK  Name = 
REMARK  7 active torsions:
REMARK  status: ('A' for Active; 'I' for Inactive)
REMARK    1  A    between atoms: C_2  and  C_4
REMARK    2  A    between atoms: C_6  and  C_7
REMARK    3  A    between atoms: C_7  and  C_8
REMARK    4  A    between atoms: N_13  and  C_14
REMARK    5  A    between atoms: C_14  and  C_15
REMARK    6  A    between atoms: C_22  and  C_23
REMARK    7  A    between atoms: C_23  and  C_24
REMARK                            x       y       z     vdW  Elec       q    Type
REMARK                         _______ _______ _______ _____ _____    ______ ____
ROOT
ATOM      4  C   UNL     1       0.000  -2.475   0.000  0.00  0.00    +0.005 C 
ATOM      5  C   UNL     1       0.715  -2.888   0.000  0.00  0.00    +0.005 C 
ATOM      6  C   UNL     1       0.715  -3.712   0.000  0.00  0.00    +0.027 C 
ATOM     19  C   UNL     1       0.000  -4.125   0.000  0.00  0.00    -0.048 C 
ATOM     20  C   UNL     1       0.000  -4.950   0.000  0.00  0.00    +0.026 C 
ATOM     21  C   UNL     1      -0.715  -3.712   0.000  0.00  0.00    -0.034 C 
ATOM     22  C   UNL     1      -0.715  -2.888   0.000  0.00  0.00    +0.037 C 
ENDROOT
BRANCH   4   2
ATOM      1  C   UNL     1      -0.715  -1.238   0.000  0.00  0.00    +0.000 C 
ATOM      2  C   UNL     1       0.000  -1.650   0.000  0.00  0.00    +0.000 C 
ATOM      3  C   UNL     1       0.715  -1.238   0.000  0.00  0.00    +0.000 C 
ENDBRANCH   4   2
BRANCH   6   7
ATOM      7  C   UNL     1       1.429  -4.125   0.000  0.00  0.00    +0.089 C 
BRANCH   7   8
ATOM      8  C   UNL     1       1.429  -4.950   0.000  0.00  0.00    +0.226 C 
ATOM      9  O   UNL     1       0.715  -5.362   0.000  0.00  0.00    -0.275 OA
ATOM     10  N   UNL     1       2.143  -5.362   0.000  0.00  0.00    -0.277 N 
ATOM     11  C   UNL     1       2.858  -4.950   0.000  0.00  0.00    +0.111 C 
ATOM     12  C   UNL     1       3.572  -5.362   0.000  0.00  0.00    +0.094 C 
ATOM     13  N   UNL     1       3.572  -6.188   0.000  0.00  0.00    -0.268 NA
ATOM     17  C   UNL     1       2.858  -6.600   0.000  0.00  0.00    +0.094 C 
ATOM     18  C   UNL     1       2.143  -6.188   0.000  0.00  0.00    +0.111 C 
BRANCH  13  14
ATOM     14  C   UNL     1       4.287  -6.600   0.000  0.00  0.00    +0.108 C 
BRANCH  14  15
ATOM     15  C   UNL     1       4.287  -7.425   0.000  0.00  0.00    +0.199 C 
ATOM     16  O   UNL     1       5.001  -7.838   0.000  0.00  0.00    -0.219 OA
ENDBRANCH  14  15
ENDBRANCH  13  14
ENDBRANCH   7   8
ENDBRANCH   6   7
BRANCH  22  23
ATOM     23  C   UNL     1      -1.429  -2.475   0.000  0.00  0.00    +0.110 C 
BRANCH  23  24
ATOM     24  C   UNL     1      -2.143  -2.888   0.000  0.00  0.00    +0.073 C 
ATOM     25  N   UNL     1      -2.858  -3.300   0.000  0.00  0.00    -0.196 NA
ENDBRANCH  23  24
ENDBRANCH  22  23
TORSDOF 7
