REMARK  Name = 
REMARK  4 active torsions:
REMARK  status: ('A' for Active; 'I' for Inactive)
REMARK    1  A    between atoms: C_3  and  C_4
REMARK    2  A    between atoms: C_4  and  N_5
REMARK    3  A    between atoms: C_14  and  C_15
REMARK    4  A    between atoms: C_16  and  C_17
REMARK                            x       y       z     vdW  Elec       q    Type
REMARK                         _______ _______ _______ _____ _____    ______ ____
ROOT
ATOM      5  N   UNL     1       0.813  -2.091   0.000  0.00  0.00    -0.268 NA
ATOM      6  C   UNL     1       1.629  -1.912   0.000  0.00  0.00    +0.074 C 
ATOM      7  C   UNL     1       1.582  -0.925   0.000  0.00  0.00    +0.039 C 
ATOM      8  C   UNL     1       1.713  -0.121   0.000  0.00  0.00    +0.011 C 
ATOM      9  C   UNL     1       1.163  -0.557   0.000  0.00  0.00    +0.054 C 
ATOM     10  C   UNL     1       1.225  -1.510   0.000  0.00  0.00    +0.078 C 
ATOM     11  C   UNL     1       0.244  -0.558   0.000  0.00  0.00    +0.041 A 
ATOM     12  C   UNL     1      -0.397  -0.039   0.000  0.00  0.00    +0.013 A 
ATOM     13  C   UNL     1      -1.167  -0.335   0.000  0.00  0.00    +0.006 A 
ATOM     14  C   UNL     1      -1.296  -1.150   0.000  0.00  0.00    +0.056 A 
ATOM     24  C   UNL     1      -0.655  -1.669   0.000  0.00  0.00    +0.261 A 
ATOM     25  O   UNL     1      -0.784  -2.484   0.000  0.00  0.00    -0.267 OA
ATOM     26  N   UNL     1       0.115  -1.373   0.000  0.00  0.00    -0.299 N 
ATOM     27  C   UNL     1       0.622  -0.936   0.000  0.00  0.00    +0.110 C 
ENDROOT
BRANCH  14  15
ATOM     15  C   UNL     1      -2.066  -1.445   0.000  0.00  0.00    +0.005 C 
ATOM     16  C   UNL     1      -2.195  -2.260   0.000  0.00  0.00    +0.000 C 
BRANCH  16  17
ATOM     17  C   UNL     1      -2.965  -2.556   0.000  0.00  0.00    +0.000 A 
ATOM     18  C   UNL     1      -3.094  -3.371   0.000  0.00  0.00    +0.001 A 
ATOM     19  C   UNL     1      -3.864  -3.667   0.000  0.00  0.00    +0.011 A 
ATOM     20  C   UNL     1      -4.505  -3.147   0.000  0.00  0.00    +0.058 A 
ATOM     21 CL   UNL     1      -5.276  -3.443   0.000  0.00  0.00    -0.082 Cl
ATOM     22  C   UNL     1      -4.377  -2.333   0.000  0.00  0.00    +0.011 A 
ATOM     23  C   UNL     1      -3.606  -2.037   0.000  0.00  0.00    +0.001 A 
ENDBRANCH  16  17
ENDBRANCH  14  15
BRANCH   5   4
ATOM      4  C   UNL     1       0.125  -2.547   0.000  0.00  0.00    +0.102 C 
BRANCH   4   3
ATOM      1  O   UNL     1      -1.251  -3.458   0.000  0.00  0.00    -0.287 OA
ATOM      2  C   UNL     1      -0.512  -3.826   0.000  0.00  0.00    +0.193 A 
ATOM      3  C   UNL     1       0.176  -3.370   0.000  0.00  0.00    +0.033 A 
ATOM     28  C   UNL     1       0.914  -3.738   0.000  0.00  0.00    +0.000 A 
ATOM     29  C   UNL     1       0.965  -4.562   0.000  0.00  0.00    -0.000 A 
ATOM     30  C   UNL     1       0.277  -5.017   0.000  0.00  0.00    +0.003 A 
ATOM     31  C   UNL     1      -0.461  -4.650   0.000  0.00  0.00    +0.042 A 
ENDBRANCH   4   3
ENDBRANCH   5   4
TORSDOF 4
