REMARK  Name = 
REMARK  6 active torsions:
REMARK  status: ('A' for Active; 'I' for Inactive)
REMARK    1  A    between atoms: C_2  and  C_3
REMARK    2  A    between atoms: C_11  and  C_12
REMARK    3  A    between atoms: C_12  and  C_13
REMARK    4  A    between atoms: N_15  and  C_16
REMARK    5  A    between atoms: C_16  and  C_17
REMARK    6  A    between atoms: C_26  and  C_28
REMARK                            x       y       z     vdW  Elec       q    Type
REMARK                         _______ _______ _______ _____ _____    ______ ____
ROOT
ATOM      1  C   UNL     1      -2.426   2.838   0.000  0.00  0.00    +0.005 C 
ATOM      2  C   UNL     1      -2.143   2.062   0.000  0.00  0.00    +0.059 C 
ATOM      5  C   UNL     1      -1.429   2.475   0.000  0.00  0.00    +0.154 C 
ATOM      6  O   UNL     1      -1.429   3.300   0.000  0.00  0.00    -0.223 OA
ATOM      7  C   UNL     1      -0.715   2.062   0.000  0.00  0.00    +0.033 C 
ATOM      8  C   UNL     1      -0.715   1.238   0.000  0.00  0.00    +0.003 C 
ATOM      9  C   UNL     1      -1.429   0.825   0.000  0.00  0.00    +0.006 C 
ATOM     10  C   UNL     1      -0.715   0.412   0.000  0.00  0.00    +0.000 C 
ATOM     11  C   UNL     1      -1.429   0.000   0.000  0.00  0.00    +0.050 C 
ATOM     19  C   UNL     1      -2.143  -0.412   0.000  0.00  0.00    +0.063 A 
ATOM     20  C   UNL     1      -2.858   0.000   0.000  0.00  0.00    +0.023 A 
ATOM     21  C   UNL     1      -2.858   0.825   0.000  0.00  0.00    +0.034 C 
ATOM     22  C   UNL     1      -2.143   1.238   0.000  0.00  0.00    +0.010 C 
ATOM     23  S   UNL     1      -3.471  -0.552   0.000  0.00  0.00    -0.054 S 
ATOM     24  C   UNL     1      -3.135  -1.306   0.000  0.00  0.00    +0.185 A 
ATOM     25  N   UNL     1      -3.548  -2.020   0.000  0.00  0.00    -0.150 NA
ATOM     26  C   UNL     1      -3.135  -2.735   0.000  0.00  0.00    +0.275 C 
ATOM     27  O   UNL     1      -2.310  -2.735   0.000  0.00  0.00    -0.268 OA
ATOM     36  N   UNL     1      -2.315  -1.220   0.000  0.00  0.00    -0.227 NA
ENDROOT
BRANCH  26  28
ATOM     28  C   UNL     1      -3.548  -3.449   0.000  0.00  0.00    +0.110 A 
ATOM     29  C   UNL     1      -3.135  -4.164   0.000  0.00  0.00    +0.147 A 
ATOM     30  F   UNL     1      -2.310  -4.164   0.000  0.00  0.00    -0.204 F 
ATOM     31  C   UNL     1      -3.548  -4.878   0.000  0.00  0.00    +0.030 A 
ATOM     32  C   UNL     1      -4.373  -4.878   0.000  0.00  0.00    +0.005 A 
ATOM     33  C   UNL     1      -4.785  -4.164   0.000  0.00  0.00    +0.030 A 
ATOM     34  C   UNL     1      -4.373  -3.449   0.000  0.00  0.00    +0.147 A 
ATOM     35  F   UNL     1      -4.785  -2.735   0.000  0.00  0.00    -0.204 F 
ENDBRANCH  26  28
BRANCH   2   3
ATOM      3  C   UNL     1      -2.956   1.919   0.000  0.00  0.00    +0.184 C 
ATOM      4  O   UNL     1      -3.238   1.144   0.000  0.00  0.00    -0.220 OA
ENDBRANCH   2   3
BRANCH  11  12
ATOM     12  C   UNL     1      -0.715  -0.412   0.000  0.00  0.00    +0.093 C 
BRANCH  12  13
ATOM     13  C   UNL     1       0.000   0.000   0.000  0.00  0.00    +0.243 C 
ATOM     14  O   UNL     1       0.000   0.825   0.000  0.00  0.00    -0.273 OA
ATOM     15  N   UNL     1       0.715  -0.412   0.000  0.00  0.00    -0.191 NA
BRANCH  15  16
ATOM     16  C   UNL     1       1.429   0.000   0.000  0.00  0.00    +0.191 C 
BRANCH  16  17
ATOM     17  C   UNL     1       2.143  -0.412   0.000  0.00  0.00    -0.054 C 
ATOM     18  C   UNL     1       2.858  -0.825   0.000  0.00  0.00    -0.012 C 
ENDBRANCH  16  17
ENDBRANCH  15  16
ENDBRANCH  12  13
ENDBRANCH  11  12
TORSDOF 6
