REMARK  Name = 
REMARK  9 active torsions:
REMARK  status: ('A' for Active; 'I' for Inactive)
REMARK    1  A    between atoms: C_2  and  C_4
REMARK    2  A    between atoms: C_6  and  C_7
REMARK    3  A    between atoms: C_7  and  C_8
REMARK    4  A    between atoms: C_20  and  C_21
REMARK    5  A    between atoms: C_21  and  N_22
REMARK    6  A    between atoms: C_23  and  C_25
REMARK    7  A    between atoms: C_25  and  C_26
REMARK    8  A    between atoms: C_26  and  C_29
REMARK    9  A    between atoms: C_29  and  C_30
REMARK                            x       y       z     vdW  Elec       q    Type
REMARK                         _______ _______ _______ _____ _____    ______ ____
ROOT
ATOM      4  C   UNL     1      -3.103  -2.127   0.000  0.00  0.00    +0.006 C 
ATOM      5  C   UNL     1      -2.691  -1.412   0.000  0.00  0.00    +0.005 C 
ATOM      6  C   UNL     1      -1.866  -1.412   0.000  0.00  0.00    +0.026 C 
ATOM     17  C   UNL     1      -1.453  -2.127   0.000  0.00  0.00    -0.048 C 
ATOM     18  C   UNL     1      -0.628  -2.127   0.000  0.00  0.00    +0.026 C 
ATOM     19  C   UNL     1      -1.866  -2.841   0.000  0.00  0.00    -0.033 C 
ATOM     20  C   UNL     1      -2.691  -2.841   0.000  0.00  0.00    +0.043 C 
ENDROOT
BRANCH   4   2
ATOM      1  C   UNL     1      -4.341  -2.841   0.000  0.00  0.00    +0.000 C 
ATOM      2  C   UNL     1      -3.928  -2.127   0.000  0.00  0.00    +0.000 C 
ATOM      3  C   UNL     1      -4.341  -1.412   0.000  0.00  0.00    +0.000 C 
ENDBRANCH   4   2
BRANCH   6   7
ATOM      7  C   UNL     1      -1.453  -0.698   0.000  0.00  0.00    +0.070 C 
BRANCH   7   8
ATOM      8  C   UNL     1      -0.628  -0.698   0.000  0.00  0.00    +0.141 A 
ATOM      9  N   UNL     1      -0.143  -1.365   0.000  0.00  0.00    -0.228 NA
ATOM     10  C   UNL     1       0.641  -1.110   0.000  0.00  0.00    +0.118 A 
ATOM     11  C   UNL     1       0.641  -0.285   0.000  0.00  0.00    +0.181 A 
ATOM     12  N   UNL     1      -0.143  -0.030   0.000  0.00  0.00    -0.210 NA
ATOM     13  N   UNL     1       1.356   0.127   0.000  0.00  0.00    -0.224 NA
ATOM     14  C   UNL     1       2.070  -0.285   0.000  0.00  0.00    +0.101 A 
ATOM     15  C   UNL     1       2.070  -1.110   0.000  0.00  0.00    +0.022 A 
ATOM     16  C   UNL     1       1.356  -1.523   0.000  0.00  0.00    +0.024 A 
ENDBRANCH   7   8
ENDBRANCH   6   7
BRANCH  20  21
ATOM     21  C   UNL     1      -3.103  -3.556   0.000  0.00  0.00    +0.119 C 
BRANCH  21  22
ATOM     22  N   UNL     1      -3.928  -3.556   0.000  0.00  0.00    -0.205 NA
ATOM     23  C   UNL     1      -4.341  -4.270   0.000  0.00  0.00    +0.241 C 
ATOM     24  O   UNL     1      -3.928  -4.985   0.000  0.00  0.00    -0.273 OA
BRANCH  23  25
ATOM     25  C   UNL     1      -5.166  -4.270   0.000  0.00  0.00    +0.087 C 
BRANCH  25  26
ATOM     26  C   UNL     1      -5.578  -4.985   0.000  0.00  0.00    +0.019 C 
ATOM     27  C   UNL     1      -6.293  -4.572   0.000  0.00  0.00    +0.001 C 
ATOM     28  C   UNL     1      -4.864  -5.397   0.000  0.00  0.00    +0.001 C 
BRANCH  26  29
ATOM     29  C   UNL     1      -5.991  -5.699   0.000  0.00  0.00    +0.115 C 
BRANCH  29  30
ATOM     30  C   UNL     1      -6.816  -5.699   0.000  0.00  0.00    +0.365 C 
ATOM     31  O   UNL     1      -7.228  -6.414   0.000  0.00  0.00    -0.246 OA
ATOM     32  O   UNL     1      -7.228  -4.985   0.000  0.00  0.00    -0.246 OA
ENDBRANCH  29  30
ENDBRANCH  26  29
ENDBRANCH  25  26
ENDBRANCH  23  25
ENDBRANCH  21  22
ENDBRANCH  20  21
TORSDOF 9
