REMARK  Name = 
REMARK  4 active torsions:
REMARK  status: ('A' for Active; 'I' for Inactive)
REMARK    1  A    between atoms: C_3  and  C_11
REMARK    2  A    between atoms: N_14  and  S_16
REMARK    3  A    between atoms: S_16  and  C_19
REMARK    4  A    between atoms: C_19  and  C_20
REMARK                            x       y       z     vdW  Elec       q    Type
REMARK                         _______ _______ _______ _____ _____    ______ ____
ROOT
ATOM     11  C   UNL     1      -1.453  -0.698   0.000  0.00  0.00    +0.076 C 
ATOM     12  C   UNL     1      -1.938  -1.365   0.000  0.00  0.00    +0.028 C 
ATOM     13  C   UNL     1      -2.723  -1.110   0.000  0.00  0.00    +0.096 C 
ATOM     14  N   UNL     1      -2.723  -0.285   0.000  0.00  0.00    -0.159 NA
ATOM     15  C   UNL     1      -1.938  -0.030   0.000  0.00  0.00    +0.103 C 
ENDROOT
BRANCH  11   3
ATOM      1  C   UNL     1      -0.398   0.754   0.000  0.00  0.00    +0.132 C 
ATOM      2  N   UNL     1      -0.143  -0.030   0.000  0.00  0.00    -0.313 N 
ATOM      3  C   UNL     1      -0.628  -0.698   0.000  0.00  0.00    +0.121 A 
ATOM      4  N   UNL     1      -0.143  -1.365   0.000  0.00  0.00    -0.231 NA
ATOM      5  C   UNL     1       0.641  -1.110   0.000  0.00  0.00    +0.098 A 
ATOM      6  C   UNL     1       0.641  -0.285   0.000  0.00  0.00    +0.079 A 
ATOM      7  C   UNL     1       1.356   0.127   0.000  0.00  0.00    +0.019 A 
ATOM      8  C   UNL     1       2.070  -0.285   0.000  0.00  0.00    +0.002 A 
ATOM      9  C   UNL     1       2.070  -1.110   0.000  0.00  0.00    +0.002 A 
ATOM     10  C   UNL     1       1.356  -1.523   0.000  0.00  0.00    +0.021 A 
ENDBRANCH  11   3
BRANCH  14  16
ATOM     16  S   UNL     1      -3.390   0.200   0.000  0.00  0.00    +0.048 S 
ATOM     17  O   UNL     1      -2.905   0.867   0.000  0.00  0.00    -0.157 OA
ATOM     18  O   UNL     1      -3.875  -0.468   0.000  0.00  0.00    -0.157 OA
BRANCH  16  19
ATOM     19  C   UNL     1      -4.058   0.684   0.000  0.00  0.00    +0.195 C 
BRANCH  19  20
ATOM     20  C   UNL     1      -3.972   1.505   0.000  0.00  0.00    +0.003 A 
ATOM     21  C   UNL     1      -4.639   1.990   0.000  0.00  0.00    -0.003 A 
ATOM     22  C   UNL     1      -4.553   2.810   0.000  0.00  0.00    -0.000 A 
ATOM     23  C   UNL     1      -3.799   3.146   0.000  0.00  0.00    -0.000 A 
ATOM     24  C   UNL     1      -3.132   2.661   0.000  0.00  0.00    -0.000 A 
ATOM     25  C   UNL     1      -3.218   1.840   0.000  0.00  0.00    -0.003 A 
ENDBRANCH  19  20
ENDBRANCH  16  19
ENDBRANCH  14  16
TORSDOF 4
