REMARK  Name = 
REMARK  2 active torsions:
REMARK  status: ('A' for Active; 'I' for Inactive)
REMARK    1  A    between atoms: C_2  and  C_27
REMARK    2  A    between atoms: C_10  and  C_17
REMARK                            x       y       z     vdW  Elec       q    Type
REMARK                         _______ _______ _______ _____ _____    ______ ____
ROOT
ATOM      1  O   UNL     1       0.339  -3.516   0.000  0.00  0.00    -0.268 OA
ATOM      2  C   UNL     1       0.167  -2.664   0.000  0.00  0.00    +0.268 C 
ATOM      3  N   UNL     1       0.813  -2.091   0.000  0.00  0.00    -0.274 N 
ATOM      4  C   UNL     1       1.629  -1.912   0.000  0.00  0.00    +0.096 C 
ATOM      5  C   UNL     1       1.582  -0.925   0.000  0.00  0.00    +0.043 C 
ATOM      6  C   UNL     1       1.713  -0.121   0.000  0.00  0.00    +0.011 C 
ATOM      7  C   UNL     1       1.163  -0.557   0.000  0.00  0.00    +0.058 C 
ATOM      8  C   UNL     1       1.225  -1.510   0.000  0.00  0.00    +0.100 C 
ATOM      9  C   UNL     1       0.244  -0.558   0.000  0.00  0.00    +0.041 A 
ATOM     10  C   UNL     1      -0.397  -0.039   0.000  0.00  0.00    +0.012 A 
ATOM     11  C   UNL     1      -1.167  -0.335   0.000  0.00  0.00    +0.006 A 
ATOM     12  C   UNL     1      -1.213  -1.232   0.000  0.00  0.00    +0.061 A 
ATOM     13  C   UNL     1      -0.655  -1.669   0.000  0.00  0.00    +0.261 A 
ATOM     14  O   UNL     1      -0.724  -2.716   0.000  0.00  0.00    -0.267 OA
ATOM     15  N   UNL     1       0.115  -1.373   0.000  0.00  0.00    -0.299 N 
ATOM     16  C   UNL     1       0.622  -0.936   0.000  0.00  0.00    +0.110 C 
ENDROOT
BRANCH  10  17
ATOM     17  C   UNL     1      -0.268   0.776   0.000  0.00  0.00    +0.001 A 
ATOM     18  C   UNL     1       0.502   1.072   0.000  0.00  0.00    +0.000 A 
ATOM     19  C   UNL     1       0.631   1.887   0.000  0.00  0.00    +0.000 A 
ATOM     20  C   UNL     1      -0.010   2.406   0.000  0.00  0.00    +0.000 A 
ATOM     21  C   UNL     1       0.119   3.220   0.000  0.00  0.00    +0.000 A 
ATOM     22  C   UNL     1      -0.522   3.740   0.000  0.00  0.00    +0.000 A 
ATOM     23  C   UNL     1      -1.292   3.444   0.000  0.00  0.00    +0.000 A 
ATOM     24  C   UNL     1      -1.421   2.629   0.000  0.00  0.00    +0.000 A 
ATOM     25  C   UNL     1      -0.780   2.110   0.000  0.00  0.00    +0.000 A 
ATOM     26  C   UNL     1      -0.909   1.295   0.000  0.00  0.00    +0.000 A 
ENDBRANCH  10  17
BRANCH   2  27
ATOM     27  C   UNL     1      -0.614  -2.179   0.000  0.00  0.00    +0.154 A 
ATOM     28  C   UNL     1      -0.664  -1.356   0.000  0.00  0.00    +0.123 A 
ATOM     29  N   UNL     1      -1.403  -0.988   0.000  0.00  0.00    -0.239 NA
ATOM     30  C   UNL     1      -2.091  -1.444   0.000  0.00  0.00    +0.120 A 
ATOM     31  C   UNL     1      -2.040  -2.267   0.000  0.00  0.00    +0.120 A 
ATOM     32  N   UNL     1      -1.301  -2.635   0.000  0.00  0.00    -0.236 NA
ENDBRANCH   2  27
TORSDOF 2
