REMARK  Name = 
REMARK  7 active torsions:
REMARK  status: ('A' for Active; 'I' for Inactive)
REMARK    1  A    between atoms: O_2  and  C_3
REMARK    2  A    between atoms: C_3  and  C_4
REMARK    3  A    between atoms: N_6  and  C_7
REMARK    4  A    between atoms: C_7  and  C_8
REMARK    5  A    between atoms: C_11  and  N_12
REMARK    6  A    between atoms: N_12  and  C_13
REMARK    7  A    between atoms: C_13  and  C_14
REMARK                            x       y       z     vdW  Elec       q    Type
REMARK                         _______ _______ _______ _____ _____    ______ ____
ROOT
ATOM      8  C   UNL     1       8.288  -5.759   0.000  0.00  0.00    +0.169 C 
ATOM      9  O   UNL     1       8.374  -4.938   0.000  0.00  0.00    -0.350 OA
ATOM     10  C   UNL     1       9.181  -4.767   0.000  0.00  0.00    +0.162 C 
ATOM     11  C   UNL     1       9.594  -5.481   0.000  0.00  0.00    +0.135 C 
ATOM     19  C   UNL     1       9.042  -6.094   0.000  0.00  0.00    +0.199 C 
ATOM     20  O   UNL     1       9.213  -6.901   0.000  0.00  0.00    -0.219 OA
ENDROOT
BRANCH   8   7
ATOM      7  C   UNL     1       7.574  -6.171   0.000  0.00  0.00    +0.147 C 
BRANCH   7   6
ATOM      4  C   UNL     1       6.145  -6.171   0.000  0.00  0.00    +0.272 C 
ATOM      5  O   UNL     1       6.145  -6.996   0.000  0.00  0.00    -0.271 OA
ATOM      6  N   UNL     1       6.859  -5.759   0.000  0.00  0.00    -0.201 NA
BRANCH   4   3
ATOM      3  C   UNL     1       5.430  -5.759   0.000  0.00  0.00    +0.229 C 
BRANCH   3   2
ATOM      1  C   UNL     1       4.002  -5.759   0.000  0.00  0.00    +0.175 C 
ATOM      2  O   UNL     1       4.716  -6.171   0.000  0.00  0.00    -0.342 OA
ENDBRANCH   3   2
ENDBRANCH   4   3
ENDBRANCH   7   6
ENDBRANCH   8   7
BRANCH  11  12
ATOM     12  N   UNL     1      10.415  -5.568   0.000  0.00  0.00    -0.209 NA
BRANCH  12  13
ATOM     13  C   UNL     1      10.899  -4.900   0.000  0.00  0.00    +0.122 C 
BRANCH  13  14
ATOM     14  C   UNL     1      11.720  -4.986   0.000  0.00  0.00    +0.025 A 
ATOM     15  C   UNL     1      12.272  -4.373   0.000  0.00  0.00    +0.004 A 
ATOM     16  C   UNL     1      13.026  -4.709   0.000  0.00  0.00    +0.007 A 
ATOM     17  C   UNL     1      12.939  -5.529   0.000  0.00  0.00    +0.035 A 
ATOM     18  S   UNL     1      12.132  -5.701   0.000  0.00  0.00    -0.089 S 
ENDBRANCH  13  14
ENDBRANCH  12  13
ENDBRANCH  11  12
TORSDOF 7
