REMARK  Name = 
REMARK  9 active torsions:
REMARK  status: ('A' for Active; 'I' for Inactive)
REMARK    1  A    between atoms: O_2  and  C_3
REMARK    2  A    between atoms: C_3  and  C_4
REMARK    3  A    between atoms: C_4  and  N_5
REMARK    4  A    between atoms: C_6  and  C_8
REMARK    5  A    between atoms: C_8  and  C_9
REMARK    6  A    between atoms: C_11  and  C_12
REMARK    7  A    between atoms: C_15  and  C_16
REMARK    8  A    between atoms: C_16  and  N_17
REMARK    9  A    between atoms: C_18  and  C_20
REMARK                            x       y       z     vdW  Elec       q    Type
REMARK                         _______ _______ _______ _____ _____    ______ ____
ROOT
ATOM      9  C   UNL     1      -1.429  -5.775   0.000  0.00  0.00    +0.027 C 
ATOM     10  C   UNL     1      -0.715  -5.362   0.000  0.00  0.00    +0.005 C 
ATOM     11  C   UNL     1       0.000  -5.775   0.000  0.00  0.00    +0.006 C 
ATOM     15  C   UNL     1       0.000  -6.600   0.000  0.00  0.00    +0.043 C 
ATOM     26  C   UNL     1      -0.715  -7.013   0.000  0.00  0.00    -0.033 C 
ATOM     27  C   UNL     1      -1.429  -6.600   0.000  0.00  0.00    -0.048 C 
ATOM     28  C   UNL     1      -2.143  -7.013   0.000  0.00  0.00    +0.026 C 
ENDROOT
BRANCH  11  12
ATOM     12  C   UNL     1       0.715  -5.362   0.000  0.00  0.00    +0.000 C 
ATOM     13  C   UNL     1       1.429  -5.775   0.000  0.00  0.00    +0.000 C 
ATOM     14  C   UNL     1       0.715  -4.537   0.000  0.00  0.00    +0.000 C 
ENDBRANCH  11  12
BRANCH   9   8
ATOM      8  C   UNL     1      -2.143  -5.362   0.000  0.00  0.00    +0.091 C 
BRANCH   8   6
ATOM      5  N   UNL     1      -3.572  -5.362   0.000  0.00  0.00    -0.203 NA
ATOM      6  C   UNL     1      -2.858  -5.775   0.000  0.00  0.00    +0.242 C 
ATOM      7  O   UNL     1      -2.858  -6.600   0.000  0.00  0.00    -0.273 OA
BRANCH   5   4
ATOM      4  C   UNL     1      -4.287  -5.775   0.000  0.00  0.00    +0.147 C 
BRANCH   4   3
ATOM      3  C   UNL     1      -5.001  -5.362   0.000  0.00  0.00    +0.166 C 
BRANCH   3   2
ATOM      1  C   UNL     1      -6.430  -5.362   0.000  0.00  0.00    +0.174 C 
ATOM      2  O   UNL     1      -5.716  -5.775   0.000  0.00  0.00    -0.349 OA
ENDBRANCH   3   2
ENDBRANCH   4   3
ENDBRANCH   5   4
ENDBRANCH   8   6
ENDBRANCH   9   8
BRANCH  15  16
ATOM     16  C   UNL     1       0.715  -7.013   0.000  0.00  0.00    +0.120 C 
BRANCH  16  17
ATOM     17  N   UNL     1       0.715  -7.838   0.000  0.00  0.00    -0.201 NA
ATOM     18  C   UNL     1       1.429  -8.250   0.000  0.00  0.00    +0.265 C 
ATOM     19  O   UNL     1       1.429  -9.075   0.000  0.00  0.00    -0.268 OA
BRANCH  18  20
ATOM     20  C   UNL     1       2.143  -7.838   0.000  0.00  0.00    +0.058 A 
ATOM     21  C   UNL     1       2.143  -7.013   0.000  0.00  0.00    +0.025 A 
ATOM     22  C   UNL     1       2.858  -6.600   0.000  0.00  0.00    +0.099 A 
ATOM     23  N   UNL     1       3.572  -7.013   0.000  0.00  0.00    -0.242 NA
ATOM     24  C   UNL     1       3.572  -7.838   0.000  0.00  0.00    +0.099 A 
ATOM     25  C   UNL     1       2.858  -8.250   0.000  0.00  0.00    +0.025 A 
ENDBRANCH  18  20
ENDBRANCH  16  17
ENDBRANCH  15  16
TORSDOF 9
