REMARK  Name = 
REMARK  8 active torsions:
REMARK  status: ('A' for Active; 'I' for Inactive)
REMARK    1  A    between atoms: O_2  and  C_3
REMARK    2  A    between atoms: C_3  and  C_4
REMARK    3  A    between atoms: C_13  and  C_15
REMARK    4  A    between atoms: C_23  and  C_24
REMARK    5  A    between atoms: C_24  and  C_25
REMARK    6  A    between atoms: N_27  and  C_28
REMARK    7  A    between atoms: C_28  and  C_29
REMARK    8  A    between atoms: C_29  and  N_30
REMARK                            x       y       z     vdW  Elec       q    Type
REMARK                         _______ _______ _______ _____ _____    ______ ____
ROOT
ATOM      4  C   UNL     1       2.421  -3.972   0.000  0.00  0.00    +0.277 C 
ATOM      5  O   UNL     1       1.596  -3.972   0.000  0.00  0.00    -0.270 OA
ATOM      6  N   UNL     1       2.833  -3.258   0.000  0.00  0.00    -0.152 NA
ATOM      7  C   UNL     1       2.421  -2.543   0.000  0.00  0.00    +0.185 A 
ATOM      8  N   UNL     1       2.756  -1.790   0.000  0.00  0.00    -0.227 NA
ATOM      9  C   UNL     1       2.143  -1.238   0.000  0.00  0.00    +0.063 A 
ATOM     10  C   UNL     1       1.429  -1.650   0.000  0.00  0.00    +0.023 A 
ATOM     11  C   UNL     1       0.715  -1.238   0.000  0.00  0.00    +0.034 C 
ATOM     12  C   UNL     1       0.715  -0.412   0.000  0.00  0.00    +0.010 C 
ATOM     13  C   UNL     1       0.000   0.000   0.000  0.00  0.00    +0.059 C 
ATOM     14  C   UNL     1      -0.282  -0.775   0.000  0.00  0.00    +0.005 C 
ATOM     17  C   UNL     1       0.000   0.825   0.000  0.00  0.00    +0.154 C 
ATOM     18  O   UNL     1      -0.715   1.238   0.000  0.00  0.00    -0.223 OA
ATOM     19  C   UNL     1       0.715   1.238   0.000  0.00  0.00    +0.033 C 
ATOM     20  C   UNL     1       1.429   0.825   0.000  0.00  0.00    +0.003 C 
ATOM     21  C   UNL     1       1.429   0.000   0.000  0.00  0.00    +0.006 C 
ATOM     22  C   UNL     1       2.143   0.412   0.000  0.00  0.00    +0.000 C 
ATOM     23  C   UNL     1       2.143  -0.412   0.000  0.00  0.00    +0.050 C 
ATOM     36  S   UNL     1       1.601  -2.457   0.000  0.00  0.00    -0.054 S 
ENDROOT
BRANCH  13  15
ATOM     15  C   UNL     1      -0.812   0.143   0.000  0.00  0.00    +0.184 C 
ATOM     16  O   UNL     1      -1.095   0.918   0.000  0.00  0.00    -0.220 OA
ENDBRANCH  13  15
BRANCH   4   3
ATOM      3  C   UNL     1       2.833  -4.687   0.000  0.00  0.00    +0.229 C 
BRANCH   3   2
ATOM      1  C   UNL     1       2.833  -6.116   0.000  0.00  0.00    +0.175 C 
ATOM      2  O   UNL     1       2.421  -5.401   0.000  0.00  0.00    -0.342 OA
ENDBRANCH   3   2
ENDBRANCH   4   3
BRANCH  23  24
ATOM     24  C   UNL     1       2.858   0.000   0.000  0.00  0.00    +0.093 C 
BRANCH  24  25
ATOM     25  C   UNL     1       3.572  -0.412   0.000  0.00  0.00    +0.242 C 
ATOM     26  O   UNL     1       3.572  -1.238   0.000  0.00  0.00    -0.273 OA
ATOM     27  N   UNL     1       4.287   0.000   0.000  0.00  0.00    -0.204 NA
BRANCH  27  28
ATOM     28  C   UNL     1       5.001  -0.412   0.000  0.00  0.00    +0.132 C 
BRANCH  28  29
ATOM     29  C   UNL     1       5.716   0.000   0.000  0.00  0.00    +0.096 C 
BRANCH  29  30
ATOM     30  N   UNL     1       6.430  -0.412   0.000  0.00  0.00    -0.267 NA
ATOM     31  C   UNL     1       7.145   0.000   0.000  0.00  0.00    +0.105 C 
ATOM     32  C   UNL     1       7.859  -0.412   0.000  0.00  0.00    +0.159 C 
ATOM     33  O   UNL     1       7.859  -1.238   0.000  0.00  0.00    -0.351 OA
ATOM     34  C   UNL     1       7.145  -1.650   0.000  0.00  0.00    +0.159 C 
ATOM     35  C   UNL     1       6.430  -1.238   0.000  0.00  0.00    +0.105 C 
ENDBRANCH  29  30
ENDBRANCH  28  29
ENDBRANCH  27  28
ENDBRANCH  24  25
ENDBRANCH  23  24
TORSDOF 8
