REMARK  Name = 
REMARK  5 active torsions:
REMARK  status: ('A' for Active; 'I' for Inactive)
REMARK    1  A    between atoms: N_2  and  C_4
REMARK    2  A    between atoms: C_6  and  C_10
REMARK    3  A    between atoms: C_13  and  C_15
REMARK    4  A    between atoms: N_20  and  C_21
REMARK    5  A    between atoms: C_21  and  C_22
REMARK                            x       y       z     vdW  Elec       q    Type
REMARK                         _______ _______ _______ _____ _____    ______ ____
ROOT
ATOM     15  C   UNL     1       2.070   1.110   0.000  0.00  0.00    +0.144 C 
ATOM     16  C   UNL     1       1.356   0.698   0.000  0.00  0.00    +0.073 C 
ATOM     17  C   UNL     1       0.641   1.110   0.000  0.00  0.00    +0.077 A 
ATOM     18  C   UNL     1       0.641   1.935   0.000  0.00  0.00    +0.090 A 
ATOM     19  C   UNL     1       1.356   2.348   0.000  0.00  0.00    +0.120 C 
ATOM     20  N   UNL     1       2.070   1.935   0.000  0.00  0.00    -0.261 NA
ATOM     28  N   UNL     1      -0.143   2.190   0.000  0.00  0.00    -0.226 NA
ATOM     29  C   UNL     1      -0.628   1.523   0.000  0.00  0.00    +0.198 A 
ATOM     30  N   UNL     1      -0.143   0.856   0.000  0.00  0.00    -0.227 NA
ENDROOT
BRANCH  15  13
ATOM     10  C   UNL     1       3.678  -0.294   0.000  0.00  0.00    +0.203 A 
ATOM     11  N   UNL     1       4.090   0.420   0.000  0.00  0.00    -0.056 NA
ATOM     12  O   UNL     1       3.538   1.034   0.000  0.00  0.00    -0.336 OA
ATOM     13  C   UNL     1       2.784   0.698   0.000  0.00  0.00    +0.251 A 
ATOM     14  N   UNL     1       2.871  -0.122   0.000  0.00  0.00    -0.190 NA
BRANCH  10   6
ATOM      4  C   UNL     1       3.864  -2.469   0.000  0.00  0.00    +0.143 A 
ATOM      5  C   UNL     1       3.528  -1.715   0.000  0.00  0.00    +0.027 A 
ATOM      6  C   UNL     1       4.013  -1.048   0.000  0.00  0.00    +0.041 A 
ATOM      7  C   UNL     1       4.834  -1.134   0.000  0.00  0.00    +0.003 A 
ATOM      8  C   UNL     1       5.169  -1.888   0.000  0.00  0.00    +0.002 A 
ATOM      9  C   UNL     1       4.684  -2.555   0.000  0.00  0.00    +0.024 A 
BRANCH   4   2
ATOM      1  O   UNL     1       3.715  -3.890   0.000  0.00  0.00    -0.126 OA
ATOM      2  N   UNL     1       3.379  -3.136   0.000  0.00  0.00    +0.058 N 
ATOM      3  O   UNL     1       2.558  -3.050   0.000  0.00  0.00    -0.126 OA
ENDBRANCH   4   2
ENDBRANCH  10   6
ENDBRANCH  15  13
BRANCH  20  21
ATOM     21  C   UNL     1       2.784   2.348   0.000  0.00  0.00    +0.073 C 
BRANCH  21  22
ATOM     22  C   UNL     1       2.784   3.173   0.000  0.00  0.00    +0.016 C 
ATOM     23  C   UNL     1       2.070   3.585   0.000  0.00  0.00    +0.001 C 
ATOM     24  C   UNL     1       2.070   4.410   0.000  0.00  0.00    +0.000 C 
ATOM     25  C   UNL     1       2.784   4.823   0.000  0.00  0.00    +0.000 C 
ATOM     26  C   UNL     1       3.499   4.410   0.000  0.00  0.00    +0.000 C 
ATOM     27  C   UNL     1       3.499   3.585   0.000  0.00  0.00    +0.001 C 
ENDBRANCH  21  22
ENDBRANCH  20  21
TORSDOF 5
