REMARK  Name = 
REMARK  4 active torsions:
REMARK  status: ('A' for Active; 'I' for Inactive)
REMARK    1  A    between atoms: C_2  and  C_4
REMARK    2  A    between atoms: C_4  and  N_5
REMARK    3  A    between atoms: N_10  and  S_16
REMARK    4  A    between atoms: S_16  and  C_19
REMARK                            x       y       z     vdW  Elec       q    Type
REMARK                         _______ _______ _______ _____ _____    ______ ____
ROOT
ATOM      5  N   UNL     1       0.654  -0.698   0.000  0.00  0.00    -0.203 N 
ATOM      6  C   UNL     1       1.139  -0.030   0.000  0.00  0.00    +0.253 C 
ATOM      7  O   UNL     1       0.884   0.754   0.000  0.00  0.00    -0.273 OA
ATOM      8  C   UNL     1       1.923  -0.285   0.000  0.00  0.00    +0.172 C 
ATOM      9  C   UNL     1       2.638   0.127   0.000  0.00  0.00    +0.125 C 
ATOM     10  N   UNL     1       3.352  -0.285   0.000  0.00  0.00    -0.152 NA
ATOM     11  C   UNL     1       3.352  -1.110   0.000  0.00  0.00    +0.117 C 
ATOM     12  C   UNL     1       2.638  -1.523   0.000  0.00  0.00    +0.115 C 
ATOM     13  N   UNL     1       1.923  -1.110   0.000  0.00  0.00    -0.254 N 
ATOM     14  C   UNL     1       1.139  -1.365   0.000  0.00  0.00    +0.314 C 
ATOM     15  O   UNL     1       0.884  -2.150   0.000  0.00  0.00    -0.252 OA
ENDROOT
BRANCH  10  16
ATOM     16  S   UNL     1       4.067   0.127   0.000  0.00  0.00    +0.063 S 
ATOM     17  O   UNL     1       4.479  -0.587   0.000  0.00  0.00    -0.153 OA
ATOM     18  O   UNL     1       3.654   0.842   0.000  0.00  0.00    -0.153 OA
BRANCH  16  19
ATOM     19  C   UNL     1       4.781   0.540   0.000  0.00  0.00    +0.122 A 
ATOM     20  C   UNL     1       4.781   1.365   0.000  0.00  0.00    +0.022 A 
ATOM     21  C   UNL     1       5.496   1.777   0.000  0.00  0.00    +0.031 A 
ATOM     22  C   UNL     1       6.210   1.365   0.000  0.00  0.00    +0.140 A 
ATOM     23  F   UNL     1       6.925   1.777   0.000  0.00  0.00    -0.204 F 
ATOM     24  C   UNL     1       6.210   0.540   0.000  0.00  0.00    +0.031 A 
ATOM     25  C   UNL     1       5.496   0.127   0.000  0.00  0.00    +0.022 A 
ENDBRANCH  16  19
ENDBRANCH  10  16
BRANCH   5   4
ATOM      4  C   UNL     1      -0.171  -0.698   0.000  0.00  0.00    +0.191 C 
BRANCH   4   2
ATOM      1  N   UNL     1      -1.409  -1.412   0.000  0.00  0.00    -0.086 NA
ATOM      2  C   UNL     1      -0.584  -1.412   0.000  0.00  0.00    +0.281 C 
ATOM      3  O   UNL     1      -0.171  -2.127   0.000  0.00  0.00    -0.270 OA
ENDBRANCH   4   2
ENDBRANCH   5   4
TORSDOF 4
