REMARK  Name = 
REMARK  6 active torsions:
REMARK  status: ('A' for Active; 'I' for Inactive)
REMARK    1  A    between atoms: C_2  and  C_5
REMARK    2  A    between atoms: C_7  and  C_8
REMARK    3  A    between atoms: C_8  and  C_9
REMARK    4  A    between atoms: C_9  and  N_13
REMARK    5  A    between atoms: N_13  and  C_14
REMARK    6  A    between atoms: C_14  and  C_15
REMARK                            x       y       z     vdW  Elec       q    Type
REMARK                         _______ _______ _______ _____ _____    ______ ____
ROOT
ATOM      9  C   UNL     1       1.841  -2.304   0.000  0.00  0.00    +0.120 C 
ATOM     10  C   UNL     1       2.425  -2.888   0.000  0.00  0.00    +0.161 C 
ATOM     11  O   UNL     1       1.841  -3.471   0.000  0.00  0.00    -0.351 OA
ATOM     12  C   UNL     1       1.258  -2.888   0.000  0.00  0.00    +0.161 C 
ENDROOT
BRANCH   9   8
ATOM      8  C   UNL     1       1.258  -1.721   0.000  0.00  0.00    +0.070 C 
BRANCH   8   7
ATOM      5  C   UNL     1      -0.872  -1.864   0.000  0.00  0.00    +0.153 A 
ATOM      6  C   UNL     1      -0.180  -1.415   0.000  0.00  0.00    +0.054 A 
ATOM      7  C   UNL     1       0.461  -1.934   0.000  0.00  0.00    +0.102 A 
ATOM     22  N   UNL     1       0.166  -2.704   0.000  0.00  0.00    -0.082 NA
ATOM     23  O   UNL     1      -0.658  -2.661   0.000  0.00  0.00    -0.358 OA
BRANCH   5   2
ATOM      1  C   UNL     1      -2.412  -1.273   0.000  0.00  0.00    +0.008 C 
ATOM      2  C   UNL     1      -1.642  -1.569   0.000  0.00  0.00    +0.054 C 
ATOM      3  C   UNL     1      -1.938  -2.339   0.000  0.00  0.00    +0.008 C 
ATOM      4  C   UNL     1      -1.346  -0.799   0.000  0.00  0.00    +0.008 C 
ENDBRANCH   5   2
ENDBRANCH   8   7
ENDBRANCH   9   8
BRANCH   9  13
ATOM     13  N   UNL     1       2.425  -1.721   0.000  0.00  0.00    -0.211 NA
BRANCH  13  14
ATOM     14  C   UNL     1       2.211  -0.924   0.000  0.00  0.00    +0.115 C 
BRANCH  14  15
ATOM     15  C   UNL     1       2.795  -0.341   0.000  0.00  0.00    -0.004 A 
ATOM     16  C   UNL     1       2.581   0.456   0.000  0.00  0.00    -0.003 A 
ATOM     17  C   UNL     1       3.164   1.040   0.000  0.00  0.00    +0.001 A 
ATOM     18  C   UNL     1       3.961   0.826   0.000  0.00  0.00    +0.011 A 
ATOM     19  C   UNL     1       4.175   0.029   0.000  0.00  0.00    +0.057 A 
ATOM     20 CL   UNL     1       4.972  -0.184   0.000  0.00  0.00    -0.082 Cl
ATOM     21  C   UNL     1       3.591  -0.554   0.000  0.00  0.00    +0.009 A 
ENDBRANCH  14  15
ENDBRANCH  13  14
ENDBRANCH   9  13
TORSDOF 6
