REMARK  Name = 
REMARK  5 active torsions:
REMARK  status: ('A' for Active; 'I' for Inactive)
REMARK    1  A    between atoms: C_2  and  N_4
REMARK    2  A    between atoms: N_7  and  C_8
REMARK    3  A    between atoms: C_10  and  C_13
REMARK    4  A    between atoms: N_16  and  C_20
REMARK    5  A    between atoms: C_23  and  C_26
REMARK                            x       y       z     vdW  Elec       q    Type
REMARK                         _______ _______ _______ _____ _____    ______ ____
ROOT
ATOM     13  C   UNL     1       1.266  -5.880   0.000  0.00  0.00    +0.010 A 
ATOM     14  C   UNL     1       1.678  -5.165   0.000  0.00  0.00    +0.058 A 
ATOM     15  C   UNL     1       1.343  -4.412   0.000  0.00  0.00    +0.052 C 
ATOM     16  N   UNL     1       2.485  -5.337   0.000  0.00  0.00    -0.234 N 
ATOM     17  N   UNL     1       2.572  -6.157   0.000  0.00  0.00    -0.170 NA
ATOM     18  C   UNL     1       1.818  -6.493   0.000  0.00  0.00    +0.077 A 
ATOM     19  C   UNL     1       1.646  -7.300   0.000  0.00  0.00    +0.054 C 
ENDROOT
BRANCH  16  20
ATOM     20  C   UNL     1       3.099  -4.785   0.000  0.00  0.00    +0.082 A 
ATOM     21  C   UNL     1       2.927  -3.978   0.000  0.00  0.00    +0.019 A 
ATOM     22  C   UNL     1       3.540  -3.426   0.000  0.00  0.00    +0.005 A 
ATOM     23  C   UNL     1       4.325  -3.681   0.000  0.00  0.00    +0.072 A 
ATOM     24  C   UNL     1       4.496  -4.488   0.000  0.00  0.00    +0.005 A 
ATOM     25  C   UNL     1       3.883  -5.040   0.000  0.00  0.00    +0.019 A 
BRANCH  23  26
ATOM     26  C   UNL     1       4.938  -3.129   0.000  0.00  0.00    +0.419 C 
ATOM     27  F   UNL     1       5.551  -2.577   0.000  0.00  0.00    -0.166 F 
ATOM     28  F   UNL     1       5.490  -3.742   0.000  0.00  0.00    -0.166 F 
ATOM     29  F   UNL     1       4.386  -2.516   0.000  0.00  0.00    -0.166 F 
ENDBRANCH  23  26
ENDBRANCH  16  20
BRANCH  13  10
ATOM      8  C   UNL     1      -0.860  -5.689   0.000  0.00  0.00    +0.119 C 
ATOM      9  C   UNL     1      -0.107  -5.353   0.000  0.00  0.00    +0.035 C 
ATOM     10  C   UNL     1       0.446  -5.966   0.000  0.00  0.00    +0.048 C 
ATOM     11  C   UNL     1       0.033  -6.681   0.000  0.00  0.00    -0.025 C 
ATOM     12  C   UNL     1      -0.774  -6.509   0.000  0.00  0.00    -0.009 C 
BRANCH   8   7
ATOM      4  N   UNL     1      -3.004  -5.276   0.000  0.00  0.00    -0.189 NA
ATOM      5  C   UNL     1      -2.289  -5.689   0.000  0.00  0.00    +0.339 C 
ATOM      6  O   UNL     1      -2.289  -6.513   0.000  0.00  0.00    -0.249 OA
ATOM      7  N   UNL     1      -1.575  -5.276   0.000  0.00  0.00    -0.184 NA
BRANCH   4   2
ATOM      1  C   UNL     1      -4.433  -5.276   0.000  0.00  0.00    +0.023 C 
ATOM      2  C   UNL     1      -3.718  -5.689   0.000  0.00  0.00    +0.097 C 
ATOM      3  C   UNL     1      -3.718  -6.513   0.000  0.00  0.00    +0.023 C 
ENDBRANCH   4   2
ENDBRANCH   8   7
ENDBRANCH  13  10
TORSDOF 5
