REMARK  Name = 
REMARK  5 active torsions:
REMARK  status: ('A' for Active; 'I' for Inactive)
REMARK    1  A    between atoms: O_2  and  C_3
REMARK    2  A    between atoms: C_5  and  O_6
REMARK    3  A    between atoms: C_8  and  C_11
REMARK    4  A    between atoms: C_19  and  N_25
REMARK    5  A    between atoms: C_26  and  C_28
REMARK                            x       y       z     vdW  Elec       q    Type
REMARK                         _______ _______ _______ _____ _____    ______ ____
ROOT
ATOM     11  C   UNL     1       5.671   1.585   0.000  0.00  0.00    +0.003 A 
ATOM     12  C   UNL     1       4.886   1.837   0.000  0.00  0.00    +0.006 A 
ATOM     13  C   UNL     1       4.275   1.282   0.000  0.00  0.00    +0.069 A 
ATOM     14  C   UNL     1       4.449   0.476   0.000  0.00  0.00    +0.078 A 
ATOM     15  N   UNL     1       3.928  -0.163   0.000  0.00  0.00    -0.178 NA
ATOM     16  C   UNL     1       3.103  -0.154   0.000  0.00  0.00    +0.265 C 
ATOM     17  O   UNL     1       2.736  -0.893   0.000  0.00  0.00    -0.271 OA
ATOM     18  C   UNL     1       2.596   0.497   0.000  0.00  0.00    +0.174 C 
ATOM     19  C   UNL     1       1.773   0.432   0.000  0.00  0.00    +0.124 C 
ATOM     20  C   UNL     1       1.457   1.194   0.000  0.00  0.00    +0.045 C 
ATOM     21  C   UNL     1       2.085   1.730   0.000  0.00  0.00    +0.096 C 
ATOM     22  N   UNL     1       2.788   1.299   0.000  0.00  0.00    -0.268 N 
ATOM     23  C   UNL     1       3.535   1.649   0.000  0.00  0.00    +0.251 C 
ATOM     24  O   UNL     1       3.545   2.474   0.000  0.00  0.00    -0.270 OA
ATOM     33  C   UNL     1       5.235   0.224   0.000  0.00  0.00    +0.017 A 
ATOM     34  C   UNL     1       5.846   0.778   0.000  0.00  0.00    +0.001 A 
ENDROOT
BRANCH  11   8
ATOM      3  C   UNL     1       7.504   3.248   0.000  0.00  0.00    +0.142 A 
ATOM      4  C   UNL     1       6.719   3.500   0.000  0.00  0.00    +0.074 A 
ATOM      5  C   UNL     1       6.108   2.946   0.000  0.00  0.00    +0.142 A 
ATOM      8  C   UNL     1       6.282   2.139   0.000  0.00  0.00    +0.034 A 
ATOM      9  C   UNL     1       7.068   1.887   0.000  0.00  0.00    +0.006 A 
ATOM     10  C   UNL     1       7.679   2.442   0.000  0.00  0.00    +0.037 A 
BRANCH   3   2
ATOM      1  C   UNL     1       8.901   3.550   0.000  0.00  0.00    +0.252 C 
ATOM      2  O   UNL     1       8.115   3.802   0.000  0.00  0.00    -0.471 OA
ENDBRANCH   3   2
BRANCH   5   6
ATOM      6  O   UNL     1       5.322   3.197   0.000  0.00  0.00    -0.471 OA
ATOM      7  C   UNL     1       4.711   2.643   0.000  0.00  0.00    +0.252 C 
ENDBRANCH   5   6
ENDBRANCH  11   8
BRANCH  19  25
ATOM     25  N   UNL     1       1.342  -0.271   0.000  0.00  0.00    -0.205 NA
ATOM     26  C   UNL     1       0.517  -0.250   0.000  0.00  0.00    +0.241 C 
ATOM     27  O   UNL     1       0.086  -0.953   0.000  0.00  0.00    -0.273 OA
BRANCH  26  28
ATOM     28  C   UNL     1       0.124   0.475   0.000  0.00  0.00    +0.078 C 
ATOM     29  C   UNL     1      -0.694   0.583   0.000  0.00  0.00    +0.009 C 
ATOM     30  C   UNL     1      -0.845   1.394   0.000  0.00  0.00    +0.001 C 
ATOM     31  C   UNL     1      -0.120   1.788   0.000  0.00  0.00    +0.001 C 
ATOM     32  C   UNL     1       0.479   1.220   0.000  0.00  0.00    +0.009 C 
ENDBRANCH  26  28
ENDBRANCH  19  25
TORSDOF 5
