REMARK  Name = 
REMARK  8 active torsions:
REMARK  status: ('A' for Active; 'I' for Inactive)
REMARK    1  A    between atoms: O_2  and  C_3
REMARK    2  A    between atoms: C_6  and  C_9
REMARK    3  A    between atoms: C_11  and  C_16
REMARK    4  A    between atoms: C_23  and  C_24
REMARK    5  A    between atoms: C_24  and  O_25
REMARK    6  A    between atoms: O_25  and  C_26
REMARK    7  A    between atoms: N_28  and  C_29
REMARK    8  A    between atoms: C_32  and  C_35
REMARK                            x       y       z     vdW  Elec       q    Type
REMARK                         _______ _______ _______ _____ _____    ______ ____
ROOT
ATOM     16  C   UNL     1       1.661  -1.343   0.000  0.00  0.00    +0.056 C 
ATOM     17  C   UNL     1       1.814  -2.106   0.000  0.00  0.00    +0.078 C 
ATOM     18  N   UNL     1       1.065  -1.759   0.000  0.00  0.00    -0.270 NA
ATOM     19  C   UNL     1       1.205  -0.720   0.000  0.00  0.00    +0.072 C 
ATOM     20  C   UNL     1       0.961  -0.114   0.000  0.00  0.00    +0.018 C 
ATOM     21  C   UNL     1       0.923  -1.010   0.000  0.00  0.00    +0.010 C 
ATOM     22  C   UNL     1       0.119  -1.362   0.000  0.00  0.00    +0.020 C 
ATOM     23  C   UNL     1       0.226  -2.118   0.000  0.00  0.00    +0.102 C 
ENDROOT
BRANCH  16  11
ATOM      9  C   UNL     1       3.720  -0.616   0.000  0.00  0.00    +0.084 A 
ATOM     10  C   UNL     1       3.075  -1.130   0.000  0.00  0.00    +0.034 A 
ATOM     11  C   UNL     1       2.307  -0.828   0.000  0.00  0.00    +0.063 A 
ATOM     12  N   UNL     1       2.184  -0.013   0.000  0.00  0.00    -0.235 NA
ATOM     13  C   UNL     1       2.829   0.501   0.000  0.00  0.00    +0.139 A 
ATOM     14  C   UNL     1       2.707   1.317   0.000  0.00  0.00    +0.074 C 
ATOM     15  N   UNL     1       3.597   0.200   0.000  0.00  0.00    -0.231 NA
BRANCH   9   6
ATOM      3  C   UNL     1       6.023  -1.522   0.000  0.00  0.00    +0.139 A 
ATOM      4  C   UNL     1       5.378  -2.036   0.000  0.00  0.00    +0.037 A 
ATOM      5  C   UNL     1       4.610  -1.734   0.000  0.00  0.00    +0.005 A 
ATOM      6  C   UNL     1       4.488  -0.918   0.000  0.00  0.00    +0.018 A 
ATOM      7  C   UNL     1       5.133  -0.404   0.000  0.00  0.00    +0.005 A 
ATOM      8  C   UNL     1       5.901  -0.706   0.000  0.00  0.00    +0.037 A 
BRANCH   3   2
ATOM      1  C   UNL     1       7.436  -1.309   0.000  0.00  0.00    +0.252 C 
ATOM      2  O   UNL     1       6.791  -1.823   0.000  0.00  0.00    -0.471 OA
ENDBRANCH   3   2
ENDBRANCH   9   6
ENDBRANCH  16  11
BRANCH  23  24
ATOM     24  C   UNL     1      -0.179  -2.836   0.000  0.00  0.00    +0.226 C 
BRANCH  24  25
ATOM     25  O   UNL     1       0.241  -3.546   0.000  0.00  0.00    -0.432 OA
BRANCH  25  26
ATOM     26  C   UNL     1      -0.163  -4.265   0.000  0.00  0.00    +0.425 C 
ATOM     27  O   UNL     1      -0.988  -4.274   0.000  0.00  0.00    -0.224 OA
ATOM     28  N   UNL     1       0.257  -4.975   0.000  0.00  0.00    -0.142 NA
BRANCH  28  29
ATOM     29  C   UNL     1      -0.148  -5.694   0.000  0.00  0.00    +0.077 A 
ATOM     30  C   UNL     1       0.272  -6.404   0.000  0.00  0.00    +0.017 A 
ATOM     31  C   UNL     1      -0.133  -7.123   0.000  0.00  0.00    +0.004 A 
ATOM     32  C   UNL     1      -0.958  -7.132   0.000  0.00  0.00    +0.035 A 
ATOM     33  C   UNL     1      -1.378  -6.422   0.000  0.00  0.00    +0.004 A 
ATOM     34  C   UNL     1      -0.973  -5.703   0.000  0.00  0.00    +0.017 A 
BRANCH  32  35
ATOM     35  C   UNL     1      -1.362  -7.851   0.000  0.00  0.00    +0.173 C 
ATOM     36  C   UNL     1      -0.942  -8.561   0.000  0.00  0.00    +0.077 C 
ATOM     37  O   UNL     1      -2.187  -7.859   0.000  0.00  0.00    -0.291 OA
ENDBRANCH  32  35
ENDBRANCH  28  29
ENDBRANCH  25  26
ENDBRANCH  24  25
ENDBRANCH  23  24
TORSDOF 8
