REMARK  Name = 
REMARK  3 active torsions:
REMARK  status: ('A' for Active; 'I' for Inactive)
REMARK    1  A    between atoms: C_7  and  C_8
REMARK    2  A    between atoms: C_8  and  N_9
REMARK    3  A    between atoms: N_15  and  C_16
REMARK                            x       y       z     vdW  Elec       q    Type
REMARK                         _______ _______ _______ _____ _____    ______ ____
ROOT
ATOM      9  N   UNL     1       3.352   1.935   0.000  0.00  0.00    -0.266 NA
ATOM     10  C   UNL     1       3.352   1.110   0.000  0.00  0.00    +0.094 C 
ATOM     11  C   UNL     1       2.638   0.698   0.000  0.00  0.00    +0.112 C 
ATOM     12  N   UNL     1       1.923   1.110   0.000  0.00  0.00    -0.261 N 
ATOM     13  C   UNL     1       1.923   1.935   0.000  0.00  0.00    +0.113 C 
ATOM     14  C   UNL     1       1.139   2.190   0.000  0.00  0.00    +0.116 C 
ATOM     15  N   UNL     1       0.654   1.523   0.000  0.00  0.00    -0.264 N 
ATOM     22  C   UNL     1       1.139   0.856   0.000  0.00  0.00    +0.307 C 
ATOM     23  O   UNL     1       0.884   0.071   0.000  0.00  0.00    -0.252 OA
ATOM     24  C   UNL     1       2.638   2.348   0.000  0.00  0.00    +0.094 C 
ENDROOT
BRANCH  15  16
ATOM     16  C   UNL     1      -0.171   1.523   0.000  0.00  0.00    +0.077 C 
ATOM     17  C   UNL     1      -0.584   0.808   0.000  0.00  0.00    +0.020 C 
ATOM     18  C   UNL     1      -1.409   0.808   0.000  0.00  0.00    +0.002 C 
ATOM     19  C   UNL     1      -1.821   1.523   0.000  0.00  0.00    +0.000 C 
ATOM     20  C   UNL     1      -1.409   2.237   0.000  0.00  0.00    +0.002 C 
ATOM     21  C   UNL     1      -0.584   2.237   0.000  0.00  0.00    +0.020 C 
ENDBRANCH  15  16
BRANCH   9   8
ATOM      8  C   UNL     1       4.067   2.348   0.000  0.00  0.00    +0.099 C 
BRANCH   8   7
ATOM      1  C   UNL     1       5.496   3.173   0.000  0.00  0.00    +0.031 C 
ATOM      2  C   UNL     1       5.496   2.348   0.000  0.00  0.00    -0.024 A 
ATOM      3  C   UNL     1       6.210   1.935   0.000  0.00  0.00    -0.005 A 
ATOM      4  C   UNL     1       6.210   1.110   0.000  0.00  0.00    -0.000 A 
ATOM      5  C   UNL     1       5.496   0.698   0.000  0.00  0.00    -0.000 A 
ATOM      6  C   UNL     1       4.781   1.110   0.000  0.00  0.00    -0.003 A 
ATOM      7  C   UNL     1       4.781   1.935   0.000  0.00  0.00    -0.010 A 
ENDBRANCH   8   7
ENDBRANCH   9   8
TORSDOF 3
