REMARK  Name = 
REMARK  7 active torsions:
REMARK  status: ('A' for Active; 'I' for Inactive)
REMARK    1  A    between atoms: C_2  and  C_3
REMARK    2  A    between atoms: C_6  and  C_7
REMARK    3  A    between atoms: C_7  and  N_8
REMARK    4  A    between atoms: N_8  and  C_9
REMARK    5  A    between atoms: C_14  and  C_15
REMARK    6  A    between atoms: C_15  and  C_16
REMARK    7  A    between atoms: C_16  and  C_17
REMARK                            x       y       z     vdW  Elec       q    Type
REMARK                         _______ _______ _______ _____ _____    ______ ____
ROOT
ATOM      9  C   UNL     1      -0.628  -0.698   0.000  0.00  0.00    +0.091 C 
ATOM     10  C   UNL     1      -0.143  -1.365   0.000  0.00  0.00    +0.044 C 
ATOM     11  C   UNL     1       0.641  -1.110   0.000  0.00  0.00    +0.138 C 
ATOM     12  N   UNL     1       0.641  -0.285   0.000  0.00  0.00    -0.265 NA
ATOM     13  C   UNL     1      -0.143  -0.030   0.000  0.00  0.00    +0.090 C 
ATOM     14  C   UNL     1       1.356   0.127   0.000  0.00  0.00    +0.080 C 
ATOM     31  C   UNL     1       2.070  -0.285   0.000  0.00  0.00    +0.131 C 
ATOM     32  N   UNL     1       2.070  -1.110   0.000  0.00  0.00    -0.203 NA
ATOM     33  C   UNL     1       1.356  -1.523   0.000  0.00  0.00    +0.256 C 
ATOM     34  O   UNL     1       1.356  -2.348   0.000  0.00  0.00    -0.272 OA
ENDROOT
BRANCH   9   8
ATOM      8  N   UNL     1      -1.453  -0.698   0.000  0.00  0.00    -0.210 NA
BRANCH   8   7
ATOM      7  C   UNL     1      -1.866  -1.412   0.000  0.00  0.00    +0.153 C 
BRANCH   7   6
ATOM      3  C   UNL     1      -3.961  -1.825   0.000  0.00  0.00    +0.156 A 
ATOM      4  C   UNL     1      -3.961  -1.000   0.000  0.00  0.00    +0.038 A 
ATOM      5  C   UNL     1      -3.176  -0.745   0.000  0.00  0.00    +0.037 A 
ATOM      6  C   UNL     1      -2.691  -1.412   0.000  0.00  0.00    +0.140 A 
ATOM     35  O   UNL     1      -3.176  -2.080   0.000  0.00  0.00    -0.458 OA
BRANCH   3   2
ATOM      1  O   UNL     1      -5.382  -1.974   0.000  0.00  0.00    -0.212 OA
ATOM      2  C   UNL     1      -4.628  -2.310   0.000  0.00  0.00    +0.246 C 
ENDBRANCH   3   2
ENDBRANCH   7   6
ENDBRANCH   8   7
ENDBRANCH   9   8
BRANCH  14  15
ATOM     15  C   UNL     1       1.356   0.952   0.000  0.00  0.00    +0.027 C 
BRANCH  15  16
ATOM     16  C   UNL     1       2.070   1.365   0.000  0.00  0.00    +0.087 C 
BRANCH  16  17
ATOM     17  C   UNL     1       2.070   2.190   0.000  0.00  0.00    +0.226 C 
ATOM     18  O   UNL     1       1.356   2.602   0.000  0.00  0.00    -0.275 OA
ATOM     19  N   UNL     1       2.784   2.602   0.000  0.00  0.00    -0.276 N 
ATOM     20  C   UNL     1       2.784   3.427   0.000  0.00  0.00    +0.115 C 
ATOM     21  C   UNL     1       3.499   3.840   0.000  0.00  0.00    +0.114 C 
ATOM     22  N   UNL     1       4.213   3.427   0.000  0.00  0.00    -0.290 N 
ATOM     23  C   UNL     1       4.213   2.602   0.000  0.00  0.00    +0.114 C 
ATOM     24  C   UNL     1       3.499   2.190   0.000  0.00  0.00    +0.115 C 
ATOM     25  C   UNL     1       4.928   3.840   0.000  0.00  0.00    +0.132 A 
ATOM     26  N   UNL     1       4.928   4.665   0.000  0.00  0.00    -0.229 NA
ATOM     27  C   UNL     1       5.642   5.077   0.000  0.00  0.00    +0.100 A 
ATOM     28  C   UNL     1       6.357   4.665   0.000  0.00  0.00    +0.021 A 
ATOM     29  C   UNL     1       6.357   3.840   0.000  0.00  0.00    +0.004 A 
ATOM     30  C   UNL     1       5.642   3.427   0.000  0.00  0.00    +0.034 A 
ENDBRANCH  16  17
ENDBRANCH  15  16
ENDBRANCH  14  15
TORSDOF 7
