REMARK  Name = 
REMARK  8 active torsions:
REMARK  status: ('A' for Active; 'I' for Inactive)
REMARK    1  A    between atoms: O_2  and  C_3
REMARK    2  A    between atoms: C_3  and  C_4
REMARK    3  A    between atoms: C_6  and  C_7
REMARK    4  A    between atoms: C_7  and  C_8
REMARK    5  A    between atoms: C_13  and  C_14
REMARK    6  A    between atoms: C_14  and  C_15
REMARK    7  A    between atoms: N_17  and  C_18
REMARK    8  A    between atoms: C_18  and  C_19
REMARK                            x       y       z     vdW  Elec       q    Type
REMARK                         _______ _______ _______ _____ _____    ______ ____
ROOT
ATOM      8  C   UNL     1       0.715  -0.412   0.000  0.00  0.00    +0.024 C 
ATOM      9  C   UNL     1       0.000   0.000   0.000  0.00  0.00    +0.089 C 
ATOM     10  N   UNL     1       0.000   0.825   0.000  0.00  0.00    -0.218 NA
ATOM     11  C   UNL     1       0.715   1.238   0.000  0.00  0.00    +0.089 C 
ATOM     12  C   UNL     1       1.429   0.825   0.000  0.00  0.00    +0.019 C 
ATOM     13  C   UNL     1       1.429   0.000   0.000  0.00  0.00    +0.012 C 
ENDROOT
BRANCH   8   7
ATOM      7  C   UNL     1       0.715  -1.238   0.000  0.00  0.00    +0.051 C 
BRANCH   7   6
ATOM      4  C   UNL     1      -1.306  -1.927   0.000  0.00  0.00    +0.184 A 
ATOM      5  C   UNL     1      -0.754  -1.314   0.000  0.00  0.00    +0.056 A 
ATOM      6  C   UNL     1       0.000  -1.650   0.000  0.00  0.00    +0.100 A 
ATOM     24  N   UNL     1      -0.086  -2.470   0.000  0.00  0.00    -0.082 NA
ATOM     25  O   UNL     1      -0.893  -2.642   0.000  0.00  0.00    -0.356 OA
BRANCH   4   3
ATOM      3  C   UNL     1      -2.126  -1.841   0.000  0.00  0.00    +0.209 C 
BRANCH   3   2
ATOM      1  C   UNL     1      -3.432  -2.422   0.000  0.00  0.00    +0.175 C 
ATOM      2  O   UNL     1      -2.611  -2.509   0.000  0.00  0.00    -0.343 OA
ENDBRANCH   3   2
ENDBRANCH   4   3
ENDBRANCH   7   6
ENDBRANCH   8   7
BRANCH  13  14
ATOM     14  C   UNL     1       2.143  -0.412   0.000  0.00  0.00    +0.087 C 
BRANCH  14  15
ATOM     15  C   UNL     1       2.858   0.000   0.000  0.00  0.00    +0.242 C 
ATOM     16  O   UNL     1       2.858   0.825   0.000  0.00  0.00    -0.273 OA
ATOM     17  N   UNL     1       3.572  -0.412   0.000  0.00  0.00    -0.200 NA
BRANCH  17  18
ATOM     18  C   UNL     1       4.287   0.000   0.000  0.00  0.00    +0.148 C 
BRANCH  18  19
ATOM     19  C   UNL     1       5.001  -0.412   0.000  0.00  0.00    +0.029 A 
ATOM     20  C   UNL     1       5.755  -0.077   0.000  0.00  0.00    +0.004 A 
ATOM     21  C   UNL     1       6.307  -0.690   0.000  0.00  0.00    +0.007 A 
ATOM     22  C   UNL     1       5.894  -1.405   0.000  0.00  0.00    +0.035 A 
ATOM     23  S   UNL     1       5.088  -1.233   0.000  0.00  0.00    -0.089 S 
ENDBRANCH  18  19
ENDBRANCH  17  18
ENDBRANCH  14  15
ENDBRANCH  13  14
TORSDOF 8
