REMARK  Name = 
REMARK  5 active torsions:
REMARK  status: ('A' for Active; 'I' for Inactive)
REMARK    1  A    between atoms: O_2  and  C_3
REMARK    2  A    between atoms: C_6  and  C_7
REMARK    3  A    between atoms: C_7  and  N_8
REMARK    4  A    between atoms: C_13  and  C_14
REMARK    5  A    between atoms: C_16  and  C_19
REMARK                            x       y       z     vdW  Elec       q    Type
REMARK                         _______ _______ _______ _____ _____    ______ ____
ROOT
ATOM      8  N   UNL     1      -0.596  -3.041   0.000  0.00  0.00    -0.260 NA
ATOM      9  C   UNL     1       0.072  -3.525   0.000  0.00  0.00    +0.106 C 
ATOM     10  C   UNL     1      -0.183  -4.310   0.000  0.00  0.00    +0.170 C 
ATOM     11  O   UNL     1       0.302  -4.977   0.000  0.00  0.00    -0.222 OA
ATOM     12  C   UNL     1      -1.008  -4.310   0.000  0.00  0.00    +0.060 C 
ATOM     13  C   UNL     1      -1.263  -3.525   0.000  0.00  0.00    +0.140 C 
ENDROOT
BRANCH  13  14
ATOM     14  C   UNL     1      -2.047  -3.270   0.000  0.00  0.00    +0.251 A 
ATOM     15  N   UNL     1      -2.715  -3.755   0.000  0.00  0.00    -0.190 NA
ATOM     16  C   UNL     1      -3.382  -3.270   0.000  0.00  0.00    +0.203 A 
ATOM     17  N   UNL     1      -3.127  -2.486   0.000  0.00  0.00    -0.056 NA
ATOM     18  O   UNL     1      -2.303  -2.486   0.000  0.00  0.00    -0.336 OA
BRANCH  16  19
ATOM     19  C   UNL     1      -4.167  -3.525   0.000  0.00  0.00    +0.039 A 
ATOM     20  C   UNL     1      -4.338  -4.332   0.000  0.00  0.00    +0.005 A 
ATOM     21  C   UNL     1      -5.123  -4.587   0.000  0.00  0.00    +0.030 A 
ATOM     22  C   UNL     1      -5.736  -4.035   0.000  0.00  0.00    +0.140 A 
ATOM     23  F   UNL     1      -6.521  -4.290   0.000  0.00  0.00    -0.204 F 
ATOM     24  C   UNL     1      -5.565  -3.228   0.000  0.00  0.00    +0.030 A 
ATOM     25  C   UNL     1      -4.780  -2.973   0.000  0.00  0.00    +0.005 A 
ENDBRANCH  16  19
ENDBRANCH  13  14
BRANCH   8   7
ATOM      7  C   UNL     1      -0.596  -2.216   0.000  0.00  0.00    +0.100 C 
BRANCH   7   6
ATOM      3  C   UNL     1       1.548  -0.978   0.000  0.00  0.00    +0.139 A 
ATOM      4  C   UNL     1       1.548  -1.803   0.000  0.00  0.00    +0.037 A 
ATOM      5  C   UNL     1       0.834  -2.216   0.000  0.00  0.00    +0.000 A 
ATOM      6  C   UNL     1       0.119  -1.803   0.000  0.00  0.00    -0.006 A 
ATOM     26  C   UNL     1       0.119  -0.978   0.000  0.00  0.00    +0.000 A 
ATOM     27  C   UNL     1       0.834  -0.566   0.000  0.00  0.00    +0.037 A 
BRANCH   3   2
ATOM      1  C   UNL     1       2.262   0.260   0.000  0.00  0.00    +0.252 C 
ATOM      2  O   UNL     1       2.262  -0.566   0.000  0.00  0.00    -0.471 OA
ENDBRANCH   3   2
ENDBRANCH   7   6
ENDBRANCH   8   7
TORSDOF 5
