REMARK  Name = 
REMARK  3 active torsions:
REMARK  status: ('A' for Active; 'I' for Inactive)
REMARK    1  A    between atoms: C_5  and  C_6
REMARK    2  A    between atoms: N_16  and  C_17
REMARK    3  A    between atoms: C_17  and  C_18
REMARK                            x       y       z     vdW  Elec       q    Type
REMARK                         _______ _______ _______ _____ _____    ______ ____
ROOT
ATOM      1  O   UNL     1      -0.784  -2.484   0.000  0.00  0.00    -0.267 OA
ATOM      2  C   UNL     1      -0.655  -1.669   0.000  0.00  0.00    +0.261 A 
ATOM      3  C   UNL     1      -1.296  -1.150   0.000  0.00  0.00    +0.061 A 
ATOM      4  C   UNL     1      -1.167  -0.335   0.000  0.00  0.00    +0.006 A 
ATOM      5  C   UNL     1      -0.397  -0.039   0.000  0.00  0.00    +0.018 A 
ATOM     11  C   UNL     1       0.244  -0.558   0.000  0.00  0.00    +0.041 A 
ATOM     12  C   UNL     1       1.163  -0.557   0.000  0.00  0.00    +0.055 C 
ATOM     13  C   UNL     1       1.713  -0.121   0.000  0.00  0.00    +0.011 C 
ATOM     14  C   UNL     1       1.582  -0.925   0.000  0.00  0.00    +0.039 C 
ATOM     15  C   UNL     1       1.629  -1.912   0.000  0.00  0.00    +0.074 C 
ATOM     16  N   UNL     1       0.813  -2.091   0.000  0.00  0.00    -0.266 NA
ATOM     27  C   UNL     1       1.225  -1.510   0.000  0.00  0.00    +0.078 C 
ATOM     28  C   UNL     1       0.622  -0.936   0.000  0.00  0.00    +0.110 C 
ATOM     29  N   UNL     1       0.115  -1.373   0.000  0.00  0.00    -0.299 N 
ENDROOT
BRANCH   5   6
ATOM      6  C   UNL     1      -0.268   0.776   0.000  0.00  0.00    +0.031 A 
ATOM      7  C   UNL     1       0.467   1.151   0.000  0.00  0.00    +0.007 A 
ATOM      8  C   UNL     1       0.338   1.965   0.000  0.00  0.00    +0.007 A 
ATOM      9  C   UNL     1      -0.477   2.094   0.000  0.00  0.00    +0.035 A 
ATOM     10  S   UNL     1      -0.851   1.359   0.000  0.00  0.00    -0.086 S 
ENDBRANCH   5   6
BRANCH  16  17
ATOM     17  C   UNL     1       0.125  -2.547   0.000  0.00  0.00    +0.138 C 
BRANCH  17  18
ATOM     18  C   UNL     1       0.176  -3.370   0.000  0.00  0.00    +0.139 A 
ATOM     19  C   UNL     1      -0.461  -3.896   0.000  0.00  0.00    +0.037 A 
ATOM     20  C   UNL     1      -0.158  -4.663   0.000  0.00  0.00    +0.037 A 
ATOM     21  C   UNL     1       0.665  -4.612   0.000  0.00  0.00    +0.145 A 
ATOM     22  O   UNL     1       0.872  -3.813   0.000  0.00  0.00    -0.456 OA
ATOM     23  C   UNL     1       1.121  -5.300   0.000  0.00  0.00    +0.037 A 
ATOM     24  C   UNL     1       0.753  -6.038   0.000  0.00  0.00    +0.003 A 
ATOM     25  C   UNL     1      -0.070  -6.089   0.000  0.00  0.00    +0.000 A 
ATOM     26  C   UNL     1      -0.526  -5.402   0.000  0.00  0.00    +0.003 A 
ENDBRANCH  17  18
ENDBRANCH  16  17
TORSDOF 3
