REMARK  Name = 
REMARK  6 active torsions:
REMARK  status: ('A' for Active; 'I' for Inactive)
REMARK    1  A    between atoms: C_2  and  C_4
REMARK    2  A    between atoms: C_4  and  C_5
REMARK    3  A    between atoms: C_5  and  C_6
REMARK    4  A    between atoms: N_8  and  C_9
REMARK    5  A    between atoms: C_13  and  N_17
REMARK    6  A    between atoms: C_20  and  C_24
REMARK                            x       y       z     vdW  Elec       q    Type
REMARK                         _______ _______ _______ _____ _____    ______ ____
ROOT
ATOM      9  C   UNL     1       9.136   1.354   0.000  0.00  0.00    +0.154 C 
ATOM     10  C   UNL     1       9.222   2.174   0.000  0.00  0.00    +0.166 C 
ATOM     11  O   UNL     1      10.029   2.346   0.000  0.00  0.00    -0.350 OA
ATOM     12  C   UNL     1      10.442   1.631   0.000  0.00  0.00    +0.166 C 
ATOM     13  C   UNL     1      11.196   1.296   0.000  0.00  0.00    +0.154 C 
ATOM     14  C   UNL     1      11.109   0.475   0.000  0.00  0.00    +0.166 C 
ATOM     15  O   UNL     1      10.302   0.304   0.000  0.00  0.00    -0.350 OA
ATOM     16  C   UNL     1       9.890   1.018   0.000  0.00  0.00    +0.166 C 
ENDROOT
BRANCH  13  17
ATOM     17  N   UNL     1      11.910   1.708   0.000  0.00  0.00    -0.200 NA
ATOM     18  C   UNL     1      12.624   1.296   0.000  0.00  0.00    +0.237 A 
ATOM     19  N   UNL     1      13.339   1.708   0.000  0.00  0.00    -0.209 NA
ATOM     20  C   UNL     1      14.053   1.296   0.000  0.00  0.00    +0.120 A 
ATOM     21  C   UNL     1      14.053   0.471   0.000  0.00  0.00    +0.043 A 
ATOM     22  C   UNL     1      13.339   0.058   0.000  0.00  0.00    +0.104 A 
ATOM     23  N   UNL     1      12.624   0.471   0.000  0.00  0.00    -0.211 NA
BRANCH  20  24
ATOM     24  C   UNL     1      14.768   1.708   0.000  0.00  0.00    +0.163 A 
ATOM     25  C   UNL     1      14.854   2.529   0.000  0.00  0.00    +0.042 A 
ATOM     26  C   UNL     1      15.661   2.700   0.000  0.00  0.00    +0.044 A 
ATOM     27  C   UNL     1      16.074   1.986   0.000  0.00  0.00    +0.180 A 
ATOM     28  O   UNL     1      15.522   1.373   0.000  0.00  0.00    -0.449 OA
ENDBRANCH  20  24
ENDBRANCH  13  17
BRANCH   9   8
ATOM      6  C   UNL     1       7.707   1.354   0.000  0.00  0.00    +0.242 C 
ATOM      7  O   UNL     1       7.707   2.179   0.000  0.00  0.00    -0.273 OA
ATOM      8  N   UNL     1       8.422   0.941   0.000  0.00  0.00    -0.202 NA
BRANCH   6   5
ATOM      5  C   UNL     1       6.993   0.941   0.000  0.00  0.00    +0.099 C 
BRANCH   5   4
ATOM      4  C   UNL     1       6.278   1.354   0.000  0.00  0.00    +0.124 C 
BRANCH   4   2
ATOM      1  O   UNL     1       4.849   1.354   0.000  0.00  0.00    -0.246 OA
ATOM      2  C   UNL     1       5.564   0.941   0.000  0.00  0.00    +0.365 C 
ATOM      3  O   UNL     1       5.564   0.116   0.000  0.00  0.00    -0.246 OA
ENDBRANCH   4   2
ENDBRANCH   5   4
ENDBRANCH   6   5
ENDBRANCH   9   8
TORSDOF 6
