REMARK  Name = 
REMARK  6 active torsions:
REMARK  status: ('A' for Active; 'I' for Inactive)
REMARK    1  A    between atoms: C_2  and  N_4
REMARK    2  A    between atoms: N_4  and  C_5
REMARK    3  A    between atoms: C_5  and  C_6
REMARK    4  A    between atoms: C_8  and  C_9
REMARK    5  A    between atoms: C_9  and  C_10
REMARK    6  A    between atoms: C_13  and  C_15
REMARK                            x       y       z     vdW  Elec       q    Type
REMARK                         _______ _______ _______ _____ _____    ______ ____
ROOT
ATOM      9  C   UNL     1       0.715  -0.412   0.000  0.00  0.00    +0.079 C 
ENDROOT
BRANCH   9   8
ATOM      6  C   UNL     1       2.858   0.000   0.000  0.00  0.00    +0.163 C 
ATOM      7  O   UNL     1       2.143  -0.412   0.000  0.00  0.00    -0.354 OA
ATOM      8  C   UNL     1       1.429   0.000   0.000  0.00  0.00    +0.121 C 
ATOM     22  C   UNL     1       1.429   0.825   0.000  0.00  0.00    +0.033 C 
ATOM     23  C   UNL     1       2.143   1.238   0.000  0.00  0.00    +0.038 C 
ATOM     24  C   UNL     1       2.858   0.825   0.000  0.00  0.00    +0.180 C 
ATOM     25  O   UNL     1       3.572   1.238   0.000  0.00  0.00    -0.220 OA
BRANCH   6   5
ATOM      5  C   UNL     1       3.572  -0.412   0.000  0.00  0.00    +0.121 C 
BRANCH   5   4
ATOM      4  N   UNL     1       4.287   0.000   0.000  0.00  0.00    -0.217 NA
BRANCH   4   2
ATOM      1  C   UNL     1       5.716   0.000   0.000  0.00  0.00    +0.019 C 
ATOM      2  C   UNL     1       5.001  -0.412   0.000  0.00  0.00    +0.073 C 
ATOM      3  C   UNL     1       5.001  -1.238   0.000  0.00  0.00    +0.019 C 
ENDBRANCH   4   2
ENDBRANCH   5   4
ENDBRANCH   6   5
ENDBRANCH   9   8
BRANCH   9  10
ATOM     10  C   UNL     1       0.715  -1.238   0.000  0.00  0.00    +0.103 A 
ATOM     11  N   UNL     1       1.382  -1.722   0.000  0.00  0.00    -0.081 NA
ATOM     12  O   UNL     1       1.127  -2.507   0.000  0.00  0.00    -0.354 OA
ATOM     13  C   UNL     1       0.302  -2.507   0.000  0.00  0.00    +0.177 A 
ATOM     14  C   UNL     1       0.047  -1.722   0.000  0.00  0.00    +0.058 A 
BRANCH  13  15
ATOM     15  C   UNL     1      -0.183  -3.175   0.000  0.00  0.00    +0.037 A 
ATOM     16  C   UNL     1       0.153  -3.928   0.000  0.00  0.00    +0.005 A 
ATOM     17  C   UNL     1      -0.332  -4.596   0.000  0.00  0.00    +0.030 A 
ATOM     18  C   UNL     1      -1.153  -4.509   0.000  0.00  0.00    +0.140 A 
ATOM     19  F   UNL     1      -1.638  -5.177   0.000  0.00  0.00    -0.204 F 
ATOM     20  C   UNL     1      -1.488  -3.756   0.000  0.00  0.00    +0.030 A 
ATOM     21  C   UNL     1      -1.003  -3.088   0.000  0.00  0.00    +0.005 A 
ENDBRANCH  13  15
ENDBRANCH   9  10
TORSDOF 6
