REMARK  Name = 
REMARK  6 active torsions:
REMARK  status: ('A' for Active; 'I' for Inactive)
REMARK    1  A    between atoms: O_2  and  C_3
REMARK    2  A    between atoms: C_3  and  C_4
REMARK    3  A    between atoms: N_8  and  C_9
REMARK    4  A    between atoms: C_12  and  C_13
REMARK    5  A    between atoms: C_16  and  C_17
REMARK    6  A    between atoms: C_17  and  N_18
REMARK                            x       y       z     vdW  Elec       q    Type
REMARK                         _______ _______ _______ _____ _____    ______ ____
ROOT
ATOM      9  C   UNL     1      -0.196  -1.235   0.000  0.00  0.00    +0.120 C 
ATOM     10  C   UNL     1      -0.863  -1.720   0.000  0.00  0.00    +0.198 C 
ATOM     11  O   UNL     1      -0.863  -2.545   0.000  0.00  0.00    -0.219 OA
ATOM     12  C   UNL     1      -1.530  -1.235   0.000  0.00  0.00    +0.180 C 
ATOM     15  O   UNL     1      -1.276  -0.451   0.000  0.00  0.00    -0.350 OA
ATOM     16  C   UNL     1      -0.451  -0.451   0.000  0.00  0.00    +0.154 C 
ENDROOT
BRANCH   9   8
ATOM      4  C   UNL     1       1.256  -1.005   0.000  0.00  0.00    +0.087 C 
ATOM      5  C   UNL     1       1.924  -1.490   0.000  0.00  0.00    +0.020 C 
ATOM      6  C   UNL     1       1.669  -2.275   0.000  0.00  0.00    +0.019 C 
ATOM      7  C   UNL     1       0.844  -2.275   0.000  0.00  0.00    +0.072 C 
ATOM      8  N   UNL     1       0.589  -1.490   0.000  0.00  0.00    -0.269 NA
BRANCH   4   3
ATOM      3  C   UNL     1       1.256  -0.180   0.000  0.00  0.00    +0.158 C 
BRANCH   3   2
ATOM      1  C   UNL     1       1.971   1.057   0.000  0.00  0.00    +0.174 C 
ATOM      2  O   UNL     1       1.971   0.232   0.000  0.00  0.00    -0.350 OA
ENDBRANCH   3   2
ENDBRANCH   4   3
ENDBRANCH   9   8
BRANCH  12  13
ATOM     13  C   UNL     1      -2.315  -1.490   0.000  0.00  0.00    +0.214 C 
ATOM     14  O   UNL     1      -2.928  -0.938   0.000  0.00  0.00    -0.218 OA
ENDBRANCH  12  13
BRANCH  16  17
ATOM     17  C   UNL     1       0.034   0.217   0.000  0.00  0.00    +0.146 C 
BRANCH  17  18
ATOM     18  N   UNL     1      -0.301   0.971   0.000  0.00  0.00    -0.203 NA
ATOM     19  C   UNL     1      -1.122   1.057   0.000  0.00  0.00    +0.242 C 
ATOM     20  C   UNL     1      -1.607   0.389   0.000  0.00  0.00    +0.096 C 
ATOM     21  O   UNL     1      -1.457   1.810   0.000  0.00  0.00    -0.273 OA
ENDBRANCH  17  18
ENDBRANCH  16  17
TORSDOF 6
