REMARK  Name = 
REMARK  9 active torsions:
REMARK  status: ('A' for Active; 'I' for Inactive)
REMARK    1  A    between atoms: O_2  and  C_3
REMARK    2  A    between atoms: C_5  and  N_6
REMARK    3  A    between atoms: N_9  and  C_10
REMARK    4  A    between atoms: C_14  and  C_15
REMARK    5  A    between atoms: N_17  and  C_18
REMARK    6  A    between atoms: C_18  and  C_19
REMARK    7  A    between atoms: C_18  and  C_26
REMARK    8  A    between atoms: C_19  and  C_20
REMARK    9  A    between atoms: C_29  and  C_31
REMARK                            x       y       z     vdW  Elec       q    Type
REMARK                         _______ _______ _______ _____ _____    ______ ____
ROOT
ATOM     10  C   UNL     1      -0.608  -1.299   0.000  0.00  0.00    +0.126 C 
ATOM     11  C   UNL     1       0.060  -1.784   0.000  0.00  0.00    +0.045 C 
ATOM     12  C   UNL     1      -0.195  -2.569   0.000  0.00  0.00    +0.096 C 
ATOM     13  N   UNL     1      -1.020  -2.569   0.000  0.00  0.00    -0.267 N 
ATOM     14  C   UNL     1      -1.275  -1.784   0.000  0.00  0.00    +0.174 C 
ATOM     29  C   UNL     1      -1.505  -3.236   0.000  0.00  0.00    +0.269 C 
ATOM     30  O   UNL     1      -2.326  -3.150   0.000  0.00  0.00    -0.268 OA
ENDROOT
BRANCH  29  31
ATOM     31  C   UNL     1      -1.170  -3.990   0.000  0.00  0.00    +0.154 A 
ATOM     32  C   UNL     1      -0.349  -4.076   0.000  0.00  0.00    +0.123 A 
ATOM     33  N   UNL     1      -0.014  -4.830   0.000  0.00  0.00    -0.239 NA
ATOM     34  C   UNL     1      -0.498  -5.497   0.000  0.00  0.00    +0.120 A 
ATOM     35  C   UNL     1      -1.319  -5.411   0.000  0.00  0.00    +0.120 A 
ATOM     36  N   UNL     1      -1.655  -4.657   0.000  0.00  0.00    -0.236 NA
ENDBRANCH  29  31
BRANCH  10   9
ATOM      6  N   UNL     1       0.107   0.763   0.000  0.00  0.00    -0.161 NA
ATOM      7  C   UNL     1       0.107  -0.062   0.000  0.00  0.00    +0.344 C 
ATOM      8  O   UNL     1       0.821  -0.474   0.000  0.00  0.00    -0.249 OA
ATOM      9  N   UNL     1      -0.608  -0.474   0.000  0.00  0.00    -0.186 NA
BRANCH   6   5
ATOM      3  C   UNL     1       2.250   1.176   0.000  0.00  0.00    +0.140 A 
ATOM      4  C   UNL     1       1.536   0.763   0.000  0.00  0.00    +0.054 A 
ATOM      5  C   UNL     1       0.821   1.176   0.000  0.00  0.00    +0.078 A 
ATOM     37  C   UNL     1       0.821   2.001   0.000  0.00  0.00    +0.017 A 
ATOM     38  C   UNL     1       1.536   2.413   0.000  0.00  0.00    +0.004 A 
ATOM     39  C   UNL     1       2.250   2.001   0.000  0.00  0.00    +0.037 A 
BRANCH   3   2
ATOM      1  C   UNL     1       3.679   1.176   0.000  0.00  0.00    +0.252 C 
ATOM      2  O   UNL     1       2.965   0.763   0.000  0.00  0.00    -0.471 OA
ENDBRANCH   3   2
ENDBRANCH   6   5
ENDBRANCH  10   9
BRANCH  14  15
ATOM     15  C   UNL     1      -2.060  -1.529   0.000  0.00  0.00    +0.262 C 
ATOM     16  O   UNL     1      -2.231  -0.722   0.000  0.00  0.00    -0.271 OA
ATOM     17  N   UNL     1      -2.673  -2.081   0.000  0.00  0.00    -0.196 NA
BRANCH  17  18
ATOM     18  C   UNL     1      -3.458  -1.826   0.000  0.00  0.00    +0.179 C 
BRANCH  18  26
ATOM     26  C   UNL     1      -3.629  -1.019   0.000  0.00  0.00    +0.281 C 
ATOM     27  N   UNL     1      -4.414  -0.764   0.000  0.00  0.00    -0.086 NA
ATOM     28  O   UNL     1      -3.016  -0.467   0.000  0.00  0.00    -0.270 OA
ENDBRANCH  18  26
BRANCH  18  19
ATOM     19  C   UNL     1      -4.071  -2.378   0.000  0.00  0.00    +0.057 C 
BRANCH  19  20
ATOM     20  C   UNL     1      -4.855  -2.123   0.000  0.00  0.00    -0.020 A 
ATOM     21  C   UNL     1      -5.468  -2.675   0.000  0.00  0.00    -0.004 A 
ATOM     22  C   UNL     1      -6.253  -2.420   0.000  0.00  0.00    -0.000 A 
ATOM     23  C   UNL     1      -6.425  -1.613   0.000  0.00  0.00    -0.000 A 
ATOM     24  C   UNL     1      -5.811  -1.061   0.000  0.00  0.00    -0.000 A 
ATOM     25  C   UNL     1      -5.027  -1.316   0.000  0.00  0.00    -0.004 A 
ENDBRANCH  19  20
ENDBRANCH  18  19
ENDBRANCH  17  18
ENDBRANCH  14  15
TORSDOF 9
