REMARK  Name = 
REMARK  4 active torsions:
REMARK  status: ('A' for Active; 'I' for Inactive)
REMARK    1  A    between atoms: C_2  and  C_22
REMARK    2  A    between atoms: N_10  and  C_11
REMARK    3  A    between atoms: C_11  and  C_12
REMARK    4  A    between atoms: C_12  and  C_13
REMARK                            x       y       z     vdW  Elec       q    Type
REMARK                         _______ _______ _______ _____ _____    ______ ____
ROOT
ATOM      1  O   UNL     1      -0.223  -2.769   0.000  0.00  0.00    -0.270 OA
ATOM      2  C   UNL     1      -0.223  -1.944   0.000  0.00  0.00    +0.249 C 
ATOM      3  N   UNL     1       0.492  -1.532   0.000  0.00  0.00    -0.276 N 
ATOM      4  C   UNL     1       0.492  -0.707   0.000  0.00  0.00    +0.094 C 
ATOM      5  C   UNL     1       1.206  -0.294   0.000  0.00  0.00    +0.022 C 
ATOM      6  C   UNL     1       1.921  -0.707   0.000  0.00  0.00    +0.012 C 
ATOM      7  C   UNL     1       2.566  -0.192   0.000  0.00  0.00    +0.085 C 
ATOM      8  C   UNL     1       3.370  -0.376   0.000  0.00  0.00    +0.226 C 
ATOM      9  O   UNL     1       3.884   0.269   0.000  0.00  0.00    -0.275 OA
ATOM     10  N   UNL     1       3.728  -1.119   0.000  0.00  0.00    -0.279 N 
ATOM     18  C   UNL     1       3.370  -1.862   0.000  0.00  0.00    +0.093 C 
ATOM     19  C   UNL     1       2.566  -2.046   0.000  0.00  0.00    +0.023 C 
ATOM     20  C   UNL     1       1.921  -1.532   0.000  0.00  0.00    +0.022 C 
ATOM     21  C   UNL     1       1.206  -1.944   0.000  0.00  0.00    +0.094 C 
ENDROOT
BRANCH   2  22
ATOM     22  C   UNL     1      -0.937  -1.532   0.000  0.00  0.00    +0.054 A 
ATOM     23  C   UNL     1      -1.652  -1.944   0.000  0.00  0.00    +0.005 A 
ATOM     24  C   UNL     1      -2.366  -1.532   0.000  0.00  0.00    +0.000 A 
ATOM     25  C   UNL     1      -2.366  -0.707   0.000  0.00  0.00    +0.000 A 
ATOM     26  C   UNL     1      -1.652  -0.294   0.000  0.00  0.00    +0.000 A 
ATOM     27  C   UNL     1      -0.937  -0.707   0.000  0.00  0.00    +0.005 A 
ENDBRANCH   2  22
BRANCH  10  11
ATOM     11  C   UNL     1       4.553  -1.119   0.000  0.00  0.00    +0.100 C 
BRANCH  11  12
ATOM     12  C   UNL     1       4.965  -0.405   0.000  0.00  0.00    +0.069 C 
BRANCH  12  13
ATOM     13  C   UNL     1       5.790  -0.405   0.000  0.00  0.00    +0.082 A 
ATOM     14  C   UNL     1       6.275   0.263   0.000  0.00  0.00    +0.115 A 
ATOM     15  N   UNL     1       7.060   0.008   0.000  0.00  0.00    -0.221 NA
ATOM     16  C   UNL     1       7.060  -0.817   0.000  0.00  0.00    +0.199 A 
ATOM     17  N   UNL     1       6.275  -1.072   0.000  0.00  0.00    -0.227 NA
ENDBRANCH  12  13
ENDBRANCH  11  12
ENDBRANCH  10  11
TORSDOF 4
