REMARK  Name = 
REMARK  8 active torsions:
REMARK  status: ('A' for Active; 'I' for Inactive)
REMARK    1  A    between atoms: N_2  and  C_3
REMARK    2  A    between atoms: N_2  and  C_26
REMARK    3  A    between atoms: C_3  and  C_4
REMARK    4  A    between atoms: C_11  and  C_12
REMARK    5  A    between atoms: C_12  and  N_13
REMARK    6  A    between atoms: C_14  and  C_16
REMARK    7  A    between atoms: C_19  and  C_22
REMARK    8  A    between atoms: C_26  and  C_27
REMARK                            x       y       z     vdW  Elec       q    Type
REMARK                         _______ _______ _______ _____ _____    ______ ____
ROOT
ATOM      4  C   UNL     1       1.661  -1.343   0.000  0.00  0.00    +0.032 C 
ATOM      5  C   UNL     1       1.814  -2.106   0.000  0.00  0.00    +0.073 C 
ATOM      6  N   UNL     1       1.065  -1.759   0.000  0.00  0.00    -0.272 NA
ATOM      7  C   UNL     1       1.205  -0.720   0.000  0.00  0.00    +0.072 C 
ATOM      8  C   UNL     1       0.961  -0.114   0.000  0.00  0.00    +0.017 C 
ATOM      9  C   UNL     1       0.923  -1.010   0.000  0.00  0.00    +0.005 C 
ATOM     10  C   UNL     1       0.119  -1.362   0.000  0.00  0.00    +0.018 C 
ATOM     11  C   UNL     1       0.226  -2.118   0.000  0.00  0.00    +0.079 C 
ENDROOT
BRANCH   4   3
ATOM      3  C   UNL     1       2.307  -0.828   0.000  0.00  0.00    +0.074 C 
BRANCH   3   2
ATOM      1  C   UNL     1       3.197  -1.946   0.000  0.00  0.00    +0.090 C 
ATOM      2  N   UNL     1       3.075  -1.130   0.000  0.00  0.00    -0.268 NA
BRANCH   2  26
ATOM     26  C   UNL     1       3.720  -0.616   0.000  0.00  0.00    +0.099 C 
BRANCH  26  27
ATOM     27  C   UNL     1       4.488  -0.918   0.000  0.00  0.00    -0.006 A 
ATOM     28  C   UNL     1       5.133  -0.404   0.000  0.00  0.00    -0.003 A 
ATOM     29  C   UNL     1       5.901  -0.706   0.000  0.00  0.00    -0.000 A 
ATOM     30  C   UNL     1       6.023  -1.522   0.000  0.00  0.00    -0.000 A 
ATOM     31  C   UNL     1       5.378  -2.036   0.000  0.00  0.00    -0.000 A 
ATOM     32  C   UNL     1       4.610  -1.734   0.000  0.00  0.00    -0.003 A 
ENDBRANCH  26  27
ENDBRANCH   2  26
ENDBRANCH   3   2
ENDBRANCH   4   3
BRANCH  11  12
ATOM     12  C   UNL     1      -0.179  -2.836   0.000  0.00  0.00    +0.131 C 
BRANCH  12  13
ATOM     13  N   UNL     1      -1.004  -2.845   0.000  0.00  0.00    -0.200 NA
ATOM     14  C   UNL     1      -1.408  -3.564   0.000  0.00  0.00    +0.265 C 
ATOM     15  O   UNL     1      -0.988  -4.274   0.000  0.00  0.00    -0.268 OA
BRANCH  14  16
ATOM     16  C   UNL     1      -2.233  -3.573   0.000  0.00  0.00    +0.055 A 
ATOM     17  C   UNL     1      -2.638  -4.292   0.000  0.00  0.00    +0.005 A 
ATOM     18  C   UNL     1      -3.463  -4.301   0.000  0.00  0.00    +0.004 A 
ATOM     19  C   UNL     1      -3.883  -3.591   0.000  0.00  0.00    +0.071 A 
ATOM     20  C   UNL     1      -3.478  -2.872   0.000  0.00  0.00    +0.004 A 
ATOM     21  C   UNL     1      -2.654  -2.863   0.000  0.00  0.00    +0.005 A 
BRANCH  19  22
ATOM     22  C   UNL     1      -4.708  -3.599   0.000  0.00  0.00    +0.419 C 
ATOM     23  F   UNL     1      -5.533  -3.608   0.000  0.00  0.00    -0.166 F 
ATOM     24  F   UNL     1      -4.699  -4.424   0.000  0.00  0.00    -0.166 F 
ATOM     25  F   UNL     1      -4.717  -2.775   0.000  0.00  0.00    -0.166 F 
ENDBRANCH  19  22
ENDBRANCH  14  16
ENDBRANCH  12  13
ENDBRANCH  11  12
TORSDOF 8
