REMARK  Name = 
REMARK  8 active torsions:
REMARK  status: ('A' for Active; 'I' for Inactive)
REMARK    1  A    between atoms: C_2  and  O_17
REMARK    2  A    between atoms: N_3  and  C_4
REMARK    3  A    between atoms: C_7  and  O_8
REMARK    4  A    between atoms: O_8  and  C_9
REMARK    5  A    between atoms: O_17  and  C_18
REMARK    6  A    between atoms: C_22  and  N_26
REMARK    7  A    between atoms: C_30  and  S_31
REMARK    8  A    between atoms: S_31  and  C_32
REMARK                            x       y       z     vdW  Elec       q    Type
REMARK                         _______ _______ _______ _____ _____    ______ ____
ROOT
ATOM     18  C   UNL     1       1.270  -0.922   0.000  0.00  0.00    +0.229 C 
ATOM     19  C   UNL     1       0.785  -0.255   0.000  0.00  0.00    +0.188 C 
ATOM     20  O   UNL     1       1.270   0.412   0.000  0.00  0.00    -0.348 OA
ATOM     21  C   UNL     1       2.054   0.158   0.000  0.00  0.00    +0.171 C 
ATOM     22  C   UNL     1       2.839   0.412   0.000  0.00  0.00    +0.168 C 
ATOM     23  C   UNL     1       3.324  -0.255   0.000  0.00  0.00    +0.169 C 
ATOM     24  O   UNL     1       2.839  -0.922   0.000  0.00  0.00    -0.348 OA
ATOM     25  C   UNL     1       2.054  -0.667   0.000  0.00  0.00    +0.187 C 
ENDROOT
BRANCH  22  26
ATOM     26  N   UNL     1       3.094   1.197   0.000  0.00  0.00    -0.205 N 
ATOM     27  N   UNL     1       2.609   1.865   0.000  0.00  0.00    -0.042 NA
ATOM     28  N   UNL     1       3.094   2.532   0.000  0.00  0.00    -0.022 NA
ATOM     29  N   UNL     1       3.878   2.277   0.000  0.00  0.00    -0.101 NA
ATOM     30  C   UNL     1       3.878   1.452   0.000  0.00  0.00    +0.211 A 
BRANCH  30  31
ATOM     31  S   UNL     1       4.546   0.967   0.000  0.00  0.00    -0.075 S 
BRANCH  31  32
ATOM     32  C   UNL     1       5.300   1.303   0.000  0.00  0.00    +0.055 C 
ATOM     33  C   UNL     1       5.471   2.110   0.000  0.00  0.00    +0.011 C 
ATOM     34  C   UNL     1       6.292   2.196   0.000  0.00  0.00    +0.001 C 
ATOM     35  C   UNL     1       6.627   1.442   0.000  0.00  0.00    +0.001 C 
ATOM     36  C   UNL     1       6.014   0.890   0.000  0.00  0.00    +0.011 C 
ENDBRANCH  31  32
ENDBRANCH  30  31
ENDBRANCH  22  26
BRANCH  18  17
ATOM     17  O   UNL     1       1.015  -1.707   0.000  0.00  0.00    -0.432 OA
BRANCH  17   2
ATOM      1  O   UNL     1      -0.344  -1.265   0.000  0.00  0.00    -0.224 OA
ATOM      2  C   UNL     1       0.208  -1.879   0.000  0.00  0.00    +0.425 C 
ATOM      3  N   UNL     1      -0.047  -2.663   0.000  0.00  0.00    -0.142 NA
BRANCH   3   4
ATOM      4  C   UNL     1      -0.854  -2.835   0.000  0.00  0.00    +0.077 A 
ATOM      5  C   UNL     1      -1.109  -3.619   0.000  0.00  0.00    +0.020 A 
ATOM      6  C   UNL     1      -1.916  -3.791   0.000  0.00  0.00    +0.039 A 
ATOM      7  C   UNL     1      -2.468  -3.178   0.000  0.00  0.00    +0.145 A 
ATOM     15  C   UNL     1      -2.213  -2.393   0.000  0.00  0.00    +0.039 A 
ATOM     16  C   UNL     1      -1.406  -2.222   0.000  0.00  0.00    +0.020 A 
BRANCH   7   8
ATOM      8  O   UNL     1      -3.275  -3.349   0.000  0.00  0.00    -0.453 OA
BRANCH   8   9
ATOM      9  C   UNL     1      -3.827  -2.736   0.000  0.00  0.00    +0.145 A 
ATOM     10  C   UNL     1      -4.634  -2.908   0.000  0.00  0.00    +0.037 A 
ATOM     11  C   UNL     1      -5.186  -2.295   0.000  0.00  0.00    +0.003 A 
ATOM     12  C   UNL     1      -4.931  -1.510   0.000  0.00  0.00    +0.000 A 
ATOM     13  C   UNL     1      -4.124  -1.338   0.000  0.00  0.00    +0.003 A 
ATOM     14  C   UNL     1      -3.572  -1.952   0.000  0.00  0.00    +0.037 A 
ENDBRANCH   8   9
ENDBRANCH   7   8
ENDBRANCH   3   4
ENDBRANCH  17   2
ENDBRANCH  18  17
TORSDOF 8
