REMARK  Name = 
REMARK  7 active torsions:
REMARK  status: ('A' for Active; 'I' for Inactive)
REMARK    1  A    between atoms: C_2  and  C_4
REMARK    2  A    between atoms: C_6  and  C_7
REMARK    3  A    between atoms: C_7  and  C_8
REMARK    4  A    between atoms: C_11  and  C_13
REMARK    5  A    between atoms: C_20  and  C_21
REMARK    6  A    between atoms: C_21  and  N_22
REMARK    7  A    between atoms: N_22  and  C_23
REMARK                            x       y       z     vdW  Elec       q    Type
REMARK                         _______ _______ _______ _____ _____    ______ ____
ROOT
ATOM      4  C   UNL     1      -1.322  -2.537   0.000  0.00  0.00    +0.006 C 
ATOM      5  C   UNL     1      -0.608  -2.949   0.000  0.00  0.00    +0.005 C 
ATOM      6  C   UNL     1      -0.608  -3.774   0.000  0.00  0.00    +0.027 C 
ATOM     17  C   UNL     1      -1.322  -4.187   0.000  0.00  0.00    -0.048 C 
ATOM     18  C   UNL     1      -1.322  -5.012   0.000  0.00  0.00    +0.026 C 
ATOM     19  C   UNL     1      -2.037  -3.774   0.000  0.00  0.00    -0.033 C 
ATOM     20  C   UNL     1      -2.037  -2.949   0.000  0.00  0.00    +0.043 C 
ENDROOT
BRANCH   4   2
ATOM      1  C   UNL     1      -2.037  -1.299   0.000  0.00  0.00    +0.000 C 
ATOM      2  C   UNL     1      -1.322  -1.712   0.000  0.00  0.00    +0.000 C 
ATOM      3  C   UNL     1      -0.608  -1.299   0.000  0.00  0.00    +0.000 C 
ENDBRANCH   4   2
BRANCH   6   7
ATOM      7  C   UNL     1       0.107  -4.187   0.000  0.00  0.00    +0.091 C 
BRANCH   7   8
ATOM      8  C   UNL     1       0.107  -5.012   0.000  0.00  0.00    +0.226 A 
ATOM      9  N   UNL     1       0.774  -5.497   0.000  0.00  0.00    -0.112 NA
ATOM     10  N   UNL     1       0.519  -6.281   0.000  0.00  0.00    -0.112 NA
ATOM     11  C   UNL     1      -0.306  -6.281   0.000  0.00  0.00    +0.225 A 
ATOM     12  O   UNL     1      -0.561  -5.497   0.000  0.00  0.00    -0.423 OA
BRANCH  11  13
ATOM     13  C   UNL     1      -0.791  -6.949   0.000  0.00  0.00    +0.070 C 
ATOM     14  C   UNL     1      -1.276  -7.616   0.000  0.00  0.00    +0.009 C 
ATOM     15  C   UNL     1      -0.123  -7.434   0.000  0.00  0.00    +0.009 C 
ATOM     16  C   UNL     1      -1.458  -6.464   0.000  0.00  0.00    +0.009 C 
ENDBRANCH  11  13
ENDBRANCH   7   8
ENDBRANCH   6   7
BRANCH  20  21
ATOM     21  C   UNL     1      -2.751  -2.537   0.000  0.00  0.00    +0.117 C 
BRANCH  21  22
ATOM     22  N   UNL     1      -3.466  -2.949   0.000  0.00  0.00    -0.236 NA
BRANCH  22  23
ATOM     23  C   UNL     1      -4.180  -2.537   0.000  0.00  0.00    +0.084 A 
ATOM     24  C   UNL     1      -4.895  -2.949   0.000  0.00  0.00    +0.115 A 
ATOM     25  N   UNL     1      -5.609  -2.537   0.000  0.00  0.00    -0.241 NA
ATOM     26  C   UNL     1      -5.609  -1.712   0.000  0.00  0.00    +0.099 A 
ATOM     27  C   UNL     1      -4.895  -1.299   0.000  0.00  0.00    +0.022 A 
ATOM     28  C   UNL     1      -4.180  -1.712   0.000  0.00  0.00    +0.019 A 
ENDBRANCH  22  23
ENDBRANCH  21  22
ENDBRANCH  20  21
TORSDOF 7
