REMARK  Name = 
REMARK  3 active torsions:
REMARK  status: ('A' for Active; 'I' for Inactive)
REMARK    1  A    between atoms: C_2  and  C_3
REMARK    2  A    between atoms: C_3  and  N_4
REMARK    3  A    between atoms: N_7  and  C_8
REMARK                            x       y       z     vdW  Elec       q    Type
REMARK                         _______ _______ _______ _____ _____    ______ ____
ROOT
ATOM      8  C   UNL     1       2.163  -5.133   0.000  0.00  0.00    +0.119 C 
ATOM      9  C   UNL     1       2.249  -5.954   0.000  0.00  0.00    +0.053 C 
ATOM     10  C   UNL     1       3.056  -6.125   0.000  0.00  0.00    +0.156 C 
ATOM     11  N   UNL     1       3.469  -5.411   0.000  0.00  0.00    -0.268 N 
ATOM     12  C   UNL     1       2.917  -4.798   0.000  0.00  0.00    +0.116 C 
ATOM     13  C   UNL     1       4.285  -5.288   0.000  0.00  0.00    +0.251 C 
ATOM     14  O   UNL     1       4.528  -4.500   0.000  0.00  0.00    -0.270 OA
ATOM     15  C   UNL     1       4.889  -5.849   0.000  0.00  0.00    +0.069 A 
ATOM     16  C   UNL     1       5.633  -5.491   0.000  0.00  0.00    +0.006 A 
ATOM     17  C   UNL     1       6.314  -5.956   0.000  0.00  0.00    +0.000 A 
ATOM     18  C   UNL     1       6.253  -6.778   0.000  0.00  0.00    +0.001 A 
ATOM     19  C   UNL     1       5.509  -7.136   0.000  0.00  0.00    +0.017 A 
ATOM     20  C   UNL     1       4.828  -6.672   0.000  0.00  0.00    +0.078 A 
ATOM     21  N   UNL     1       4.146  -7.136   0.000  0.00  0.00    -0.178 NA
ATOM     22  C   UNL     1       3.358  -6.893   0.000  0.00  0.00    +0.264 C 
ATOM     23  O   UNL     1       2.796  -7.498   0.000  0.00  0.00    -0.271 OA
ENDROOT
BRANCH   8   7
ATOM      4  N   UNL     1       0.020  -4.721   0.000  0.00  0.00    -0.182 NA
ATOM      5  C   UNL     1       0.734  -5.133   0.000  0.00  0.00    +0.340 C 
ATOM      6  O   UNL     1       0.734  -5.958   0.000  0.00  0.00    -0.249 OA
ATOM      7  N   UNL     1       1.448  -4.721   0.000  0.00  0.00    -0.187 NA
BRANCH   4   3
ATOM      3  C   UNL     1      -0.695  -5.133   0.000  0.00  0.00    +0.143 C 
BRANCH   3   2
ATOM      1  C   UNL     1      -2.124  -5.133   0.000  0.00  0.00    -0.003 C 
ATOM      2  C   UNL     1      -1.409  -4.721   0.000  0.00  0.00    -0.003 C 
ENDBRANCH   3   2
ENDBRANCH   4   3
ENDBRANCH   8   7
TORSDOF 3
