REMARK  Name = 
REMARK  6 active torsions:
REMARK  status: ('A' for Active; 'I' for Inactive)
REMARK    1  A    between atoms: C_2  and  O_14
REMARK    2  A    between atoms: N_3  and  C_4
REMARK    3  A    between atoms: O_14  and  C_15
REMARK    4  A    between atoms: C_19  and  N_23
REMARK    5  A    between atoms: N_23  and  C_24
REMARK    6  A    between atoms: C_24  and  C_25
REMARK                            x       y       z     vdW  Elec       q    Type
REMARK                         _______ _______ _______ _____ _____    ______ ____
ROOT
ATOM     15  C   UNL     1       3.356   2.097   0.000  0.00  0.00    +0.229 C 
ATOM     16  C   UNL     1       2.871   2.764   0.000  0.00  0.00    +0.188 C 
ATOM     17  O   UNL     1       3.356   3.432   0.000  0.00  0.00    -0.348 OA
ATOM     18  C   UNL     1       4.140   3.177   0.000  0.00  0.00    +0.164 C 
ATOM     19  C   UNL     1       4.925   3.432   0.000  0.00  0.00    +0.132 C 
ATOM     20  C   UNL     1       5.410   2.764   0.000  0.00  0.00    +0.162 C 
ATOM     21  O   UNL     1       4.925   2.097   0.000  0.00  0.00    -0.348 OA
ATOM     22  C   UNL     1       4.140   2.352   0.000  0.00  0.00    +0.186 C 
ENDROOT
BRANCH  15  14
ATOM     14  O   UNL     1       3.101   1.312   0.000  0.00  0.00    -0.432 OA
BRANCH  14   2
ATOM      1  O   UNL     1       1.742   1.754   0.000  0.00  0.00    -0.224 OA
ATOM      2  C   UNL     1       2.294   1.141   0.000  0.00  0.00    +0.425 C 
ATOM      3  N   UNL     1       2.039   0.356   0.000  0.00  0.00    -0.142 NA
BRANCH   3   4
ATOM      4  C   UNL     1       1.232   0.185   0.000  0.00  0.00    +0.077 A 
ATOM      5  C   UNL     1       0.977  -0.600   0.000  0.00  0.00    +0.017 A 
ATOM      6  C   UNL     1       0.170  -0.772   0.000  0.00  0.00    +0.001 A 
ATOM      7  C   UNL     1      -0.382  -0.159   0.000  0.00  0.00    +0.000 A 
ATOM      8  C   UNL     1      -0.127   0.626   0.000  0.00  0.00    +0.001 A 
ATOM      9  C   UNL     1      -0.679   1.239   0.000  0.00  0.00    +0.000 A 
ATOM     10  C   UNL     1      -0.424   2.024   0.000  0.00  0.00    +0.000 A 
ATOM     11  C   UNL     1       0.383   2.195   0.000  0.00  0.00    +0.000 A 
ATOM     12  C   UNL     1       0.935   1.582   0.000  0.00  0.00    +0.001 A 
ATOM     13  C   UNL     1       0.680   0.798   0.000  0.00  0.00    +0.015 A 
ENDBRANCH   3   4
ENDBRANCH  14   2
ENDBRANCH  15  14
BRANCH  19  23
ATOM     23  N   UNL     1       5.180   4.216   0.000  0.00  0.00    -0.206 NA
BRANCH  23  24
ATOM     24  C   UNL     1       4.628   4.829   0.000  0.00  0.00    +0.153 C 
BRANCH  24  25
ATOM     25  C   UNL     1       4.883   5.614   0.000  0.00  0.00    +0.141 A 
ATOM     26  C   UNL     1       4.398   6.282   0.000  0.00  0.00    +0.038 A 
ATOM     27  C   UNL     1       4.883   6.949   0.000  0.00  0.00    +0.043 A 
ATOM     28  C   UNL     1       5.667   6.694   0.000  0.00  0.00    +0.179 A 
ATOM     29  O   UNL     1       5.667   5.869   0.000  0.00  0.00    -0.453 OA
ENDBRANCH  24  25
ENDBRANCH  23  24
ENDBRANCH  19  23
TORSDOF 6
