REMARK  Name = 
REMARK  7 active torsions:
REMARK  status: ('A' for Active; 'I' for Inactive)
REMARK    1  A    between atoms: O_2  and  C_3
REMARK    2  A    between atoms: C_8  and  N_9
REMARK    3  A    between atoms: C_15  and  C_17
REMARK    4  A    between atoms: C_17  and  C_18
REMARK    5  A    between atoms: C_20  and  C_21
REMARK    6  A    between atoms: C_21  and  N_22
REMARK    7  A    between atoms: N_25  and  C_26
REMARK                            x       y       z     vdW  Elec       q    Type
REMARK                         _______ _______ _______ _____ _____    ______ ____
ROOT
ATOM      9  N   UNL     1      -4.668   9.742   0.000  0.00  0.00    -0.302 N 
ATOM     10  C   UNL     1      -3.847   9.656   0.000  0.00  0.00    +0.112 C 
ATOM     11  C   UNL     1      -3.512   8.902   0.000  0.00  0.00    +0.115 C 
ATOM     12  N   UNL     1      -3.997   8.235   0.000  0.00  0.00    -0.276 N 
ATOM     13  C   UNL     1      -4.817   8.321   0.000  0.00  0.00    +0.115 C 
ATOM     14  C   UNL     1      -5.153   9.075   0.000  0.00  0.00    +0.112 C 
ATOM     15  C   UNL     1      -3.661   7.481   0.000  0.00  0.00    +0.228 C 
ATOM     16  O   UNL     1      -4.146   6.814   0.000  0.00  0.00    -0.275 OA
ENDROOT
BRANCH   9   8
ATOM      3  C   UNL     1      -5.824  10.582   0.000  0.00  0.00    +0.152 A 
ATOM      4  C   UNL     1      -6.159  11.336   0.000  0.00  0.00    +0.038 A 
ATOM      5  C   UNL     1      -5.675  12.004   0.000  0.00  0.00    +0.003 A 
ATOM      6  C   UNL     1      -4.854  11.917   0.000  0.00  0.00    +0.001 A 
ATOM      7  C   UNL     1      -4.518  11.164   0.000  0.00  0.00    +0.018 A 
ATOM      8  C   UNL     1      -5.003  10.496   0.000  0.00  0.00    +0.082 A 
BRANCH   3   2
ATOM      1  C   UNL     1      -7.129  10.001   0.000  0.00  0.00    +0.253 C 
ATOM      2  O   UNL     1      -6.309   9.915   0.000  0.00  0.00    -0.470 OA
ENDBRANCH   3   2
ENDBRANCH   9   8
BRANCH  15  17
ATOM     17  C   UNL     1      -2.841   7.395   0.000  0.00  0.00    +0.117 C 
BRANCH  17  18
ATOM     18  C   UNL     1      -2.505   6.641   0.000  0.00  0.00    +0.157 C 
ATOM     19  O   UNL     1      -1.698   6.470   0.000  0.00  0.00    -0.351 OA
ATOM     20  C   UNL     1      -1.612   5.649   0.000  0.00  0.00    +0.170 C 
ATOM     29  C   UNL     1      -2.366   5.314   0.000  0.00  0.00    +0.213 C 
ATOM     30  O   UNL     1      -2.537   4.507   0.000  0.00  0.00    -0.218 OA
ATOM     31  C   UNL     1      -2.918   5.927   0.000  0.00  0.00    +0.212 C 
ATOM     32  O   UNL     1      -3.738   5.841   0.000  0.00  0.00    -0.218 OA
BRANCH  20  21
ATOM     21  C   UNL     1      -0.897   5.237   0.000  0.00  0.00    +0.149 C 
BRANCH  21  22
ATOM     22  N   UNL     1      -0.183   5.649   0.000  0.00  0.00    -0.185 NA
ATOM     23  C   UNL     1       0.531   5.237   0.000  0.00  0.00    +0.339 C 
ATOM     24  O   UNL     1       0.531   4.412   0.000  0.00  0.00    -0.249 OA
ATOM     25  N   UNL     1       1.246   5.649   0.000  0.00  0.00    -0.189 NA
BRANCH  25  26
ATOM     26  C   UNL     1       1.960   5.237   0.000  0.00  0.00    +0.097 C 
ATOM     27  C   UNL     1       2.675   5.649   0.000  0.00  0.00    +0.023 C 
ATOM     28  C   UNL     1       1.960   4.412   0.000  0.00  0.00    +0.023 C 
ENDBRANCH  25  26
ENDBRANCH  21  22
ENDBRANCH  20  21
ENDBRANCH  17  18
ENDBRANCH  15  17
TORSDOF 7
