REMARK  Name = 
REMARK  7 active torsions:
REMARK  status: ('A' for Active; 'I' for Inactive)
REMARK    1  A    between atoms: O_2  and  C_3
REMARK    2  A    between atoms: C_6  and  C_9
REMARK    3  A    between atoms: C_16  and  C_17
REMARK    4  A    between atoms: N_19  and  C_20
REMARK    5  A    between atoms: C_27  and  C_29
REMARK    6  A    between atoms: C_29  and  S_30
REMARK    7  A    between atoms: S_30  and  C_33
REMARK                            x       y       z     vdW  Elec       q    Type
REMARK                         _______ _______ _______ _____ _____    ______ ____
ROOT
ATOM      9  C   UNL     1       0.000  -8.250   0.000  0.00  0.00    +0.249 C 
ATOM     10  O   UNL     1      -0.715  -8.662   0.000  0.00  0.00    -0.270 OA
ATOM     11  N   UNL     1       0.715  -8.662   0.000  0.00  0.00    -0.266 N 
ATOM     12  C   UNL     1       1.429  -8.250   0.000  0.00  0.00    +0.116 C 
ATOM     13  C   UNL     1       2.143  -8.662   0.000  0.00  0.00    +0.115 C 
ATOM     14  N   UNL     1       2.143  -9.488   0.000  0.00  0.00    -0.274 N 
ATOM     15  C   UNL     1       1.429  -9.900   0.000  0.00  0.00    +0.123 C 
ATOM     16  C   UNL     1       0.715  -9.488   0.000  0.00  0.00    +0.174 C 
ATOM     27  C   UNL     1       2.858  -9.900   0.000  0.00  0.00    +0.250 C 
ATOM     28  O   UNL     1       2.858 -10.725   0.000  0.00  0.00    -0.273 OA
ENDROOT
BRANCH   9   6
ATOM      3  C   UNL     1       0.000  -5.775   0.000  0.00  0.00    +0.139 A 
ATOM      4  C   UNL     1       0.715  -6.188   0.000  0.00  0.00    +0.037 A 
ATOM      5  C   UNL     1       0.715  -7.013   0.000  0.00  0.00    +0.008 A 
ATOM      6  C   UNL     1       0.000  -7.425   0.000  0.00  0.00    +0.054 A 
ATOM      7  C   UNL     1      -0.715  -7.013   0.000  0.00  0.00    +0.008 A 
ATOM      8  C   UNL     1      -0.715  -6.188   0.000  0.00  0.00    +0.037 A 
BRANCH   3   2
ATOM      1  C   UNL     1      -0.715  -4.537   0.000  0.00  0.00    +0.252 C 
ATOM      2  O   UNL     1       0.000  -4.950   0.000  0.00  0.00    -0.471 OA
ENDBRANCH   3   2
ENDBRANCH   9   6
BRANCH  16  17
ATOM     17  C   UNL     1       0.000  -9.900   0.000  0.00  0.00    +0.262 C 
ATOM     18  O   UNL     1      -0.715  -9.488   0.000  0.00  0.00    -0.271 OA
ATOM     19  N   UNL     1       0.000 -10.725   0.000  0.00  0.00    -0.196 NA
BRANCH  19  20
ATOM     20  C   UNL     1       0.715 -11.137   0.000  0.00  0.00    +0.173 C 
ATOM     21  C   UNL     1       1.429 -10.725   0.000  0.00  0.00    +0.033 C 
ATOM     22  C   UNL     1       2.143 -11.137   0.000  0.00  0.00    +0.026 C 
ATOM     23  C   UNL     1       2.143 -11.963   0.000  0.00  0.00    +0.115 C 
ATOM     24  N   UNL     1       1.429 -12.375   0.000  0.00  0.00    -0.204 NA
ATOM     25  C   UNL     1       0.715 -11.963   0.000  0.00  0.00    +0.261 C 
ATOM     26  O   UNL     1       0.000 -12.375   0.000  0.00  0.00    -0.271 OA
ENDBRANCH  19  20
ENDBRANCH  16  17
BRANCH  27  29
ATOM     29  C   UNL     1       3.572  -9.488   0.000  0.00  0.00    +0.240 C 
BRANCH  29  30
ATOM     30  S   UNL     1       4.287  -9.900   0.000  0.00  0.00    +0.018 S 
ATOM     31  O   UNL     1       3.874 -10.614   0.000  0.00  0.00    -0.168 OA
ATOM     32  O   UNL     1       4.699  -9.185   0.000  0.00  0.00    -0.168 OA
BRANCH  30  33
ATOM     33  C   UNL     1       5.001 -10.312   0.000  0.00  0.00    +0.106 A 
ATOM     34  C   UNL     1       5.716  -9.900   0.000  0.00  0.00    +0.018 A 
ATOM     35  C   UNL     1       6.430 -10.312   0.000  0.00  0.00    +0.001 A 
ATOM     36  C   UNL     1       6.430 -11.137   0.000  0.00  0.00    +0.000 A 
ATOM     37  C   UNL     1       5.716 -11.550   0.000  0.00  0.00    +0.001 A 
ATOM     38  C   UNL     1       5.001 -11.137   0.000  0.00  0.00    +0.018 A 
ENDBRANCH  30  33
ENDBRANCH  29  30
ENDBRANCH  27  29
TORSDOF 7
