REMARK  Name = 
REMARK  6 active torsions:
REMARK  status: ('A' for Active; 'I' for Inactive)
REMARK    1  A    between atoms: N_2  and  C_4
REMARK    2  A    between atoms: C_7  and  C_10
REMARK    3  A    between atoms: N_12  and  C_13
REMARK    4  A    between atoms: C_13  and  C_14
REMARK    5  A    between atoms: C_21  and  C_22
REMARK    6  A    between atoms: C_24  and  C_29
REMARK                            x       y       z     vdW  Elec       q    Type
REMARK                         _______ _______ _______ _____ _____    ______ ____
ROOT
ATOM     14  C   UNL     1       1.814  -2.106   0.000  0.00  0.00    +0.079 C 
ATOM     15  C   UNL     1       1.661  -1.343   0.000  0.00  0.00    +0.018 C 
ATOM     16  C   UNL     1       0.923  -1.010   0.000  0.00  0.00    +0.010 C 
ATOM     17  C   UNL     1       0.961  -0.114   0.000  0.00  0.00    +0.018 C 
ATOM     18  C   UNL     1       1.205  -0.720   0.000  0.00  0.00    +0.072 C 
ATOM     19  N   UNL     1       1.065  -1.759   0.000  0.00  0.00    -0.272 NA
ATOM     20  C   UNL     1       0.226  -2.118   0.000  0.00  0.00    +0.078 C 
ATOM     21  C   UNL     1       0.119  -1.362   0.000  0.00  0.00    +0.056 C 
ENDROOT
BRANCH  21  22
ATOM     22  C   UNL     1      -0.602  -0.960   0.000  0.00  0.00    +0.063 A 
ATOM     23  C   UNL     1      -1.310  -1.384   0.000  0.00  0.00    +0.034 A 
ATOM     24  C   UNL     1      -2.030  -0.982   0.000  0.00  0.00    +0.084 A 
ATOM     25  N   UNL     1      -2.043  -0.157   0.000  0.00  0.00    -0.231 NA
ATOM     26  C   UNL     1      -1.335   0.266   0.000  0.00  0.00    +0.139 A 
ATOM     27  C   UNL     1      -1.347   1.091   0.000  0.00  0.00    +0.074 C 
ATOM     28  N   UNL     1      -0.614  -0.136   0.000  0.00  0.00    -0.235 NA
BRANCH  24  29
ATOM     29  C   UNL     1      -2.739  -1.405   0.000  0.00  0.00    +0.024 A 
ATOM     30  C   UNL     1      -2.726  -2.230   0.000  0.00  0.00    +0.036 A 
ATOM     31 BR   UNL     1      -2.006  -2.632   0.000  0.00  0.00    -0.049 Br
ATOM     32  C   UNL     1      -3.434  -2.653   0.000  0.00  0.00    +0.007 A 
ATOM     33  C   UNL     1      -4.155  -2.251   0.000  0.00  0.00    +0.001 A 
ATOM     34  C   UNL     1      -4.167  -1.427   0.000  0.00  0.00    +0.000 A 
ATOM     35  C   UNL     1      -3.459  -1.003   0.000  0.00  0.00    +0.002 A 
ENDBRANCH  24  29
ENDBRANCH  21  22
BRANCH  14  13
ATOM     13  C   UNL     1       2.324  -2.754   0.000  0.00  0.00    +0.131 C 
BRANCH  13  12
ATOM     10  C   UNL     1       2.529  -4.168   0.000  0.00  0.00    +0.265 C 
ATOM     11  O   UNL     1       3.345  -4.050   0.000  0.00  0.00    -0.268 OA
ATOM     12  N   UNL     1       2.018  -3.520   0.000  0.00  0.00    -0.200 NA
BRANCH  10   7
ATOM      4  C   UNL     1       1.611  -6.466   0.000  0.00  0.00    +0.048 A 
ATOM      5  C   UNL     1       1.100  -5.818   0.000  0.00  0.00    +0.015 A 
ATOM      6  C   UNL     1       1.406  -5.052   0.000  0.00  0.00    +0.006 A 
ATOM      7  C   UNL     1       2.223  -4.934   0.000  0.00  0.00    +0.055 A 
ATOM      8  C   UNL     1       2.733  -5.582   0.000  0.00  0.00    +0.006 A 
ATOM      9  C   UNL     1       2.427  -6.348   0.000  0.00  0.00    +0.015 A 
BRANCH   4   2
ATOM      1  C   UNL     1       1.815  -7.880   0.000  0.00  0.00    +0.112 C 
ATOM      2  N   UNL     1       1.304  -7.232   0.000  0.00  0.00    -0.304 N 
ATOM      3  C   UNL     1       0.488  -7.350   0.000  0.00  0.00    +0.112 C 
ENDBRANCH   4   2
ENDBRANCH  10   7
ENDBRANCH  13  12
ENDBRANCH  14  13
TORSDOF 6
