REMARK  Name = 
REMARK  2 active torsions:
REMARK  status: ('A' for Active; 'I' for Inactive)
REMARK    1  A    between atoms: N_4  and  C_14
REMARK    2  A    between atoms: C_7  and  C_8
REMARK                            x       y       z     vdW  Elec       q    Type
REMARK                         _______ _______ _______ _____ _____    ______ ____
ROOT
ATOM      1  C   UNL     1       0.715  -0.412   0.000  0.00  0.00    +0.054 C 
ATOM      2  C   UNL     1       0.715  -1.238   0.000  0.00  0.00    +0.077 A 
ATOM      3  N   UNL     1       1.382  -1.722   0.000  0.00  0.00    -0.170 NA
ATOM      4  N   UNL     1       1.127  -2.507   0.000  0.00  0.00    -0.234 N 
ATOM      5  C   UNL     1       0.302  -2.507   0.000  0.00  0.00    +0.058 A 
ATOM      6  C   UNL     1      -0.183  -3.175   0.000  0.00  0.00    +0.052 C 
ATOM      7  C   UNL     1       0.047  -1.722   0.000  0.00  0.00    +0.010 A 
ENDROOT
BRANCH   4  14
ATOM     14  C   UNL     1       1.612  -3.175   0.000  0.00  0.00    +0.083 A 
ATOM     15  C   UNL     1       2.432  -3.088   0.000  0.00  0.00    +0.019 A 
ATOM     16  C   UNL     1       2.917  -3.756   0.000  0.00  0.00    -0.002 A 
ATOM     17  C   UNL     1       2.582  -4.509   0.000  0.00  0.00    -0.011 A 
ATOM     18  C   UNL     1       3.067  -5.177   0.000  0.00  0.00    +0.032 C 
ATOM     19  C   UNL     1       1.761  -4.596   0.000  0.00  0.00    +0.055 A 
ATOM     20 CL   UNL     1       1.426  -5.349   0.000  0.00  0.00    -0.083 Cl
ATOM     21  C   UNL     1       1.276  -3.928   0.000  0.00  0.00    +0.030 A 
ENDBRANCH   4  14
BRANCH   7   8
ATOM      8  C   UNL     1      -0.738  -1.468   0.000  0.00  0.00    +0.048 C 
ATOM      9  C   UNL     1      -1.405  -1.952   0.000  0.00  0.00    +0.032 C 
ATOM     10  C   UNL     1      -2.072  -1.468   0.000  0.00  0.00    +0.114 C 
ATOM     11  N   UNL     1      -2.857  -1.722   0.000  0.00  0.00    -0.128 NA
ATOM     12  C   UNL     1      -1.817  -0.683   0.000  0.00  0.00    -0.012 C 
ATOM     13  C   UNL     1      -0.993  -0.683   0.000  0.00  0.00    -0.025 C 
ENDBRANCH   7   8
TORSDOF 2
