REMARK  Name = 
REMARK  4 active torsions:
REMARK  status: ('A' for Active; 'I' for Inactive)
REMARK    1  A    between atoms: C_2  and  C_3
REMARK    2  A    between atoms: C_2  and  C_10
REMARK    3  A    between atoms: C_13  and  N_14
REMARK    4  A    between atoms: C_15  and  C_17
REMARK                            x       y       z     vdW  Elec       q    Type
REMARK                         _______ _______ _______ _____ _____    ______ ____
ROOT
ATOM     10  C   UNL     1      -0.715   8.416   0.000  0.00  0.00    +0.010 A 
ATOM     11  C   UNL     1       0.000   8.004   0.000  0.00  0.00    -0.000 A 
ATOM     12  C   UNL     1       0.000   7.179   0.000  0.00  0.00    +0.016 A 
ATOM     13  C   UNL     1      -0.715   6.766   0.000  0.00  0.00    +0.073 A 
ATOM     22  C   UNL     1      -1.429   7.179   0.000  0.00  0.00    +0.016 A 
ATOM     23  C   UNL     1      -1.429   8.004   0.000  0.00  0.00    -0.000 A 
ENDROOT
BRANCH  13  14
ATOM     14  N   UNL     1      -0.715   5.941   0.000  0.00  0.00    -0.179 NA
ATOM     15  C   UNL     1       0.000   5.529   0.000  0.00  0.00    +0.245 C 
ATOM     16  O   UNL     1       0.715   5.941   0.000  0.00  0.00    -0.273 OA
BRANCH  15  17
ATOM     17  C   UNL     1       0.000   4.704   0.000  0.00  0.00    +0.079 C 
ATOM     18  C   UNL     1       0.667   4.219   0.000  0.00  0.00    +0.009 C 
ATOM     19  C   UNL     1       0.412   3.434   0.000  0.00  0.00    +0.001 C 
ATOM     20  C   UNL     1      -0.412   3.434   0.000  0.00  0.00    +0.001 C 
ATOM     21  C   UNL     1      -0.667   4.219   0.000  0.00  0.00    +0.009 C 
ENDBRANCH  15  17
ENDBRANCH  13  14
BRANCH  10   2
ATOM      1  O   UNL     1       0.000   9.654   0.000  0.00  0.00    -0.216 OA
ATOM      2  C   UNL     1      -0.715   9.241   0.000  0.00  0.00    +0.197 C 
BRANCH   2   3
ATOM      3  C   UNL     1      -1.429   9.654   0.000  0.00  0.00    +0.159 C 
ATOM      4  C   UNL     1      -2.143   9.241   0.000  0.00  0.00    +0.167 C 
ATOM      5  O   UNL     1      -2.858   9.654   0.000  0.00  0.00    -0.342 OA
ATOM      6  C   UNL     1      -2.858  10.479   0.000  0.00  0.00    +0.229 C 
ATOM      7  C   UNL     1      -2.143  10.891   0.000  0.00  0.00    +0.272 C 
ATOM      8  O   UNL     1      -2.143  11.716   0.000  0.00  0.00    -0.271 OA
ATOM      9  N   UNL     1      -1.429  10.479   0.000  0.00  0.00    -0.199 NA
ENDBRANCH   2   3
ENDBRANCH  10   2
TORSDOF 4
