REMARK  Name = 
REMARK  9 active torsions:
REMARK  status: ('A' for Active; 'I' for Inactive)
REMARK    1  A    between atoms: O_2  and  C_3
REMARK    2  A    between atoms: C_3  and  C_5
REMARK    3  A    between atoms: C_5  and  C_6
REMARK    4  A    between atoms: C_5  and  N_13
REMARK    5  A    between atoms: C_6  and  C_7
REMARK    6  A    between atoms: C_14  and  C_16
REMARK    7  A    between atoms: N_21  and  S_22
REMARK    8  A    between atoms: S_22  and  C_25
REMARK    9  A    between atoms: N_33  and  C_34
REMARK                            x       y       z     vdW  Elec       q    Type
REMARK                         _______ _______ _______ _____ _____    ______ ____
ROOT
ATOM     16  C   UNL     1       5.001  -1.238   0.000  0.00  0.00    +0.177 C 
ATOM     17  C   UNL     1       5.716  -0.825   0.000  0.00  0.00    +0.122 C 
ATOM     18  N   UNL     1       6.430  -1.238   0.000  0.00  0.00    -0.259 N 
ATOM     19  C   UNL     1       6.430  -2.062   0.000  0.00  0.00    +0.114 C 
ATOM     20  C   UNL     1       5.716  -2.475   0.000  0.00  0.00    +0.118 C 
ATOM     21  N   UNL     1       5.001  -2.062   0.000  0.00  0.00    -0.145 NA
ATOM     31  C   UNL     1       7.145  -0.825   0.000  0.00  0.00    +0.323 C 
ATOM     32  O   UNL     1       7.859  -1.238   0.000  0.00  0.00    -0.251 OA
ATOM     33  N   UNL     1       7.145   0.000   0.000  0.00  0.00    -0.190 NA
ENDROOT
BRANCH  16  14
ATOM     13  N   UNL     1       4.287   0.000   0.000  0.00  0.00    -0.194 NA
ATOM     14  C   UNL     1       4.287  -0.825   0.000  0.00  0.00    +0.260 C 
ATOM     15  O   UNL     1       3.572  -1.238   0.000  0.00  0.00    -0.272 OA
BRANCH  13   5
ATOM      5  C   UNL     1       3.572   0.412   0.000  0.00  0.00    +0.198 C 
BRANCH   5   3
ATOM      3  C   UNL     1       2.858   0.000   0.000  0.00  0.00    +0.337 C 
ATOM      4  O   UNL     1       2.143   0.412   0.000  0.00  0.00    -0.248 OA
BRANCH   3   2
ATOM      1  C   UNL     1       2.143  -1.238   0.000  0.00  0.00    +0.256 C 
ATOM      2  O   UNL     1       2.858  -0.825   0.000  0.00  0.00    -0.443 OA
ENDBRANCH   3   2
ENDBRANCH   5   3
BRANCH   5   6
ATOM      6  C   UNL     1       3.572   1.238   0.000  0.00  0.00    +0.061 C 
BRANCH   6   7
ATOM      7  C   UNL     1       2.858   1.650   0.000  0.00  0.00    -0.001 A 
ATOM      8  C   UNL     1       2.143   1.238   0.000  0.00  0.00    -0.001 A 
ATOM      9  C   UNL     1       1.429   1.650   0.000  0.00  0.00    +0.020 A 
ATOM     10  C   UNL     1       1.429   2.475   0.000  0.00  0.00    +0.099 A 
ATOM     11  N   UNL     1       2.143   2.888   0.000  0.00  0.00    -0.243 NA
ATOM     12  C   UNL     1       2.858   2.475   0.000  0.00  0.00    +0.095 A 
ENDBRANCH   6   7
ENDBRANCH   5   6
ENDBRANCH  13   5
ENDBRANCH  16  14
BRANCH  21  22
ATOM     22  S   UNL     1       4.287  -2.475   0.000  0.00  0.00    +0.064 S 
ATOM     23  O   UNL     1       3.874  -1.760   0.000  0.00  0.00    -0.153 OA
ATOM     24  O   UNL     1       4.699  -3.189   0.000  0.00  0.00    -0.153 OA
BRANCH  22  25
ATOM     25  C   UNL     1       3.572  -2.888   0.000  0.00  0.00    +0.122 A 
ATOM     26  C   UNL     1       3.572  -3.712   0.000  0.00  0.00    +0.020 A 
ATOM     27  C   UNL     1       2.858  -4.125   0.000  0.00  0.00    +0.001 A 
ATOM     28  C   UNL     1       2.143  -3.712   0.000  0.00  0.00    +0.000 A 
ATOM     29  C   UNL     1       2.143  -2.888   0.000  0.00  0.00    +0.001 A 
ATOM     30  C   UNL     1       2.858  -2.475   0.000  0.00  0.00    +0.020 A 
ENDBRANCH  22  25
ENDBRANCH  21  22
BRANCH  33  34
ATOM     34  C   UNL     1       6.430   0.412   0.000  0.00  0.00    +0.097 C 
ATOM     35  C   UNL     1       5.716   0.000   0.000  0.00  0.00    +0.023 C 
ATOM     36  C   UNL     1       6.430   1.238   0.000  0.00  0.00    +0.023 C 
ENDBRANCH  33  34
TORSDOF 9
