REMARK  Name = 
REMARK  8 active torsions:
REMARK  status: ('A' for Active; 'I' for Inactive)
REMARK    1  A    between atoms: O_2  and  C_3
REMARK    2  A    between atoms: C_3  and  C_4
REMARK    3  A    between atoms: C_11  and  C_12
REMARK    4  A    between atoms: N_14  and  C_15
REMARK    5  A    between atoms: C_22  and  C_24
REMARK    6  A    between atoms: C_24  and  S_25
REMARK    7  A    between atoms: S_25  and  C_26
REMARK    8  A    between atoms: C_26  and  C_27
REMARK                            x       y       z     vdW  Elec       q    Type
REMARK                         _______ _______ _______ _____ _____    ______ ____
ROOT
ATOM      4  C   UNL     1      -4.287  -2.475   0.000  0.00  0.00    +0.256 C 
ATOM      5  O   UNL     1      -4.287  -1.650   0.000  0.00  0.00    -0.272 OA
ATOM      6  N   UNL     1      -3.572  -2.888   0.000  0.00  0.00    -0.268 N 
ATOM      7  C   UNL     1      -2.858  -2.475   0.000  0.00  0.00    +0.115 C 
ATOM      8  C   UNL     1      -2.143  -2.888   0.000  0.00  0.00    +0.115 C 
ATOM      9  N   UNL     1      -2.143  -3.712   0.000  0.00  0.00    -0.275 N 
ATOM     10  C   UNL     1      -2.858  -4.125   0.000  0.00  0.00    +0.123 C 
ATOM     11  C   UNL     1      -3.572  -3.712   0.000  0.00  0.00    +0.174 C 
ATOM     22  C   UNL     1      -1.429  -4.125   0.000  0.00  0.00    +0.237 C 
ATOM     23  O   UNL     1      -1.429  -4.950   0.000  0.00  0.00    -0.274 OA
ENDROOT
BRANCH  11  12
ATOM     12  C   UNL     1      -4.287  -4.125   0.000  0.00  0.00    +0.262 C 
ATOM     13  O   UNL     1      -4.287  -4.950   0.000  0.00  0.00    -0.271 OA
ATOM     14  N   UNL     1      -5.001  -3.712   0.000  0.00  0.00    -0.196 NA
BRANCH  14  15
ATOM     15  C   UNL     1      -5.716  -4.125   0.000  0.00  0.00    +0.173 C 
ATOM     16  C   UNL     1      -5.716  -4.950   0.000  0.00  0.00    +0.033 C 
ATOM     17  C   UNL     1      -6.430  -5.362   0.000  0.00  0.00    +0.026 C 
ATOM     18  C   UNL     1      -7.145  -4.950   0.000  0.00  0.00    +0.115 C 
ATOM     19  N   UNL     1      -7.145  -4.125   0.000  0.00  0.00    -0.204 NA
ATOM     20  C   UNL     1      -6.430  -3.712   0.000  0.00  0.00    +0.261 C 
ATOM     21  O   UNL     1      -6.430  -2.888   0.000  0.00  0.00    -0.271 OA
ENDBRANCH  14  15
ENDBRANCH  11  12
BRANCH   4   3
ATOM      3  C   UNL     1      -5.001  -2.888   0.000  0.00  0.00    +0.227 C 
BRANCH   3   2
ATOM      1  C   UNL     1      -5.716  -1.650   0.000  0.00  0.00    +0.175 C 
ATOM      2  O   UNL     1      -5.716  -2.475   0.000  0.00  0.00    -0.342 OA
ENDBRANCH   3   2
ENDBRANCH   4   3
BRANCH  22  24
ATOM     24  C   UNL     1      -0.715  -3.712   0.000  0.00  0.00    +0.143 C 
BRANCH  24  25
ATOM     25  S   UNL     1       0.000  -4.125   0.000  0.00  0.00    -0.119 S 
BRANCH  25  26
ATOM     26  C   UNL     1       0.715  -3.712   0.000  0.00  0.00    +0.172 C 
BRANCH  26  27
ATOM     27  C   UNL     1       1.429  -4.125   0.000  0.00  0.00    +0.376 C 
ATOM     28  O   UNL     1       2.143  -3.712   0.000  0.00  0.00    -0.245 OA
ATOM     29  O   UNL     1       1.429  -4.950   0.000  0.00  0.00    -0.245 OA
ENDBRANCH  26  27
ENDBRANCH  25  26
ENDBRANCH  24  25
ENDBRANCH  22  24
TORSDOF 8
