REMARK  Name = 
REMARK  10 active torsions:
REMARK  status: ('A' for Active; 'I' for Inactive)
REMARK    1  A    between atoms: C_2  and  C_4
REMARK    2  A    between atoms: C_6  and  C_7
REMARK    3  A    between atoms: C_7  and  C_8
REMARK    4  A    between atoms: C_11  and  C_12
REMARK    5  A    between atoms: C_12  and  O_13
REMARK    6  A    between atoms: O_13  and  C_14
REMARK    7  A    between atoms: C_25  and  C_26
REMARK    8  A    between atoms: C_26  and  N_27
REMARK    9  A    between atoms: N_27  and  C_28
REMARK   10  A    between atoms: C_28  and  C_29
REMARK                            x       y       z     vdW  Elec       q    Type
REMARK                         _______ _______ _______ _____ _____    ______ ____
ROOT
ATOM      4  C   UNL     1       2.858  -2.475   0.000  0.00  0.00    +0.006 C 
ATOM      5  C   UNL     1       3.572  -2.888   0.000  0.00  0.00    +0.005 C 
ATOM      6  C   UNL     1       3.572  -3.712   0.000  0.00  0.00    +0.027 C 
ATOM     22  C   UNL     1       2.858  -4.125   0.000  0.00  0.00    -0.048 C 
ATOM     23  C   UNL     1       2.858  -4.950   0.000  0.00  0.00    +0.026 C 
ATOM     24  C   UNL     1       2.143  -3.712   0.000  0.00  0.00    -0.033 C 
ATOM     25  C   UNL     1       2.143  -2.888   0.000  0.00  0.00    +0.039 C 
ENDROOT
BRANCH   4   2
ATOM      1  C   UNL     1       2.143  -1.238   0.000  0.00  0.00    +0.000 C 
ATOM      2  C   UNL     1       2.858  -1.650   0.000  0.00  0.00    +0.000 C 
ATOM      3  C   UNL     1       3.572  -1.238   0.000  0.00  0.00    +0.000 C 
ENDBRANCH   4   2
BRANCH   6   7
ATOM      7  C   UNL     1       4.287  -4.125   0.000  0.00  0.00    +0.091 C 
BRANCH   7   8
ATOM      8  C   UNL     1       4.287  -4.950   0.000  0.00  0.00    +0.227 A 
ATOM      9  N   UNL     1       4.954  -5.435   0.000  0.00  0.00    -0.112 NA
ATOM     10  N   UNL     1       4.699  -6.220   0.000  0.00  0.00    -0.108 NA
ATOM     11  C   UNL     1       3.874  -6.220   0.000  0.00  0.00    +0.270 A 
ATOM     21  O   UNL     1       3.619  -5.435   0.000  0.00  0.00    -0.420 OA
BRANCH  11  12
ATOM     12  C   UNL     1       3.389  -6.887   0.000  0.00  0.00    +0.291 C 
BRANCH  12  13
ATOM     13  O   UNL     1       3.725  -7.641   0.000  0.00  0.00    -0.465 OA
BRANCH  13  14
ATOM     14  C   UNL     1       3.240  -8.308   0.000  0.00  0.00    +0.139 A 
ATOM     15  C   UNL     1       3.576  -9.062   0.000  0.00  0.00    +0.039 A 
ATOM     16  C   UNL     1       3.091  -9.729   0.000  0.00  0.00    +0.033 A 
ATOM     17  C   UNL     1       2.270  -9.643   0.000  0.00  0.00    +0.140 A 
ATOM     18  F   UNL     1       1.785 -10.310   0.000  0.00  0.00    -0.204 F 
ATOM     19  C   UNL     1       1.935  -8.889   0.000  0.00  0.00    +0.033 A 
ATOM     20  C   UNL     1       2.420  -8.222   0.000  0.00  0.00    +0.039 A 
ENDBRANCH  13  14
ENDBRANCH  12  13
ENDBRANCH  11  12
ENDBRANCH   7   8
ENDBRANCH   6   7
BRANCH  25  26
ATOM     26  C   UNL     1       1.429  -2.475   0.000  0.00  0.00    +0.093 C 
BRANCH  26  27
ATOM     27  N   UNL     1       1.429  -1.650   0.000  0.00  0.00    -0.213 NA
BRANCH  27  28
ATOM     28  C   UNL     1       0.715  -1.238   0.000  0.00  0.00    +0.117 C 
BRANCH  28  29
ATOM     29  C   UNL     1       0.715  -0.412   0.000  0.00  0.00    +0.014 A 
ATOM     30  C   UNL     1       0.000   0.000   0.000  0.00  0.00    +0.000 A 
ATOM     31  C   UNL     1       0.000   0.825   0.000  0.00  0.00    +0.020 A 
ATOM     32  C   UNL     1       0.715   1.238   0.000  0.00  0.00    +0.099 A 
ATOM     33  N   UNL     1       1.429   0.825   0.000  0.00  0.00    -0.243 NA
ATOM     34  C   UNL     1       1.429   0.000   0.000  0.00  0.00    +0.096 A 
ENDBRANCH  28  29
ENDBRANCH  27  28
ENDBRANCH  26  27
ENDBRANCH  25  26
TORSDOF 10
