REMARK  Name = 
REMARK  7 active torsions:
REMARK  status: ('A' for Active; 'I' for Inactive)
REMARK    1  A    between atoms: C_3  and  C_4
REMARK    2  A    between atoms: N_6  and  C_7
REMARK    3  A    between atoms: C_11  and  O_15
REMARK    4  A    between atoms: O_15  and  C_16
REMARK    5  A    between atoms: N_18  and  C_19
REMARK    6  A    between atoms: C_22  and  O_23
REMARK    7  A    between atoms: O_23  and  C_24
REMARK                            x       y       z     vdW  Elec       q    Type
REMARK                         _______ _______ _______ _____ _____    ______ ____
ROOT
ATOM      7  C   UNL     1       1.270  -0.922   0.000  0.00  0.00    +0.155 C 
ATOM      8  C   UNL     1       0.785  -0.255   0.000  0.00  0.00    +0.166 C 
ATOM      9  O   UNL     1       1.270   0.412   0.000  0.00  0.00    -0.348 OA
ATOM     10  C   UNL     1       2.054   0.158   0.000  0.00  0.00    +0.186 C 
ATOM     11  C   UNL     1       2.839   0.412   0.000  0.00  0.00    +0.229 C 
ATOM     12  C   UNL     1       3.324  -0.255   0.000  0.00  0.00    +0.188 C 
ATOM     13  O   UNL     1       2.839  -0.922   0.000  0.00  0.00    -0.348 OA
ATOM     14  C   UNL     1       2.054  -0.667   0.000  0.00  0.00    +0.168 C 
ENDROOT
BRANCH   7   6
ATOM      4  C   UNL     1       0.208  -1.879   0.000  0.00  0.00    +0.269 C 
ATOM      5  O   UNL     1      -0.344  -1.265   0.000  0.00  0.00    -0.268 OA
ATOM      6  N   UNL     1       1.015  -1.707   0.000  0.00  0.00    -0.198 NA
BRANCH   4   3
ATOM      1  C   UNL     1      -1.499  -2.433   0.000  0.00  0.00    +0.076 C 
ATOM      2  C   UNL     1      -0.832  -2.918   0.000  0.00  0.00    +0.159 A 
ATOM      3  C   UNL     1      -0.047  -2.663   0.000  0.00  0.00    +0.105 A 
ATOM     32  C   UNL     1       0.438  -3.331   0.000  0.00  0.00    +0.105 A 
ATOM     33  C   UNL     1       1.263  -3.331   0.000  0.00  0.00    +0.056 C 
ATOM     34  N   UNL     1      -0.047  -3.998   0.000  0.00  0.00    -0.082 NA
ATOM     35  O   UNL     1      -0.832  -3.743   0.000  0.00  0.00    -0.358 OA
ENDBRANCH   4   3
ENDBRANCH   7   6
BRANCH  11  15
ATOM     15  O   UNL     1       3.094   1.197   0.000  0.00  0.00    -0.432 OA
BRANCH  15  16
ATOM     16  C   UNL     1       3.901   1.369   0.000  0.00  0.00    +0.425 C 
ATOM     17  O   UNL     1       4.453   0.756   0.000  0.00  0.00    -0.224 OA
ATOM     18  N   UNL     1       4.156   2.153   0.000  0.00  0.00    -0.142 NA
BRANCH  18  19
ATOM     19  C   UNL     1       4.963   2.325   0.000  0.00  0.00    +0.077 A 
ATOM     20  C   UNL     1       5.218   3.109   0.000  0.00  0.00    +0.020 A 
ATOM     21  C   UNL     1       6.024   3.281   0.000  0.00  0.00    +0.039 A 
ATOM     22  C   UNL     1       6.577   2.668   0.000  0.00  0.00    +0.145 A 
ATOM     30  C   UNL     1       6.322   1.883   0.000  0.00  0.00    +0.039 A 
ATOM     31  C   UNL     1       5.515   1.712   0.000  0.00  0.00    +0.020 A 
BRANCH  22  23
ATOM     23  O   UNL     1       7.383   2.839   0.000  0.00  0.00    -0.453 OA
BRANCH  23  24
ATOM     24  C   UNL     1       7.638   3.624   0.000  0.00  0.00    +0.145 A 
ATOM     25  C   UNL     1       7.086   4.237   0.000  0.00  0.00    +0.037 A 
ATOM     26  C   UNL     1       7.341   5.022   0.000  0.00  0.00    +0.003 A 
ATOM     27  C   UNL     1       8.148   5.193   0.000  0.00  0.00    +0.000 A 
ATOM     28  C   UNL     1       8.700   4.580   0.000  0.00  0.00    +0.003 A 
ATOM     29  C   UNL     1       8.445   3.796   0.000  0.00  0.00    +0.037 A 
ENDBRANCH  23  24
ENDBRANCH  22  23
ENDBRANCH  18  19
ENDBRANCH  15  16
ENDBRANCH  11  15
TORSDOF 7
