REMARK  Name = 
REMARK  10 active torsions:
REMARK  status: ('A' for Active; 'I' for Inactive)
REMARK    1  A    between atoms: N_2  and  C_3
REMARK    2  A    between atoms: N_2  and  C_27
REMARK    3  A    between atoms: C_3  and  C_4
REMARK    4  A    between atoms: C_6  and  C_7
REMARK    5  A    between atoms: C_7  and  C_8
REMARK    6  A    between atoms: C_13  and  C_14
REMARK    7  A    between atoms: C_14  and  N_15
REMARK    8  A    between atoms: N_15  and  C_16
REMARK    9  A    between atoms: C_16  and  C_17
REMARK   10  A    between atoms: C_27  and  C_28
REMARK                            x       y       z     vdW  Elec       q    Type
REMARK                         _______ _______ _______ _____ _____    ______ ____
ROOT
ATOM      8  C   UNL     1       3.313  -5.227   0.000  0.00  0.00    +0.121 C 
ATOM      9  C   UNL     1       3.798  -5.895   0.000  0.00  0.00    +0.033 C 
ATOM     10  C   UNL     1       3.462  -6.648   0.000  0.00  0.00    +0.038 C 
ATOM     11  C   UNL     1       2.642  -6.735   0.000  0.00  0.00    +0.180 C 
ATOM     12  O   UNL     1       2.306  -7.488   0.000  0.00  0.00    -0.220 OA
ATOM     13  C   UNL     1       2.157  -6.067   0.000  0.00  0.00    +0.163 C 
ATOM     24  O   UNL     1       2.493  -5.314   0.000  0.00  0.00    -0.354 OA
ENDROOT
BRANCH   8   7
ATOM      7  C   UNL     1       3.649  -4.474   0.000  0.00  0.00    +0.079 C 
BRANCH   7   6
ATOM      4  C   UNL     1       2.751  -2.537   0.000  0.00  0.00    +0.170 A 
ATOM      5  C   UNL     1       3.419  -3.022   0.000  0.00  0.00    +0.055 A 
ATOM      6  C   UNL     1       3.164  -3.806   0.000  0.00  0.00    +0.103 A 
ATOM     25  N   UNL     1       2.339  -3.806   0.000  0.00  0.00    -0.082 NA
ATOM     26  O   UNL     1       2.084  -3.022   0.000  0.00  0.00    -0.357 OA
BRANCH   4   3
ATOM      3  C   UNL     1       2.751  -1.712   0.000  0.00  0.00    +0.141 C 
BRANCH   3   2
ATOM      1  C   UNL     1       4.180  -1.712   0.000  0.00  0.00    +0.090 C 
ATOM      2  N   UNL     1       3.466  -1.299   0.000  0.00  0.00    -0.261 NA
BRANCH   2  27
ATOM     27  C   UNL     1       3.466  -0.474   0.000  0.00  0.00    +0.100 C 
BRANCH  27  28
ATOM     28  C   UNL     1       4.180  -0.062   0.000  0.00  0.00    -0.006 A 
ATOM     29  C   UNL     1       4.180   0.763   0.000  0.00  0.00    -0.003 A 
ATOM     30  C   UNL     1       4.895   1.176   0.000  0.00  0.00    -0.000 A 
ATOM     31  C   UNL     1       5.609   0.763   0.000  0.00  0.00    -0.000 A 
ATOM     32  C   UNL     1       5.609  -0.062   0.000  0.00  0.00    -0.000 A 
ATOM     33  C   UNL     1       4.895  -0.474   0.000  0.00  0.00    -0.003 A 
ENDBRANCH  27  28
ENDBRANCH   2  27
ENDBRANCH   3   2
ENDBRANCH   4   3
ENDBRANCH   7   6
ENDBRANCH   8   7
BRANCH  13  14
ATOM     14  C   UNL     1       1.337  -6.153   0.000  0.00  0.00    +0.121 C 
BRANCH  14  15
ATOM     15  N   UNL     1       1.001  -6.907   0.000  0.00  0.00    -0.211 NA
BRANCH  15  16
ATOM     16  C   UNL     1       0.180  -6.993   0.000  0.00  0.00    +0.118 C 
BRANCH  16  17
ATOM     17  C   UNL     1      -0.155  -7.747   0.000  0.00  0.00    +0.034 A 
ATOM     18  C   UNL     1       0.330  -8.414   0.000  0.00  0.00    +0.193 A 
ATOM     19  O   UNL     1       1.150  -8.328   0.000  0.00  0.00    -0.287 OA
ATOM     20  C   UNL     1      -0.006  -9.168   0.000  0.00  0.00    +0.042 A 
ATOM     21  C   UNL     1      -0.826  -9.254   0.000  0.00  0.00    +0.003 A 
ATOM     22  C   UNL     1      -1.311  -8.587   0.000  0.00  0.00    -0.000 A 
ATOM     23  C   UNL     1      -0.976  -7.833   0.000  0.00  0.00    +0.000 A 
ENDBRANCH  16  17
ENDBRANCH  15  16
ENDBRANCH  14  15
ENDBRANCH  13  14
TORSDOF 10
