REMARK  Name = 
REMARK  6 active torsions:
REMARK  status: ('A' for Active; 'I' for Inactive)
REMARK    1  A    between atoms: O_2  and  C_3
REMARK    2  A    between atoms: C_3  and  C_5
REMARK    3  A    between atoms: N_10  and  S_11
REMARK    4  A    between atoms: S_11  and  C_14
REMARK    5  A    between atoms: N_24  and  C_25
REMARK    6  A    between atoms: C_25  and  C_26
REMARK                            x       y       z     vdW  Elec       q    Type
REMARK                         _______ _______ _______ _____ _____    ______ ____
ROOT
ATOM      5  C   UNL     1      -0.715   2.062   0.000  0.00  0.00    +0.184 C 
ATOM      6  C   UNL     1      -0.715   2.888   0.000  0.00  0.00    +0.076 C 
ATOM      7  C   UNL     1       0.000   3.300   0.000  0.00  0.00    +0.076 A 
ATOM      8  C   UNL     1       0.715   2.888   0.000  0.00  0.00    +0.070 A 
ATOM      9  C   UNL     1       0.715   2.062   0.000  0.00  0.00    +0.141 C 
ATOM     10  N   UNL     1       0.000   1.650   0.000  0.00  0.00    -0.140 NA
ATOM     24  N   UNL     1       1.328   3.439   0.000  0.00  0.00    -0.307 N 
ATOM     33  C   UNL     1       0.992   4.193   0.000  0.00  0.00    +0.178 A 
ATOM     34  N   UNL     1       0.172   4.107   0.000  0.00  0.00    -0.229 NA
ENDROOT
BRANCH  10  11
ATOM     11  S   UNL     1       0.000   0.825   0.000  0.00  0.00    +0.066 S 
ATOM     12  O   UNL     1       0.825   0.825   0.000  0.00  0.00    -0.153 OA
ATOM     13  O   UNL     1      -0.825   0.825   0.000  0.00  0.00    -0.153 OA
BRANCH  11  14
ATOM     14  C   UNL     1       0.000   0.000   0.000  0.00  0.00    +0.140 A 
ATOM     15  C   UNL     1      -0.715  -0.412   0.000  0.00  0.00    +0.021 A 
ATOM     16  C   UNL     1      -0.715  -1.238   0.000  0.00  0.00    +0.001 A 
ATOM     17  C   UNL     1       0.000  -1.650   0.000  0.00  0.00    +0.002 A 
ATOM     18  C   UNL     1       0.715  -1.238   0.000  0.00  0.00    +0.019 A 
ATOM     19  C   UNL     1       0.715  -0.412   0.000  0.00  0.00    +0.100 A 
ATOM     20  N   UNL     1       1.429   0.000   0.000  0.00  0.00    -0.242 NA
ATOM     21  C   UNL     1       2.143  -0.412   0.000  0.00  0.00    +0.099 A 
ATOM     22  C   UNL     1       2.143  -1.238   0.000  0.00  0.00    +0.021 A 
ATOM     23  C   UNL     1       1.429  -1.650   0.000  0.00  0.00    +0.003 A 
ENDBRANCH  11  14
ENDBRANCH  10  11
BRANCH   5   3
ATOM      3  C   UNL     1      -1.429   1.650   0.000  0.00  0.00    +0.334 C 
ATOM      4  O   UNL     1      -2.143   2.062   0.000  0.00  0.00    -0.249 OA
BRANCH   3   2
ATOM      1  C   UNL     1      -2.143   0.412   0.000  0.00  0.00    +0.256 C 
ATOM      2  O   UNL     1      -1.429   0.825   0.000  0.00  0.00    -0.443 OA
ENDBRANCH   3   2
ENDBRANCH   5   3
BRANCH  24  25
ATOM     25  C   UNL     1       2.135   3.268   0.000  0.00  0.00    +0.134 C 
BRANCH  25  26
ATOM     26  C   UNL     1       2.389   2.483   0.000  0.00  0.00    +0.000 A 
ATOM     27  C   UNL     1       3.196   2.312   0.000  0.00  0.00    -0.002 A 
ATOM     28  C   UNL     1       3.451   1.527   0.000  0.00  0.00    +0.011 A 
ATOM     29  C   UNL     1       2.899   0.914   0.000  0.00  0.00    +0.058 A 
ATOM     30 CL   UNL     1       3.154   0.130   0.000  0.00  0.00    -0.082 Cl
ATOM     31  C   UNL     1       2.092   1.086   0.000  0.00  0.00    +0.011 A 
ATOM     32  C   UNL     1       1.837   1.870   0.000  0.00  0.00    -0.002 A 
ENDBRANCH  25  26
ENDBRANCH  24  25
TORSDOF 6
