REMARK  Name = 
REMARK  6 active torsions:
REMARK  status: ('A' for Active; 'I' for Inactive)
REMARK    1  A    between atoms: S_2  and  N_4
REMARK    2  A    between atoms: S_2  and  C_25
REMARK    3  A    between atoms: N_4  and  C_5
REMARK    4  A    between atoms: C_9  and  N_13
REMARK    5  A    between atoms: C_16  and  C_20
REMARK    6  A    between atoms: C_30  and  C_31
REMARK                            x       y       z     vdW  Elec       q    Type
REMARK                         _______ _______ _______ _____ _____    ______ ____
ROOT
ATOM      5  C   UNL     1       1.270  -0.922   0.000  0.00  0.00    +0.157 C 
ATOM      6  C   UNL     1       0.785  -0.255   0.000  0.00  0.00    +0.164 C 
ATOM      7  O   UNL     1       1.270   0.412   0.000  0.00  0.00    -0.350 OA
ATOM      8  C   UNL     1       2.054   0.158   0.000  0.00  0.00    +0.166 C 
ATOM      9  C   UNL     1       2.839   0.412   0.000  0.00  0.00    +0.154 C 
ATOM     10  C   UNL     1       3.324  -0.255   0.000  0.00  0.00    +0.166 C 
ATOM     11  O   UNL     1       2.839  -0.922   0.000  0.00  0.00    -0.350 OA
ATOM     12  C   UNL     1       2.054  -0.667   0.000  0.00  0.00    +0.164 C 
ENDROOT
BRANCH   9  13
ATOM     13  N   UNL     1       3.094   1.197   0.000  0.00  0.00    -0.200 NA
ATOM     14  C   UNL     1       3.901   1.369   0.000  0.00  0.00    +0.237 A 
ATOM     15  N   UNL     1       4.156   2.153   0.000  0.00  0.00    -0.209 NA
ATOM     16  C   UNL     1       4.963   2.325   0.000  0.00  0.00    +0.120 A 
ATOM     17  C   UNL     1       5.515   1.712   0.000  0.00  0.00    +0.043 A 
ATOM     18  C   UNL     1       5.260   0.927   0.000  0.00  0.00    +0.104 A 
ATOM     19  N   UNL     1       4.453   0.756   0.000  0.00  0.00    -0.211 NA
BRANCH  16  20
ATOM     20  C   UNL     1       5.218   3.109   0.000  0.00  0.00    +0.163 A 
ATOM     21  C   UNL     1       4.733   3.777   0.000  0.00  0.00    +0.042 A 
ATOM     22  C   UNL     1       5.218   4.444   0.000  0.00  0.00    +0.044 A 
ATOM     23  C   UNL     1       6.002   4.189   0.000  0.00  0.00    +0.180 A 
ATOM     24  O   UNL     1       6.002   3.364   0.000  0.00  0.00    -0.449 OA
ENDBRANCH  16  20
ENDBRANCH   9  13
BRANCH   5   4
ATOM      4  N   UNL     1       1.015  -1.707   0.000  0.00  0.00    -0.074 NA
BRANCH   4   2
ATOM      1  O   UNL     1       0.036  -1.072   0.000  0.00  0.00    -0.152 OA
ATOM      2  S   UNL     1       0.208  -1.879   0.000  0.00  0.00    +0.078 S 
ATOM      3  O   UNL     1       0.379  -2.686   0.000  0.00  0.00    -0.152 OA
BRANCH   2  25
ATOM     25  C   UNL     1      -0.599  -2.050   0.000  0.00  0.00    +0.133 A 
ATOM     26  C   UNL     1      -0.854  -2.835   0.000  0.00  0.00    +0.021 A 
ATOM     27  C   UNL     1      -1.661  -3.006   0.000  0.00  0.00    +0.001 A 
ATOM     28  C   UNL     1      -2.213  -2.393   0.000  0.00  0.00    +0.001 A 
ATOM     29  C   UNL     1      -1.958  -1.609   0.000  0.00  0.00    +0.012 A 
ATOM     30  C   UNL     1      -1.151  -1.437   0.000  0.00  0.00    +0.087 A 
BRANCH  30  31
ATOM     31  C   UNL     1      -0.896  -0.652   0.000  0.00  0.00    +0.102 C 
ATOM     32  N   UNL     1      -0.641   0.132   0.000  0.00  0.00    -0.191 NA
ENDBRANCH  30  31
ENDBRANCH   2  25
ENDBRANCH   4   2
ENDBRANCH   5   4
TORSDOF 6
