REMARK  Name = 
REMARK  7 active torsions:
REMARK  status: ('A' for Active; 'I' for Inactive)
REMARK    1  A    between atoms: N_2  and  C_4
REMARK    2  A    between atoms: C_7  and  C_10
REMARK    3  A    between atoms: N_12  and  C_13
REMARK    4  A    between atoms: C_13  and  C_14
REMARK    5  A    between atoms: C_16  and  C_17
REMARK    6  A    between atoms: C_17  and  C_18
REMARK    7  A    between atoms: N_23  and  C_26
REMARK                            x       y       z     vdW  Elec       q    Type
REMARK                         _______ _______ _______ _____ _____    ______ ____
ROOT
ATOM     14  C   UNL     1       1.429  -4.950   0.000  0.00  0.00    +0.170 C 
ATOM     15  O   UNL     1       2.096  -5.435   0.000  0.00  0.00    -0.351 OA
ATOM     16  C   UNL     1       1.841  -6.220   0.000  0.00  0.00    +0.157 C 
ATOM     32  C   UNL     1       1.016  -6.220   0.000  0.00  0.00    +0.212 C 
ATOM     33  O   UNL     1       0.531  -6.887   0.000  0.00  0.00    -0.218 OA
ATOM     34  C   UNL     1       0.761  -5.435   0.000  0.00  0.00    +0.213 C 
ATOM     35  O   UNL     1      -0.023  -5.180   0.000  0.00  0.00    -0.218 OA
ENDROOT
BRANCH  14  13
ATOM     13  C   UNL     1       1.429  -4.125   0.000  0.00  0.00    +0.148 C 
BRANCH  13  12
ATOM     10  C   UNL     1       0.715  -2.888   0.000  0.00  0.00    +0.265 C 
ATOM     11  O   UNL     1       1.429  -2.475   0.000  0.00  0.00    -0.268 OA
ATOM     12  N   UNL     1       0.715  -3.712   0.000  0.00  0.00    -0.199 NA
BRANCH  10   7
ATOM      4  C   UNL     1      -1.429  -1.650   0.000  0.00  0.00    +0.048 A 
ATOM      5  C   UNL     1      -0.715  -1.238   0.000  0.00  0.00    +0.015 A 
ATOM      6  C   UNL     1       0.000  -1.650   0.000  0.00  0.00    +0.006 A 
ATOM      7  C   UNL     1       0.000  -2.475   0.000  0.00  0.00    +0.055 A 
ATOM      8  C   UNL     1      -0.715  -2.888   0.000  0.00  0.00    +0.006 A 
ATOM      9  C   UNL     1      -1.429  -2.475   0.000  0.00  0.00    +0.015 A 
BRANCH   4   2
ATOM      1  C   UNL     1      -2.858  -1.650   0.000  0.00  0.00    +0.112 C 
ATOM      2  N   UNL     1      -2.143  -1.238   0.000  0.00  0.00    -0.304 N 
ATOM      3  C   UNL     1      -2.143  -0.412   0.000  0.00  0.00    +0.112 C 
ENDBRANCH   4   2
ENDBRANCH  10   7
ENDBRANCH  13  12
ENDBRANCH  14  13
BRANCH  16  17
ATOM     17  C   UNL     1       2.326  -6.887   0.000  0.00  0.00    +0.117 C 
BRANCH  17  18
ATOM     18  C   UNL     1       3.147  -6.801   0.000  0.00  0.00    +0.228 C 
ATOM     19  O   UNL     1       3.482  -6.047   0.000  0.00  0.00    -0.275 OA
ATOM     20  N   UNL     1       3.632  -7.468   0.000  0.00  0.00    -0.276 N 
ATOM     21  C   UNL     1       4.452  -7.382   0.000  0.00  0.00    +0.115 C 
ATOM     22  C   UNL     1       4.937  -8.049   0.000  0.00  0.00    +0.112 C 
ATOM     23  N   UNL     1       4.602  -8.803   0.000  0.00  0.00    -0.304 N 
ATOM     24  C   UNL     1       3.781  -8.889   0.000  0.00  0.00    +0.112 C 
ATOM     25  C   UNL     1       3.296  -8.222   0.000  0.00  0.00    +0.115 C 
BRANCH  23  26
ATOM     26  C   UNL     1       5.087  -9.470   0.000  0.00  0.00    +0.048 A 
ATOM     27  C   UNL     1       5.907  -9.384   0.000  0.00  0.00    +0.015 A 
ATOM     28  C   UNL     1       6.392 -10.052   0.000  0.00  0.00    +0.001 A 
ATOM     29  C   UNL     1       6.056 -10.805   0.000  0.00  0.00    +0.000 A 
ATOM     30  C   UNL     1       5.236 -10.892   0.000  0.00  0.00    +0.001 A 
ATOM     31  C   UNL     1       4.751 -10.224   0.000  0.00  0.00    +0.015 A 
ENDBRANCH  23  26
ENDBRANCH  17  18
ENDBRANCH  16  17
TORSDOF 7
