REMARK  Name = 
REMARK  5 active torsions:
REMARK  status: ('A' for Active; 'I' for Inactive)
REMARK    1  A    between atoms: O_2  and  C_3
REMARK    2  A    between atoms: C_6  and  C_9
REMARK    3  A    between atoms: N_11  and  C_12
REMARK    4  A    between atoms: C_14  and  C_17
REMARK    5  A    between atoms: N_20  and  C_24
REMARK                            x       y       z     vdW  Elec       q    Type
REMARK                         _______ _______ _______ _____ _____    ______ ____
ROOT
ATOM     12  C   UNL     1      -0.596  -3.041   0.000  0.00  0.00    +0.118 C 
ATOM     13  C   UNL     1       0.072  -3.525   0.000  0.00  0.00    +0.035 C 
ATOM     14  C   UNL     1      -0.183  -4.310   0.000  0.00  0.00    +0.048 C 
ATOM     15  C   UNL     1      -1.008  -4.310   0.000  0.00  0.00    -0.025 C 
ATOM     16  C   UNL     1      -1.263  -3.525   0.000  0.00  0.00    -0.009 C 
ENDROOT
BRANCH  14  17
ATOM     17  C   UNL     1       0.302  -4.977   0.000  0.00  0.00    +0.010 A 
ATOM     18  C   UNL     1       1.127  -4.977   0.000  0.00  0.00    +0.058 A 
ATOM     19  C   UNL     1       1.612  -4.310   0.000  0.00  0.00    +0.052 C 
ATOM     20  N   UNL     1       1.382  -5.762   0.000  0.00  0.00    -0.234 N 
ATOM     21  N   UNL     1       0.715  -6.247   0.000  0.00  0.00    -0.170 NA
ATOM     22  C   UNL     1       0.047  -5.762   0.000  0.00  0.00    +0.077 A 
ATOM     23  C   UNL     1      -0.738  -6.017   0.000  0.00  0.00    +0.054 C 
BRANCH  20  24
ATOM     24  C   UNL     1       2.167  -6.017   0.000  0.00  0.00    +0.082 A 
ATOM     25  C   UNL     1       2.780  -5.465   0.000  0.00  0.00    +0.019 A 
ATOM     26  C   UNL     1       3.564  -5.720   0.000  0.00  0.00    +0.002 A 
ATOM     27  C   UNL     1       3.736  -6.527   0.000  0.00  0.00    +0.000 A 
ATOM     28  C   UNL     1       3.123  -7.079   0.000  0.00  0.00    +0.002 A 
ATOM     29  C   UNL     1       2.338  -6.824   0.000  0.00  0.00    +0.019 A 
ENDBRANCH  20  24
ENDBRANCH  14  17
BRANCH  12  11
ATOM      9  C   UNL     1      -1.310  -1.803   0.000  0.00  0.00    +0.265 C 
ATOM     10  O   UNL     1      -2.024  -2.216   0.000  0.00  0.00    -0.268 OA
ATOM     11  N   UNL     1      -0.596  -2.216   0.000  0.00  0.00    -0.199 NA
BRANCH   9   6
ATOM      3  C   UNL     1      -1.310   0.672   0.000  0.00  0.00    +0.139 A 
ATOM      4  C   UNL     1      -0.596   0.260   0.000  0.00  0.00    +0.037 A 
ATOM      5  C   UNL     1      -0.596  -0.566   0.000  0.00  0.00    +0.008 A 
ATOM      6  C   UNL     1      -1.310  -0.978   0.000  0.00  0.00    +0.055 A 
ATOM      7  C   UNL     1      -2.024  -0.566   0.000  0.00  0.00    +0.008 A 
ATOM      8  C   UNL     1      -2.024   0.260   0.000  0.00  0.00    +0.037 A 
BRANCH   3   2
ATOM      1  C   UNL     1      -2.024   1.909   0.000  0.00  0.00    +0.252 C 
ATOM      2  O   UNL     1      -1.310   1.497   0.000  0.00  0.00    -0.471 OA
ENDBRANCH   3   2
ENDBRANCH   9   6
ENDBRANCH  12  11
TORSDOF 5
