REMARK  Name = 
REMARK  4 active torsions:
REMARK  status: ('A' for Active; 'I' for Inactive)
REMARK    1  A    between atoms: C_5  and  S_8
REMARK    2  A    between atoms: S_8  and  N_11
REMARK    3  A    between atoms: C_16  and  O_18
REMARK    4  A    between atoms: O_18  and  C_19
REMARK                            x       y       z     vdW  Elec       q    Type
REMARK                         _______ _______ _______ _____ _____    ______ ____
ROOT
ATOM     11  N   UNL     1       0.094  -5.402   0.000  0.00  0.00    -0.149 NA
ATOM     12  C   UNL     1       0.838  -5.760   0.000  0.00  0.00    +0.128 C 
ATOM     13  C   UNL     1       1.021  -6.565   0.000  0.00  0.00    +0.161 C 
ATOM     14  O   UNL     1       0.507  -7.210   0.000  0.00  0.00    -0.348 OA
ATOM     15  C   UNL     1      -0.318  -7.210   0.000  0.00  0.00    +0.187 C 
ATOM     16  C   UNL     1      -0.833  -6.565   0.000  0.00  0.00    +0.215 C 
ATOM     17  C   UNL     1      -0.649  -5.760   0.000  0.00  0.00    +0.142 C 
ENDROOT
BRANCH  11   8
ATOM      8  S   UNL     1       0.094  -4.577   0.000  0.00  0.00    +0.063 S 
ATOM      9  O   UNL     1      -0.731  -4.577   0.000  0.00  0.00    -0.153 OA
ATOM     10  O   UNL     1       0.919  -4.577   0.000  0.00  0.00    -0.153 OA
BRANCH   8   5
ATOM      1  F   UNL     1       0.094  -1.277   0.000  0.00  0.00    -0.204 F 
ATOM      2  C   UNL     1       0.094  -2.102   0.000  0.00  0.00    +0.140 A 
ATOM      3  C   UNL     1       0.809  -2.515   0.000  0.00  0.00    +0.031 A 
ATOM      4  C   UNL     1       0.809  -3.340   0.000  0.00  0.00    +0.022 A 
ATOM      5  C   UNL     1       0.094  -3.752   0.000  0.00  0.00    +0.122 A 
ATOM      6  C   UNL     1      -0.620  -3.340   0.000  0.00  0.00    +0.022 A 
ATOM      7  C   UNL     1      -0.620  -2.515   0.000  0.00  0.00    +0.031 A 
ENDBRANCH   8   5
ENDBRANCH  11   8
BRANCH  16  18
ATOM     18  O   UNL     1      -1.637  -6.748   0.000  0.00  0.00    -0.459 OA
BRANCH  18  19
ATOM     19  C   UNL     1      -2.198  -6.143   0.000  0.00  0.00    +0.245 A 
ATOM     20  C   UNL     1      -3.002  -6.327   0.000  0.00  0.00    +0.156 A 
ATOM     21  N   UNL     1      -3.563  -5.722   0.000  0.00  0.00    -0.236 NA
ATOM     22  C   UNL     1      -3.320  -4.934   0.000  0.00  0.00    +0.120 A 
ATOM     23  C   UNL     1      -2.516  -4.750   0.000  0.00  0.00    +0.123 A 
ATOM     24  N   UNL     1      -1.955  -5.355   0.000  0.00  0.00    -0.207 NA
ENDBRANCH  18  19
ENDBRANCH  16  18
TORSDOF 4
