REMARK  Name = 
REMARK  5 active torsions:
REMARK  status: ('A' for Active; 'I' for Inactive)
REMARK    1  A    between atoms: C_3  and  N_18
REMARK    2  A    between atoms: C_6  and  C_7
REMARK    3  A    between atoms: C_7  and  N_8
REMARK    4  A    between atoms: C_9  and  C_11
REMARK    5  A    between atoms: N_18  and  C_19
REMARK                            x       y       z     vdW  Elec       q    Type
REMARK                         _______ _______ _______ _____ _____    ______ ____
ROOT
ATOM      1  O   UNL     1      -3.531  -1.587   0.000  0.00  0.00    -0.219 OA
ATOM      2  C   UNL     1      -4.145  -2.139   0.000  0.00  0.00    +0.199 C 
ATOM      3  C   UNL     1      -4.058  -2.959   0.000  0.00  0.00    +0.135 C 
ATOM      4  C   UNL     1      -4.812  -3.295   0.000  0.00  0.00    +0.162 C 
ATOM      5  O   UNL     1      -5.364  -2.682   0.000  0.00  0.00    -0.350 OA
ATOM      6  C   UNL     1      -4.952  -1.968   0.000  0.00  0.00    +0.169 C 
ENDROOT
BRANCH   6   7
ATOM      7  C   UNL     1      -5.287  -1.214   0.000  0.00  0.00    +0.148 C 
BRANCH   7   8
ATOM      8  N   UNL     1      -6.108  -1.128   0.000  0.00  0.00    -0.199 NA
ATOM      9  C   UNL     1      -6.443  -0.374   0.000  0.00  0.00    +0.265 C 
ATOM     10  O   UNL     1      -5.958   0.293   0.000  0.00  0.00    -0.268 OA
BRANCH   9  11
ATOM     11  C   UNL     1      -7.264  -0.288   0.000  0.00  0.00    +0.055 A 
ATOM     12  C   UNL     1      -7.749  -0.955   0.000  0.00  0.00    +0.007 A 
ATOM     13  C   UNL     1      -8.569  -0.869   0.000  0.00  0.00    +0.030 A 
ATOM     14  C   UNL     1      -8.905  -0.115   0.000  0.00  0.00    +0.140 A 
ATOM     15  F   UNL     1      -9.725  -0.029   0.000  0.00  0.00    -0.204 F 
ATOM     16  C   UNL     1      -8.420   0.552   0.000  0.00  0.00    +0.030 A 
ATOM     17  C   UNL     1      -7.599   0.466   0.000  0.00  0.00    +0.007 A 
ENDBRANCH   9  11
ENDBRANCH   7   8
ENDBRANCH   6   7
BRANCH   3  18
ATOM     18  N   UNL     1      -3.344  -3.372   0.000  0.00  0.00    -0.211 NA
BRANCH  18  19
ATOM     19  C   UNL     1      -3.344  -4.197   0.000  0.00  0.00    +0.132 C 
ATOM     20  C   UNL     1      -2.760  -4.780   0.000  0.00  0.00    +0.162 C 
ATOM     21  O   UNL     1      -3.344  -5.364   0.000  0.00  0.00    -0.351 OA
ATOM     22  C   UNL     1      -3.927  -4.780   0.000  0.00  0.00    +0.162 C 
ENDBRANCH  18  19
ENDBRANCH   3  18
TORSDOF 5
