REMARK  Name = 
REMARK  3 active torsions:
REMARK  status: ('A' for Active; 'I' for Inactive)
REMARK    1  A    between atoms: N_9  and  S_11
REMARK    2  A    between atoms: S_11  and  C_14
REMARK    3  A    between atoms: C_23  and  C_24
REMARK                            x       y       z     vdW  Elec       q    Type
REMARK                         _______ _______ _______ _____ _____    ______ ____
ROOT
ATOM      1  O   UNL     1       0.679  -3.514   0.000  0.00  0.00    -0.267 OA
ATOM      2  C   UNL     1       1.157  -2.841   0.000  0.00  0.00    +0.261 A 
ATOM      3  N   UNL     1       0.813  -2.091   0.000  0.00  0.00    -0.299 N 
ATOM      4  C   UNL     1       1.629  -1.912   0.000  0.00  0.00    +0.110 C 
ATOM      5  C   UNL     1       1.582  -0.925   0.000  0.00  0.00    +0.041 C 
ATOM      6  C   UNL     1       1.713  -0.121   0.000  0.00  0.00    +0.011 C 
ATOM      7  C   UNL     1       1.163  -0.557   0.000  0.00  0.00    +0.056 C 
ATOM      8  C   UNL     1       0.244  -0.558   0.000  0.00  0.00    +0.102 C 
ATOM      9  N   UNL     1       0.117  -1.360   0.000  0.00  0.00    -0.155 NA
ATOM     10  C   UNL     1       0.622  -0.936   0.000  0.00  0.00    +0.098 C 
ATOM     20  C   UNL     1       1.290  -1.419   0.000  0.00  0.00    +0.041 A 
ATOM     21  C   UNL     1       2.111  -1.496   0.000  0.00  0.00    +0.013 A 
ATOM     22  C   UNL     1       2.455  -2.245   0.000  0.00  0.00    +0.006 A 
ATOM     23  C   UNL     1       1.978  -2.918   0.000  0.00  0.00    +0.059 A 
ENDROOT
BRANCH  23  24
ATOM     24  C   UNL     1       2.322  -3.668   0.000  0.00  0.00    +0.043 A 
ATOM     25  C   UNL     1       3.144  -3.745   0.000  0.00  0.00    +0.102 A 
ATOM     26  N   UNL     1       3.488  -4.495   0.000  0.00  0.00    -0.222 NA
ATOM     27  C   UNL     1       3.010  -5.168   0.000  0.00  0.00    +0.199 A 
ATOM     28  N   UNL     1       2.189  -5.091   0.000  0.00  0.00    -0.222 NA
ATOM     29  C   UNL     1       1.845  -4.341   0.000  0.00  0.00    +0.102 A 
ENDBRANCH  23  24
BRANCH   9  11
ATOM     11  S   UNL     1      -0.288  -2.078   0.000  0.00  0.00    +0.063 S 
ATOM     12  O   UNL     1       0.430  -2.484   0.000  0.00  0.00    -0.153 OA
ATOM     13  O   UNL     1      -1.007  -1.673   0.000  0.00  0.00    -0.153 OA
BRANCH  11  14
ATOM     14  C   UNL     1      -0.694  -2.797   0.000  0.00  0.00    +0.122 A 
ATOM     15  C   UNL     1      -0.275  -3.507   0.000  0.00  0.00    +0.020 A 
ATOM     16  C   UNL     1      -0.681  -4.226   0.000  0.00  0.00    +0.001 A 
ATOM     17  C   UNL     1      -1.506  -4.233   0.000  0.00  0.00    +0.000 A 
ATOM     18  C   UNL     1      -1.925  -3.523   0.000  0.00  0.00    +0.001 A 
ATOM     19  C   UNL     1      -1.519  -2.804   0.000  0.00  0.00    +0.020 A 
ENDBRANCH  11  14
ENDBRANCH   9  11
TORSDOF 3
