REMARK  Name = 
REMARK  7 active torsions:
REMARK  status: ('A' for Active; 'I' for Inactive)
REMARK    1  A    between atoms: O_2  and  C_3
REMARK    2  A    between atoms: C_6  and  C_9
REMARK    3  A    between atoms: N_11  and  C_12
REMARK    4  A    between atoms: C_12  and  C_13
REMARK    5  A    between atoms: C_16  and  N_17
REMARK    6  A    between atoms: N_17  and  C_18
REMARK    7  A    between atoms: C_18  and  C_19
REMARK                            x       y       z     vdW  Elec       q    Type
REMARK                         _______ _______ _______ _____ _____    ______ ____
ROOT
ATOM     13  C   UNL     1       1.429  -2.475   0.000  0.00  0.00    +0.169 C 
ATOM     14  O   UNL     1       2.096  -2.960   0.000  0.00  0.00    -0.350 OA
ATOM     15  C   UNL     1       1.841  -3.744   0.000  0.00  0.00    +0.162 C 
ATOM     16  C   UNL     1       1.016  -3.744   0.000  0.00  0.00    +0.135 C 
ATOM     26  C   UNL     1       0.761  -2.960   0.000  0.00  0.00    +0.199 C 
ATOM     27  O   UNL     1      -0.023  -2.705   0.000  0.00  0.00    -0.219 OA
ENDROOT
BRANCH  13  12
ATOM     12  C   UNL     1       1.429  -1.650   0.000  0.00  0.00    +0.148 C 
BRANCH  12  11
ATOM      9  C   UNL     1       2.143  -0.412   0.000  0.00  0.00    +0.265 C 
ATOM     10  O   UNL     1       1.429   0.000   0.000  0.00  0.00    -0.268 OA
ATOM     11  N   UNL     1       2.143  -1.238   0.000  0.00  0.00    -0.199 NA
BRANCH   9   6
ATOM      3  C   UNL     1       4.287   0.825   0.000  0.00  0.00    +0.139 A 
ATOM      4  C   UNL     1       4.287   0.000   0.000  0.00  0.00    +0.037 A 
ATOM      5  C   UNL     1       3.572  -0.412   0.000  0.00  0.00    +0.008 A 
ATOM      6  C   UNL     1       2.858   0.000   0.000  0.00  0.00    +0.055 A 
ATOM      7  C   UNL     1       2.858   0.825   0.000  0.00  0.00    +0.008 A 
ATOM      8  C   UNL     1       3.572   1.238   0.000  0.00  0.00    +0.037 A 
BRANCH   3   2
ATOM      1  C   UNL     1       5.001   2.062   0.000  0.00  0.00    +0.252 C 
ATOM      2  O   UNL     1       5.001   1.238   0.000  0.00  0.00    -0.471 OA
ENDBRANCH   3   2
ENDBRANCH   9   6
ENDBRANCH  12  11
ENDBRANCH  13  12
BRANCH  16  17
ATOM     17  N   UNL     1       0.531  -4.412   0.000  0.00  0.00    -0.209 NA
BRANCH  17  18
ATOM     18  C   UNL     1       0.867  -5.166   0.000  0.00  0.00    +0.115 C 
BRANCH  18  19
ATOM     19  C   UNL     1       0.382  -5.833   0.000  0.00  0.00    -0.005 A 
ATOM     20  C   UNL     1       0.718  -6.587   0.000  0.00  0.00    -0.001 A 
ATOM     21  C   UNL     1       0.233  -7.254   0.000  0.00  0.00    +0.029 A 
ATOM     22  C   UNL     1      -0.588  -7.168   0.000  0.00  0.00    +0.140 A 
ATOM     23  F   UNL     1      -1.073  -7.835   0.000  0.00  0.00    -0.204 F 
ATOM     24  C   UNL     1      -0.923  -6.414   0.000  0.00  0.00    +0.029 A 
ATOM     25  C   UNL     1      -0.438  -5.747   0.000  0.00  0.00    -0.001 A 
ENDBRANCH  18  19
ENDBRANCH  17  18
ENDBRANCH  16  17
TORSDOF 7
