REMARK  Name = 
REMARK  5 active torsions:
REMARK  status: ('A' for Active; 'I' for Inactive)
REMARK    1  A    between atoms: C_2  and  C_4
REMARK    2  A    between atoms: C_4  and  C_5
REMARK    3  A    between atoms: C_5  and  C_6
REMARK    4  A    between atoms: C_15  and  C_22
REMARK    5  A    between atoms: C_24  and  C_28
REMARK                            x       y       z     vdW  Elec       q    Type
REMARK                         _______ _______ _______ _____ _____    ______ ____
ROOT
ATOM      6  C   UNL     1       0.125  -2.547   0.000  0.00  0.00    +0.226 C 
ATOM      7  O   UNL     1      -0.614  -2.179   0.000  0.00  0.00    -0.275 OA
ATOM      8  N   UNL     1       0.813  -2.091   0.000  0.00  0.00    -0.279 N 
ATOM      9  C   UNL     1       1.629  -1.912   0.000  0.00  0.00    +0.095 C 
ATOM     10  C   UNL     1       1.582  -0.925   0.000  0.00  0.00    +0.043 C 
ATOM     11  C   UNL     1       1.713  -0.121   0.000  0.00  0.00    +0.011 C 
ATOM     12  C   UNL     1       1.163  -0.557   0.000  0.00  0.00    +0.058 C 
ATOM     13  C   UNL     1       1.225  -1.510   0.000  0.00  0.00    +0.099 C 
ATOM     14  C   UNL     1       0.244  -0.558   0.000  0.00  0.00    +0.041 A 
ATOM     15  C   UNL     1      -0.397  -0.039   0.000  0.00  0.00    +0.012 A 
ATOM     16  C   UNL     1      -1.167  -0.335   0.000  0.00  0.00    +0.006 A 
ATOM     17  C   UNL     1      -1.296  -1.150   0.000  0.00  0.00    +0.061 A 
ATOM     18  C   UNL     1      -0.655  -1.669   0.000  0.00  0.00    +0.261 A 
ATOM     19  O   UNL     1      -1.029  -2.404   0.000  0.00  0.00    -0.267 OA
ATOM     20  N   UNL     1       0.115  -1.373   0.000  0.00  0.00    -0.299 N 
ATOM     21  C   UNL     1       0.622  -0.936   0.000  0.00  0.00    +0.110 C 
ENDROOT
BRANCH  15  22
ATOM     22  C   UNL     1      -0.268   0.776   0.000  0.00  0.00    +0.002 A 
ATOM     23  C   UNL     1      -0.909   1.295   0.000  0.00  0.00    +0.010 A 
ATOM     24  C   UNL     1      -0.780   2.110   0.000  0.00  0.00    +0.068 A 
ATOM     25  C   UNL     1      -0.010   2.406   0.000  0.00  0.00    +0.010 A 
ATOM     26  C   UNL     1       0.631   1.887   0.000  0.00  0.00    +0.001 A 
ATOM     27  C   UNL     1       0.502   1.072   0.000  0.00  0.00    +0.000 A 
BRANCH  24  28
ATOM     28  C   UNL     1      -1.421   2.629   0.000  0.00  0.00    +0.100 C 
ATOM     29  N   UNL     1      -2.063   3.148   0.000  0.00  0.00    -0.191 NA
ENDBRANCH  24  28
ENDBRANCH  15  22
BRANCH   6   5
ATOM      5  C   UNL     1       0.176  -3.370   0.000  0.00  0.00    +0.097 C 
BRANCH   5   4
ATOM      4  C   UNL     1      -0.512  -3.826   0.000  0.00  0.00    +0.124 C 
BRANCH   4   2
ATOM      1  O   UNL     1      -1.149  -5.105   0.000  0.00  0.00    -0.246 OA
ATOM      2  C   UNL     1      -0.461  -4.650   0.000  0.00  0.00    +0.365 C 
ATOM      3  O   UNL     1       0.277  -5.017   0.000  0.00  0.00    -0.246 OA
ENDBRANCH   4   2
ENDBRANCH   5   4
ENDBRANCH   6   5
TORSDOF 5
