REMARK  Name = 
REMARK  2 active torsions:
REMARK  status: ('A' for Active; 'I' for Inactive)
REMARK    1  A    between atoms: C_12  and  C_13
REMARK    2  A    between atoms: C_13  and  C_15
REMARK                            x       y       z     vdW  Elec       q    Type
REMARK                         _______ _______ _______ _____ _____    ______ ____
ROOT
ATOM      1  C   UNL     1       5.365  -0.302   0.000  0.00  0.00    +0.138 C 
ATOM      2  N   UNL     1       4.952   0.412   0.000  0.00  0.00    -0.213 NA
ATOM      3  C   UNL     1       4.127   0.412   0.000  0.00  0.00    +0.179 A 
ATOM      4  N   UNL     1       3.643   1.080   0.000  0.00  0.00    -0.228 NA
ATOM      5  C   UNL     1       2.858   0.825   0.000  0.00  0.00    +0.063 A 
ATOM      6  C   UNL     1       2.858   0.000   0.000  0.00  0.00    +0.023 A 
ATOM      7  C   UNL     1       2.143  -0.412   0.000  0.00  0.00    +0.034 C 
ATOM      8  C   UNL     1       1.429   0.000   0.000  0.00  0.00    +0.007 C 
ATOM      9  C   UNL     1       1.429  -0.825   0.000  0.00  0.00    +0.000 C 
ATOM     10  C   UNL     1       0.715  -0.412   0.000  0.00  0.00    +0.001 C 
ATOM     11  C   UNL     1       0.000   0.000   0.000  0.00  0.00    +0.003 C 
ATOM     12  C   UNL     1       0.000   0.825   0.000  0.00  0.00    +0.039 C 
ATOM     23  C   UNL     1       0.715   1.238   0.000  0.00  0.00    +0.153 C 
ATOM     24  O   UNL     1       0.715   2.062   0.000  0.00  0.00    -0.223 OA
ATOM     25  C   UNL     1       1.429   0.825   0.000  0.00  0.00    +0.036 C 
ATOM     26  C   UNL     1       2.143   1.238   0.000  0.00  0.00    +0.043 C 
ATOM     27  C   UNL     1       2.143   2.062   0.000  0.00  0.00    +0.006 C 
ATOM     28  S   UNL     1       3.643  -0.255   0.000  0.00  0.00    -0.055 S 
ENDROOT
BRANCH  12  13
ATOM     13  C   UNL     1      -0.715   1.238   0.000  0.00  0.00    +0.079 C 
ATOM     14  C   UNL     1      -0.715   2.062   0.000  0.00  0.00    +0.010 C 
BRANCH  13  15
ATOM     15  C   UNL     1      -1.429   0.825   0.000  0.00  0.00    +0.225 C 
ATOM     16  O   UNL     1      -1.429   0.000   0.000  0.00  0.00    -0.275 OA
ATOM     17  N   UNL     1      -2.143   1.238   0.000  0.00  0.00    -0.278 N 
ATOM     18  C   UNL     1      -2.858   0.825   0.000  0.00  0.00    +0.105 C 
ATOM     19  C   UNL     1      -3.572   1.238   0.000  0.00  0.00    +0.079 C 
ATOM     20  S   UNL     1      -3.572   2.062   0.000  0.00  0.00    -0.137 S 
ATOM     21  C   UNL     1      -2.858   2.475   0.000  0.00  0.00    +0.079 C 
ATOM     22  C   UNL     1      -2.143   2.062   0.000  0.00  0.00    +0.105 C 
ENDBRANCH  13  15
ENDBRANCH  12  13
TORSDOF 2
