REMARK  Name = 
REMARK  8 active torsions:
REMARK  status: ('A' for Active; 'I' for Inactive)
REMARK    1  A    between atoms: C_2  and  C_3
REMARK    2  A    between atoms: C_5  and  O_25
REMARK    3  A    between atoms: C_10  and  C_11
REMARK    4  A    between atoms: C_11  and  C_12
REMARK    5  A    between atoms: O_25  and  C_26
REMARK    6  A    between atoms: N_28  and  C_29
REMARK    7  A    between atoms: C_32  and  O_33
REMARK    8  A    between atoms: O_33  and  C_34
REMARK                            x       y       z     vdW  Elec       q    Type
REMARK                         _______ _______ _______ _____ _____    ______ ____
ROOT
ATOM      1  C   UNL     1       0.899  -2.282   0.000  0.00  0.00    +0.006 C 
ATOM      2  C   UNL     1       1.429  -1.650   0.000  0.00  0.00    +0.068 C 
ATOM      5  C   UNL     1       0.715  -1.238   0.000  0.00  0.00    +0.173 C 
ATOM      6  C   UNL     1       0.715  -0.412   0.000  0.00  0.00    +0.044 C 
ATOM      7  C   UNL     1       1.429   0.000   0.000  0.00  0.00    +0.004 C 
ATOM      8  C   UNL     1       2.143  -0.412   0.000  0.00  0.00    +0.003 C 
ATOM      9  C   UNL     1       2.143   0.412   0.000  0.00  0.00    +0.000 C 
ATOM     10  C   UNL     1       2.858   0.000   0.000  0.00  0.00    +0.040 C 
ATOM     20  C   UNL     1       3.572  -0.412   0.000  0.00  0.00    +0.152 C 
ATOM     21  O   UNL     1       4.287   0.000   0.000  0.00  0.00    -0.223 OA
ATOM     22  C   UNL     1       3.572  -1.238   0.000  0.00  0.00    +0.033 C 
ATOM     23  C   UNL     1       2.858  -1.650   0.000  0.00  0.00    +0.003 C 
ATOM     24  C   UNL     1       2.143  -1.238   0.000  0.00  0.00    +0.006 C 
ENDROOT
BRANCH   2   3
ATOM      3  C   UNL     1       1.959  -2.282   0.000  0.00  0.00    +0.185 C 
ATOM      4  O   UNL     1       2.772  -2.139   0.000  0.00  0.00    -0.220 OA
ENDBRANCH   2   3
BRANCH  10  11
ATOM     11  C   UNL     1       2.858   0.825   0.000  0.00  0.00    +0.088 C 
BRANCH  11  12
ATOM     12  C   UNL     1       3.572   1.238   0.000  0.00  0.00    +0.226 C 
ATOM     13  O   UNL     1       4.287   0.825   0.000  0.00  0.00    -0.275 OA
ATOM     14  N   UNL     1       3.572   2.062   0.000  0.00  0.00    -0.277 N 
ATOM     15  C   UNL     1       2.905   2.547   0.000  0.00  0.00    +0.096 C 
ATOM     16  C   UNL     1       3.160   3.332   0.000  0.00  0.00    +0.056 C 
ATOM     17  C   UNL     1       3.985   3.332   0.000  0.00  0.00    +0.173 C 
ATOM     18  O   UNL     1       4.470   3.999   0.000  0.00  0.00    -0.221 OA
ATOM     19  C   UNL     1       4.240   2.547   0.000  0.00  0.00    +0.126 C 
ENDBRANCH  11  12
ENDBRANCH  10  11
BRANCH   5  25
ATOM     25  O   UNL     1       0.000  -1.650   0.000  0.00  0.00    -0.437 OA
BRANCH  25  26
ATOM     26  C   UNL     1      -0.715  -1.238   0.000  0.00  0.00    +0.425 C 
ATOM     27  O   UNL     1      -0.715  -0.412   0.000  0.00  0.00    -0.224 OA
ATOM     28  N   UNL     1      -1.429  -1.650   0.000  0.00  0.00    -0.142 NA
BRANCH  28  29
ATOM     29  C   UNL     1      -2.143  -1.238   0.000  0.00  0.00    +0.077 A 
ATOM     30  C   UNL     1      -2.858  -1.650   0.000  0.00  0.00    +0.020 A 
ATOM     31  C   UNL     1      -3.572  -1.238   0.000  0.00  0.00    +0.039 A 
ATOM     32  C   UNL     1      -3.572  -0.412   0.000  0.00  0.00    +0.145 A 
ATOM     40  C   UNL     1      -2.858   0.000   0.000  0.00  0.00    +0.039 A 
ATOM     41  C   UNL     1      -2.143  -0.412   0.000  0.00  0.00    +0.020 A 
BRANCH  32  33
ATOM     33  O   UNL     1      -4.287   0.000   0.000  0.00  0.00    -0.453 OA
BRANCH  33  34
ATOM     34  C   UNL     1      -5.001  -0.412   0.000  0.00  0.00    +0.145 A 
ATOM     35  C   UNL     1      -5.001  -1.238   0.000  0.00  0.00    +0.037 A 
ATOM     36  C   UNL     1      -5.716  -1.650   0.000  0.00  0.00    +0.003 A 
ATOM     37  C   UNL     1      -6.430  -1.238   0.000  0.00  0.00    +0.000 A 
ATOM     38  C   UNL     1      -6.430  -0.412   0.000  0.00  0.00    +0.003 A 
ATOM     39  C   UNL     1      -5.716   0.000   0.000  0.00  0.00    +0.037 A 
ENDBRANCH  33  34
ENDBRANCH  32  33
ENDBRANCH  28  29
ENDBRANCH  25  26
ENDBRANCH   5  25
TORSDOF 8
