REMARK  Name = 
REMARK  4 active torsions:
REMARK  status: ('A' for Active; 'I' for Inactive)
REMARK    1  A    between atoms: O_2  and  C_3
REMARK    2  A    between atoms: C_4  and  C_9
REMARK    3  A    between atoms: N_11  and  C_12
REMARK    4  A    between atoms: N_18  and  C_20
REMARK                            x       y       z     vdW  Elec       q    Type
REMARK                         _______ _______ _______ _____ _____    ______ ____
ROOT
ATOM     12  C   UNL     1      -0.397  -0.039   0.000  0.00  0.00    +0.086 A 
ATOM     13  C   UNL     1       0.244  -0.558   0.000  0.00  0.00    +0.056 A 
ATOM     14  C   UNL     1       1.163  -0.557   0.000  0.00  0.00    +0.056 C 
ATOM     15  C   UNL     1       1.713  -0.121   0.000  0.00  0.00    +0.011 C 
ATOM     16  C   UNL     1       1.582  -0.925   0.000  0.00  0.00    +0.039 C 
ATOM     17  C   UNL     1       1.629  -1.912   0.000  0.00  0.00    +0.074 C 
ATOM     18  N   UNL     1       0.813  -2.091   0.000  0.00  0.00    -0.273 NA
ATOM     19  C   UNL     1       1.225  -1.510   0.000  0.00  0.00    +0.078 C 
ATOM     29  C   UNL     1       0.622  -0.936   0.000  0.00  0.00    +0.110 C 
ATOM     30  N   UNL     1       0.115  -1.373   0.000  0.00  0.00    -0.298 N 
ATOM     31  C   UNL     1      -0.655  -1.669   0.000  0.00  0.00    +0.261 A 
ATOM     32  O   UNL     1      -1.238  -2.252   0.000  0.00  0.00    -0.267 OA
ATOM     33  C   UNL     1      -1.296  -1.150   0.000  0.00  0.00    +0.062 A 
ATOM     34  C   UNL     1      -1.167  -0.335   0.000  0.00  0.00    +0.023 A 
ENDROOT
BRANCH  18  20
ATOM     20  C   UNL     1       0.125  -2.547   0.000  0.00  0.00    +0.061 C 
ATOM     21  C   UNL     1       0.176  -3.370   0.000  0.00  0.00    +0.038 C 
ATOM     22  C   UNL     1      -0.512  -3.826   0.000  0.00  0.00    +0.095 C 
ATOM     23  N   UNL     1      -1.251  -3.458   0.000  0.00  0.00    -0.279 N 
ATOM     24  C   UNL     1      -1.301  -2.635   0.000  0.00  0.00    +0.095 C 
ATOM     25  C   UNL     1      -0.614  -2.179   0.000  0.00  0.00    +0.038 C 
ATOM     26  C   UNL     1      -1.938  -3.914   0.000  0.00  0.00    +0.226 C 
ATOM     27  C   UNL     1      -1.888  -4.737   0.000  0.00  0.00    +0.095 C 
ATOM     28  O   UNL     1      -2.677  -3.546   0.000  0.00  0.00    -0.275 OA
ENDBRANCH  18  20
BRANCH  12  11
ATOM      9  C   UNL     1      -0.909   1.295   0.000  0.00  0.00    +0.272 C 
ATOM     10  O   UNL     1      -1.679   0.999   0.000  0.00  0.00    -0.268 OA
ATOM     11  N   UNL     1      -0.268   0.776   0.000  0.00  0.00    -0.174 NA
BRANCH   9   4
ATOM      3  C   UNL     1      -0.010   2.406   0.000  0.00  0.00    +0.143 A 
ATOM      4  C   UNL     1      -0.780   2.110   0.000  0.00  0.00    +0.089 A 
ATOM      5  C   UNL     1      -1.421   2.629   0.000  0.00  0.00    +0.008 A 
ATOM      6  C   UNL     1      -1.292   3.444   0.000  0.00  0.00    +0.000 A 
ATOM      7  C   UNL     1      -0.522   3.740   0.000  0.00  0.00    +0.003 A 
ATOM      8  C   UNL     1       0.119   3.220   0.000  0.00  0.00    +0.037 A 
BRANCH   3   2
ATOM      1  C   UNL     1       1.401   2.182   0.000  0.00  0.00    +0.252 C 
ATOM      2  O   UNL     1       0.631   1.887   0.000  0.00  0.00    -0.471 OA
ENDBRANCH   3   2
ENDBRANCH   9   4
ENDBRANCH  12  11
TORSDOF 4
