REMARK  Name = 
REMARK  2 active torsions:
REMARK  status: ('A' for Active; 'I' for Inactive)
REMARK    1  A    between atoms: N_7  and  C_8
REMARK    2  A    between atoms: C_8  and  C_9
REMARK                            x       y       z     vdW  Elec       q    Type
REMARK                         _______ _______ _______ _____ _____    ______ ____
ROOT
ATOM      8  C   UNL     1       3.279   2.062   0.000  0.00  0.00    +0.102 C 
ENDROOT
BRANCH   8   9
ATOM      9  C   UNL     1       3.279   1.238   0.000  0.00  0.00    +0.031 A 
ATOM     10  C   UNL     1       3.993   0.825   0.000  0.00  0.00    +0.000 A 
ATOM     11  C   UNL     1       3.993   0.000   0.000  0.00  0.00    +0.003 A 
ATOM     12  C   UNL     1       3.279  -0.412   0.000  0.00  0.00    +0.040 A 
ATOM     13  C   UNL     1       2.564   0.000   0.000  0.00  0.00    +0.176 A 
ATOM     14  C   UNL     1       2.564   0.825   0.000  0.00  0.00    +0.174 A 
ATOM     15  O   UNL     1       1.780   1.080   0.000  0.00  0.00    -0.435 OA
ATOM     16  C   UNL     1       1.295   0.412   0.000  0.00  0.00    +0.429 C 
ATOM     17  O   UNL     1       1.780  -0.255   0.000  0.00  0.00    -0.435 OA
ENDBRANCH   8   9
BRANCH   8   7
ATOM      1  O   UNL     1       0.533   1.649   0.000  0.00  0.00    -0.219 OA
ATOM      2  C   UNL     1       1.095   2.253   0.000  0.00  0.00    +0.197 C 
ATOM      3  C   UNL     1       0.793   3.021   0.000  0.00  0.00    +0.176 C 
ATOM      4  O   UNL     1       1.206   3.736   0.000  0.00  0.00    -0.350 OA
ATOM      5  C   UNL     1       2.021   3.859   0.000  0.00  0.00    +0.160 C 
ATOM      6  C   UNL     1       2.626   3.298   0.000  0.00  0.00    +0.105 C 
ATOM      7  N   UNL     1       2.564   2.475   0.000  0.00  0.00    -0.264 NA
ATOM     18  C   UNL     1       1.883   2.010   0.000  0.00  0.00    +0.108 C 
ENDBRANCH   8   7
TORSDOF 2
