REMARK  Name = 
REMARK  8 active torsions:
REMARK  status: ('A' for Active; 'I' for Inactive)
REMARK    1  A    between atoms: C_2  and  O_3
REMARK    2  A    between atoms: O_3  and  C_4
REMARK    3  A    between atoms: C_4  and  C_6
REMARK    4  A    between atoms: C_9  and  N_10
REMARK    5  A    between atoms: C_18  and  C_19
REMARK    6  A    between atoms: C_21  and  C_24
REMARK    7  A    between atoms: C_27  and  O_28
REMARK    8  A    between atoms: O_28  and  C_29
REMARK                            x       y       z     vdW  Elec       q    Type
REMARK                         _______ _______ _______ _____ _____    ______ ____
ROOT
ATOM     10  N   UNL     1       2.784  -0.127   0.000  0.00  0.00    -0.162 NA
ATOM     11  C   UNL     1       2.784   0.698   0.000  0.00  0.00    +0.328 C 
ATOM     12  O   UNL     1       3.499   1.110   0.000  0.00  0.00    -0.250 OA
ATOM     13  N   UNL     1       2.070   1.110   0.000  0.00  0.00    -0.249 N 
ATOM     14  C   UNL     1       1.356   0.698   0.000  0.00  0.00    +0.143 C 
ATOM     15  C   UNL     1       0.641   1.110   0.000  0.00  0.00    +0.094 A 
ATOM     16  C   UNL     1       0.641   1.935   0.000  0.00  0.00    +0.078 A 
ATOM     17  C   UNL     1       1.356   2.348   0.000  0.00  0.00    +0.077 C 
ATOM     18  C   UNL     1       2.070   1.935   0.000  0.00  0.00    +0.162 C 
ATOM     35  N   UNL     1      -0.143   2.190   0.000  0.00  0.00    -0.227 NA
ATOM     36  C   UNL     1      -0.628   1.523   0.000  0.00  0.00    +0.198 A 
ATOM     37  N   UNL     1      -0.143   0.856   0.000  0.00  0.00    -0.225 NA
ENDROOT
BRANCH  10   9
ATOM      6  C   UNL     1       0.641  -1.365   0.000  0.00  0.00    +0.076 A 
ATOM      7  C   UNL     1       0.641  -0.540   0.000  0.00  0.00    +0.008 A 
ATOM      8  C   UNL     1       1.356  -0.127   0.000  0.00  0.00    +0.017 A 
ATOM      9  C   UNL     1       2.070  -0.540   0.000  0.00  0.00    +0.075 A 
ATOM     38  C   UNL     1       2.070  -1.365   0.000  0.00  0.00    +0.017 A 
ATOM     39  C   UNL     1       1.356  -1.777   0.000  0.00  0.00    +0.008 A 
BRANCH   6   4
ATOM      4  C   UNL     1      -0.073  -1.777   0.000  0.00  0.00    +0.341 C 
ATOM      5  O   UNL     1      -0.788  -1.365   0.000  0.00  0.00    -0.245 OA
BRANCH   4   3
ATOM      3  O   UNL     1      -0.073  -2.602   0.000  0.00  0.00    -0.445 OA
BRANCH   3   2
ATOM      1  C   UNL     1      -0.788  -3.840   0.000  0.00  0.00    +0.051 C 
ATOM      2  C   UNL     1      -0.788  -3.015   0.000  0.00  0.00    +0.209 C 
ENDBRANCH   3   2
ENDBRANCH   4   3
ENDBRANCH   6   4
ENDBRANCH  10   9
BRANCH  18  19
ATOM     19  C   UNL     1       2.784   2.348   0.000  0.00  0.00    +0.255 A 
ATOM     20  N   UNL     1       2.871   3.168   0.000  0.00  0.00    -0.189 NA
ATOM     21  C   UNL     1       3.678   3.340   0.000  0.00  0.00    +0.203 A 
ATOM     22  N   UNL     1       4.090   2.626   0.000  0.00  0.00    -0.056 NA
ATOM     23  O   UNL     1       3.538   2.012   0.000  0.00  0.00    -0.335 OA
BRANCH  21  24
ATOM     24  C   UNL     1       4.013   4.094   0.000  0.00  0.00    +0.039 A 
ATOM     25  C   UNL     1       3.528   4.761   0.000  0.00  0.00    +0.006 A 
ATOM     26  C   UNL     1       3.864   5.515   0.000  0.00  0.00    +0.037 A 
ATOM     27  C   UNL     1       4.684   5.601   0.000  0.00  0.00    +0.147 A 
ATOM     33  C   UNL     1       5.169   4.934   0.000  0.00  0.00    +0.037 A 
ATOM     34  C   UNL     1       4.834   4.180   0.000  0.00  0.00    +0.006 A 
BRANCH  27  28
ATOM     28  O   UNL     1       5.020   6.355   0.000  0.00  0.00    -0.404 OA
BRANCH  28  29
ATOM     29  C   UNL     1       4.535   7.022   0.000  0.00  0.00    +0.575 C 
ATOM     30  F   UNL     1       4.050   7.689   0.000  0.00  0.00    -0.133 F 
ATOM     31  F   UNL     1       5.202   7.507   0.000  0.00  0.00    -0.133 F 
ATOM     32  F   UNL     1       3.868   6.537   0.000  0.00  0.00    -0.133 F 
ENDBRANCH  28  29
ENDBRANCH  27  28
ENDBRANCH  21  24
ENDBRANCH  18  19
TORSDOF 8
