REMARK  Name = 
REMARK  7 active torsions:
REMARK  status: ('A' for Active; 'I' for Inactive)
REMARK    1  A    between atoms: C_4  and  C_6
REMARK    2  A    between atoms: C_6  and  N_7
REMARK    3  A    between atoms: C_8  and  C_9
REMARK    4  A    between atoms: C_11  and  C_16
REMARK    5  A    between atoms: C_19  and  N_20
REMARK    6  A    between atoms: N_20  and  S_21
REMARK    7  A    between atoms: S_21  and  C_24
REMARK                            x       y       z     vdW  Elec       q    Type
REMARK                         _______ _______ _______ _____ _____    ______ ____
ROOT
ATOM     16  C   UNL     1       5.716  -4.950   0.000  0.00  0.00    +0.006 A 
ATOM     17  C   UNL     1       6.430  -4.537   0.000  0.00  0.00    -0.001 A 
ATOM     18  C   UNL     1       7.145  -4.950   0.000  0.00  0.00    +0.018 A 
ATOM     19  C   UNL     1       7.145  -5.775   0.000  0.00  0.00    +0.091 A 
ATOM     31  C   UNL     1       6.430  -6.188   0.000  0.00  0.00    +0.018 A 
ATOM     32  C   UNL     1       5.716  -5.775   0.000  0.00  0.00    -0.001 A 
ENDROOT
BRANCH  16  11
ATOM      7  N   UNL     1       4.287  -3.300   0.000  0.00  0.00    -0.265 N 
ATOM      8  C   UNL     1       5.001  -3.712   0.000  0.00  0.00    +0.140 C 
ATOM     11  C   UNL     1       5.001  -4.537   0.000  0.00  0.00    +0.159 C 
ATOM     12  O   UNL     1       4.287  -4.950   0.000  0.00  0.00    -0.341 OA
ATOM     13  C   UNL     1       3.572  -4.537   0.000  0.00  0.00    +0.227 C 
ATOM     14  C   UNL     1       3.572  -3.712   0.000  0.00  0.00    +0.256 C 
ATOM     15  O   UNL     1       2.858  -3.300   0.000  0.00  0.00    -0.272 OA
BRANCH   8   9
ATOM      9  C   UNL     1       5.716  -3.300   0.000  0.00  0.00    +0.205 C 
ATOM     10  O   UNL     1       6.430  -3.712   0.000  0.00  0.00    -0.218 OA
ENDBRANCH   8   9
BRANCH   7   6
ATOM      6  C   UNL     1       4.287  -2.475   0.000  0.00  0.00    +0.179 C 
BRANCH   6   4
ATOM      1  C   UNL     1       2.858  -0.825   0.000  0.00  0.00    +0.115 C 
ATOM      2  N   UNL     1       3.572  -1.238   0.000  0.00  0.00    -0.275 N 
ATOM      3  C   UNL     1       4.287  -0.825   0.000  0.00  0.00    +0.115 C 
ATOM      4  C   UNL     1       3.572  -2.062   0.000  0.00  0.00    +0.246 C 
ATOM      5  O   UNL     1       2.858  -2.475   0.000  0.00  0.00    -0.273 OA
ENDBRANCH   6   4
ENDBRANCH   7   6
ENDBRANCH  16  11
BRANCH  19  20
ATOM     20  N   UNL     1       7.859  -6.188   0.000  0.00  0.00    -0.097 NA
BRANCH  20  21
ATOM     21  S   UNL     1       7.859  -7.013   0.000  0.00  0.00    +0.093 S 
ATOM     22  O   UNL     1       7.034  -7.013   0.000  0.00  0.00    -0.148 OA
ATOM     23  O   UNL     1       8.684  -7.013   0.000  0.00  0.00    -0.148 OA
BRANCH  21  24
ATOM     24  C   UNL     1       7.859  -7.838   0.000  0.00  0.00    +0.127 A 
ATOM     25  C   UNL     1       8.574  -8.250   0.000  0.00  0.00    +0.023 A 
ATOM     26  C   UNL     1       8.574  -9.075   0.000  0.00  0.00    +0.031 A 
ATOM     27  C   UNL     1       7.859  -9.488   0.000  0.00  0.00    +0.140 A 
ATOM     28  F   UNL     1       7.859 -10.312   0.000  0.00  0.00    -0.204 F 
ATOM     29  C   UNL     1       7.145  -9.075   0.000  0.00  0.00    +0.031 A 
ATOM     30  C   UNL     1       7.145  -8.250   0.000  0.00  0.00    +0.023 A 
ENDBRANCH  21  24
ENDBRANCH  20  21
ENDBRANCH  19  20
TORSDOF 7
