REMARK  Name = 
REMARK  6 active torsions:
REMARK  status: ('A' for Active; 'I' for Inactive)
REMARK    1  A    between atoms: C_2  and  C_4
REMARK    2  A    between atoms: N_6  and  C_7
REMARK    3  A    between atoms: C_10  and  C_13
REMARK    4  A    between atoms: N_18  and  C_19
REMARK    5  A    between atoms: C_19  and  C_20
REMARK    6  A    between atoms: C_26  and  C_27
REMARK                            x       y       z     vdW  Elec       q    Type
REMARK                         _______ _______ _______ _____ _____    ______ ____
ROOT
ATOM     13  C   UNL     1       1.322   2.413   0.000  0.00  0.00    +0.159 C 
ATOM     14  O   UNL     1       1.322   3.238   0.000  0.00  0.00    -0.341 OA
ATOM     15  C   UNL     1       2.037   3.651   0.000  0.00  0.00    +0.227 C 
ATOM     16  C   UNL     1       2.751   3.238   0.000  0.00  0.00    +0.256 C 
ATOM     17  O   UNL     1       3.466   3.651   0.000  0.00  0.00    -0.272 OA
ATOM     18  N   UNL     1       2.751   2.413   0.000  0.00  0.00    -0.267 N 
ATOM     26  C   UNL     1       2.037   2.001   0.000  0.00  0.00    +0.140 C 
ENDROOT
BRANCH  13  10
ATOM      7  C   UNL     1      -0.821   1.176   0.000  0.00  0.00    +0.073 A 
ATOM      8  C   UNL     1      -0.821   2.001   0.000  0.00  0.00    +0.016 A 
ATOM      9  C   UNL     1      -0.107   2.413   0.000  0.00  0.00    -0.001 A 
ATOM     10  C   UNL     1       0.608   2.001   0.000  0.00  0.00    +0.006 A 
ATOM     11  C   UNL     1       0.608   1.176   0.000  0.00  0.00    -0.001 A 
ATOM     12  C   UNL     1      -0.107   0.763   0.000  0.00  0.00    +0.016 A 
BRANCH   7   6
ATOM      4  C   UNL     1      -1.536  -0.062   0.000  0.00  0.00    +0.245 C 
ATOM      5  O   UNL     1      -0.821  -0.474   0.000  0.00  0.00    -0.273 OA
ATOM      6  N   UNL     1      -1.536   0.763   0.000  0.00  0.00    -0.179 NA
BRANCH   4   2
ATOM      1  C   UNL     1      -2.250  -1.299   0.000  0.00  0.00    +0.010 C 
ATOM      2  C   UNL     1      -2.250  -0.474   0.000  0.00  0.00    +0.079 C 
ATOM      3  C   UNL     1      -2.965  -0.062   0.000  0.00  0.00    +0.010 C 
ENDBRANCH   4   2
ENDBRANCH   7   6
ENDBRANCH  13  10
BRANCH  26  27
ATOM     27  C   UNL     1       2.037   1.176   0.000  0.00  0.00    +0.205 C 
ATOM     28  O   UNL     1       1.322   0.763   0.000  0.00  0.00    -0.218 OA
ENDBRANCH  26  27
BRANCH  18  19
ATOM     19  C   UNL     1       3.466   2.001   0.000  0.00  0.00    +0.158 C 
BRANCH  19  20
ATOM     20  C   UNL     1       3.466   1.176   0.000  0.00  0.00    +0.141 A 
ATOM     21  N   UNL     1       2.798   0.691   0.000  0.00  0.00    -0.228 NA
ATOM     22  C   UNL     1       3.053  -0.094   0.000  0.00  0.00    +0.119 A 
ATOM     23  C   UNL     1       3.878  -0.094   0.000  0.00  0.00    +0.098 A 
ATOM     24  N   UNL     1       4.133   0.691   0.000  0.00  0.00    -0.310 N 
ATOM     25  C   UNL     1       4.918   0.946   0.000  0.00  0.00    +0.132 C 
ENDBRANCH  19  20
ENDBRANCH  18  19
TORSDOF 6
