REMARK  Name = 
REMARK  8 active torsions:
REMARK  status: ('A' for Active; 'I' for Inactive)
REMARK    1  A    between atoms: O_2  and  C_3
REMARK    2  A    between atoms: C_8  and  C_10
REMARK    3  A    between atoms: N_12  and  C_13
REMARK    4  A    between atoms: C_13  and  C_14
REMARK    5  A    between atoms: C_16  and  C_17
REMARK    6  A    between atoms: C_21  and  N_22
REMARK    7  A    between atoms: N_25  and  C_28
REMARK    8  A    between atoms: C_30  and  C_34
REMARK                            x       y       z     vdW  Elec       q    Type
REMARK                         _______ _______ _______ _____ _____    ______ ____
ROOT
ATOM     14  C   UNL     1       0.715  -3.712   0.000  0.00  0.00    +0.154 C 
ATOM     15  O   UNL     1       1.382  -4.197   0.000  0.00  0.00    -0.350 OA
ATOM     16  C   UNL     1       1.127  -4.982   0.000  0.00  0.00    +0.180 C 
ATOM     19  C   UNL     1       0.302  -4.982   0.000  0.00  0.00    +0.198 C 
ATOM     20  O   UNL     1      -0.183  -5.649   0.000  0.00  0.00    -0.219 OA
ATOM     21  C   UNL     1       0.047  -4.197   0.000  0.00  0.00    +0.120 C 
ENDROOT
BRANCH  21  22
ATOM     22  N   UNL     1      -0.738  -3.942   0.000  0.00  0.00    -0.267 NA
ATOM     23  C   UNL     1      -1.351  -4.495   0.000  0.00  0.00    +0.094 C 
ATOM     24  C   UNL     1      -2.135  -4.240   0.000  0.00  0.00    +0.108 C 
ATOM     25  N   UNL     1      -2.307  -3.433   0.000  0.00  0.00    -0.305 N 
ATOM     26  C   UNL     1      -1.694  -2.881   0.000  0.00  0.00    +0.108 C 
ATOM     27  C   UNL     1      -0.909  -3.135   0.000  0.00  0.00    +0.094 C 
BRANCH  25  28
ATOM     28  C   UNL     1      -3.091  -3.178   0.000  0.00  0.00    +0.048 A 
ATOM     29  C   UNL     1      -3.704  -3.730   0.000  0.00  0.00    +0.018 A 
ATOM     30  C   UNL     1      -4.489  -3.475   0.000  0.00  0.00    +0.073 A 
ATOM     31  C   UNL     1      -4.661  -2.668   0.000  0.00  0.00    +0.004 A 
ATOM     32  C   UNL     1      -4.048  -2.116   0.000  0.00  0.00    +0.001 A 
ATOM     33  C   UNL     1      -3.263  -2.371   0.000  0.00  0.00    +0.015 A 
BRANCH  30  34
ATOM     34  C   UNL     1      -5.102  -4.027   0.000  0.00  0.00    +0.419 C 
ATOM     35  F   UNL     1      -5.715  -4.579   0.000  0.00  0.00    -0.166 F 
ATOM     36  F   UNL     1      -5.654  -3.414   0.000  0.00  0.00    -0.166 F 
ATOM     37  F   UNL     1      -4.550  -4.640   0.000  0.00  0.00    -0.166 F 
ENDBRANCH  30  34
ENDBRANCH  25  28
ENDBRANCH  21  22
BRANCH  16  17
ATOM     17  C   UNL     1       1.612  -5.649   0.000  0.00  0.00    +0.214 C 
ATOM     18  O   UNL     1       1.276  -6.403   0.000  0.00  0.00    -0.218 OA
ENDBRANCH  16  17
BRANCH  14  13
ATOM     13  C   UNL     1       0.715  -2.888   0.000  0.00  0.00    +0.146 C 
BRANCH  13  12
ATOM     10  C   UNL     1       1.429  -1.650   0.000  0.00  0.00    +0.266 C 
ATOM     11  O   UNL     1       0.715  -1.238   0.000  0.00  0.00    -0.268 OA
ATOM     12  N   UNL     1       1.429  -2.475   0.000  0.00  0.00    -0.199 NA
BRANCH  10   8
ATOM      3  C   UNL     1       2.858   0.000   0.000  0.00  0.00    +0.139 A 
ATOM      4  C   UNL     1       3.572  -0.412   0.000  0.00  0.00    +0.038 A 
ATOM      5  C   UNL     1       3.572  -1.238   0.000  0.00  0.00    +0.015 A 
ATOM      6  C   UNL     1       2.858  -1.650   0.000  0.00  0.00    +0.062 A 
ATOM      7 CL   UNL     1       2.858  -2.475   0.000  0.00  0.00    -0.082 Cl
ATOM      8  C   UNL     1       2.143  -1.238   0.000  0.00  0.00    +0.069 A 
ATOM      9  C   UNL     1       2.143  -0.412   0.000  0.00  0.00    +0.042 A 
BRANCH   3   2
ATOM      1  C   UNL     1       3.572   1.238   0.000  0.00  0.00    +0.252 C 
ATOM      2  O   UNL     1       2.858   0.825   0.000  0.00  0.00    -0.471 OA
ENDBRANCH   3   2
ENDBRANCH  10   8
ENDBRANCH  13  12
ENDBRANCH  14  13
TORSDOF 8
