REMARK  Name = 
REMARK  4 active torsions:
REMARK  status: ('A' for Active; 'I' for Inactive)
REMARK    1  A    between atoms: N_5  and  C_8
REMARK    2  A    between atoms: C_14  and  N_15
REMARK    3  A    between atoms: N_15  and  C_16
REMARK    4  A    between atoms: C_16  and  C_17
REMARK                            x       y       z     vdW  Elec       q    Type
REMARK                         _______ _______ _______ _____ _____    ______ ____
ROOT
ATOM      8  C   UNL     1       1.611  -0.930   0.000  0.00  0.00    +0.147 C 
ATOM      9  C   UNL     1       0.640  -0.930   0.000  0.00  0.00    +0.253 C 
ATOM     10  O   UNL     1       0.120  -1.643   0.000  0.00  0.00    -0.327 OA
ATOM     11  C   UNL     1       0.740  -1.266   0.000  0.00  0.00    +0.176 C 
ATOM     12  C   UNL     1       1.060  -0.557   0.000  0.00  0.00    +0.166 C 
ATOM     13  O   UNL     1       0.500  -0.117   0.000  0.00  0.00    -0.328 OA
ATOM     14  C   UNL     1       1.989  -0.542   0.000  0.00  0.00    +0.135 C 
ATOM     24  C   UNL     1       2.127  -1.359   0.000  0.00  0.00    +0.190 C 
ATOM     25  O   UNL     1       2.539  -2.074   0.000  0.00  0.00    -0.220 OA
ENDROOT
BRANCH   8   5
ATOM      1  C   UNL     1       0.490  -4.034   0.000  0.00  0.00    +0.090 C 
ATOM      2  N   UNL     1       0.771  -3.258   0.000  0.00  0.00    -0.269 NA
ATOM      3  C   UNL     1       0.239  -2.628   0.000  0.00  0.00    +0.090 C 
ATOM      4  C   UNL     1       0.519  -1.852   0.000  0.00  0.00    +0.090 C 
ATOM      5  N   UNL     1       1.331  -1.706   0.000  0.00  0.00    -0.265 NA
ATOM      6  C   UNL     1       1.863  -2.337   0.000  0.00  0.00    +0.090 C 
ATOM      7  C   UNL     1       1.583  -3.113   0.000  0.00  0.00    +0.090 C 
ENDBRANCH   8   5
BRANCH  14  15
ATOM     15  N   UNL     1       2.517   0.093   0.000  0.00  0.00    -0.209 NA
BRANCH  15  16
ATOM     16  C   UNL     1       2.231   0.867   0.000  0.00  0.00    +0.118 C 
BRANCH  16  17
ATOM     17  C   UNL     1       2.758   1.501   0.000  0.00  0.00    +0.034 A 
ATOM     18  C   UNL     1       2.472   2.275   0.000  0.00  0.00    +0.193 A 
ATOM     19  O   UNL     1       1.659   2.414   0.000  0.00  0.00    -0.287 OA
ATOM     20  C   UNL     1       2.999   2.910   0.000  0.00  0.00    +0.042 A 
ATOM     21  C   UNL     1       3.812   2.770   0.000  0.00  0.00    +0.003 A 
ATOM     22  C   UNL     1       4.098   1.996   0.000  0.00  0.00    -0.000 A 
ATOM     23  C   UNL     1       3.571   1.362   0.000  0.00  0.00    +0.000 A 
ENDBRANCH  16  17
ENDBRANCH  15  16
ENDBRANCH  14  15
TORSDOF 4
