REMARK  Name = 
REMARK  6 active torsions:
REMARK  status: ('A' for Active; 'I' for Inactive)
REMARK    1  A    between atoms: C_2  and  C_3
REMARK    2  A    between atoms: C_5  and  C_6
REMARK    3  A    between atoms: C_6  and  C_7
REMARK    4  A    between atoms: C_7  and  N_11
REMARK    5  A    between atoms: N_11  and  C_12
REMARK    6  A    between atoms: C_12  and  C_13
REMARK                            x       y       z     vdW  Elec       q    Type
REMARK                         _______ _______ _______ _____ _____    ______ ____
ROOT
ATOM      7  C   UNL     1      -3.895   4.224   0.000  0.00  0.00    +0.119 C 
ATOM      8  C   UNL     1      -4.720   4.224   0.000  0.00  0.00    +0.161 C 
ATOM      9  O   UNL     1      -4.720   5.049   0.000  0.00  0.00    -0.351 OA
ATOM     10  C   UNL     1      -3.895   5.049   0.000  0.00  0.00    +0.161 C 
ENDROOT
BRANCH   7   6
ATOM      6  C   UNL     1      -3.070   4.224   0.000  0.00  0.00    +0.070 C 
BRANCH   6   5
ATOM      3  C   UNL     1      -1.666   5.832   0.000  0.00  0.00    +0.187 A 
ATOM      4  C   UNL     1      -1.837   5.025   0.000  0.00  0.00    +0.056 A 
ATOM      5  C   UNL     1      -2.658   4.939   0.000  0.00  0.00    +0.102 A 
ATOM     16  N   UNL     1      -2.993   5.692   0.000  0.00  0.00    -0.082 NA
ATOM     17  O   UNL     1      -2.380   6.244   0.000  0.00  0.00    -0.355 OA
BRANCH   3   2
ATOM      1  O   UNL     1      -0.826   6.988   0.000  0.00  0.00    -0.212 OA
ATOM      2  C   UNL     1      -0.912   6.167   0.000  0.00  0.00    +0.249 C 
ENDBRANCH   3   2
ENDBRANCH   6   5
ENDBRANCH   7   6
BRANCH   7  11
ATOM     11  N   UNL     1      -3.895   3.399   0.000  0.00  0.00    -0.215 NA
BRANCH  11  12
ATOM     12  C   UNL     1      -3.181   2.986   0.000  0.00  0.00    +0.089 C 
BRANCH  12  13
ATOM     13  C   UNL     1      -3.181   2.162   0.000  0.00  0.00    +0.017 C 
ATOM     14  C   UNL     1      -2.768   1.447   0.000  0.00  0.00    +0.001 C 
ATOM     15  C   UNL     1      -3.593   1.447   0.000  0.00  0.00    +0.001 C 
ENDBRANCH  12  13
ENDBRANCH  11  12
ENDBRANCH   7  11
TORSDOF 6
