REMARK  Name = 
REMARK  7 active torsions:
REMARK  status: ('A' for Active; 'I' for Inactive)
REMARK    1  A    between atoms: O_2  and  C_3
REMARK    2  A    between atoms: C_4  and  O_5
REMARK    3  A    between atoms: C_15  and  C_17
REMARK    4  A    between atoms: C_17  and  C_18
REMARK    5  A    between atoms: C_23  and  C_24
REMARK    6  A    between atoms: C_24  and  C_25
REMARK    7  A    between atoms: C_28  and  C_30
REMARK                            x       y       z     vdW  Elec       q    Type
REMARK                         _______ _______ _______ _____ _____    ______ ____
ROOT
ATOM     18  C   UNL     1       5.716   0.000   0.000  0.00  0.00    +0.012 C 
ATOM     19  C   UNL     1       5.716   0.825   0.000  0.00  0.00    +0.019 C 
ATOM     20  C   UNL     1       6.430   1.238   0.000  0.00  0.00    +0.089 C 
ATOM     21  N   UNL     1       7.145   0.825   0.000  0.00  0.00    -0.218 NA
ATOM     22  C   UNL     1       7.145   0.000   0.000  0.00  0.00    +0.089 C 
ATOM     23  C   UNL     1       6.430  -0.412   0.000  0.00  0.00    +0.024 C 
ENDROOT
BRANCH  18  17
ATOM     17  C   UNL     1       5.001  -0.412   0.000  0.00  0.00    +0.085 C 
BRANCH  17  15
ATOM      3  C   UNL     1       0.715  -1.238   0.000  0.00  0.00    +0.172 A 
ATOM      4  C   UNL     1       0.715  -0.412   0.000  0.00  0.00    +0.172 A 
ATOM      7  C   UNL     1       1.429   0.000   0.000  0.00  0.00    +0.037 A 
ATOM      8  C   UNL     1       2.143  -0.412   0.000  0.00  0.00    -0.003 A 
ATOM      9  C   UNL     1       2.858   0.000   0.000  0.00  0.00    +0.120 C 
ATOM     10  N   UNL     1       3.572  -0.412   0.000  0.00  0.00    -0.275 N 
ATOM     11  C   UNL     1       3.572  -1.238   0.000  0.00  0.00    +0.098 C 
ATOM     12  C   UNL     1       2.858  -1.650   0.000  0.00  0.00    +0.048 C 
ATOM     13  C   UNL     1       2.143  -1.238   0.000  0.00  0.00    -0.020 A 
ATOM     14  C   UNL     1       1.429  -1.650   0.000  0.00  0.00    +0.036 A 
ATOM     15  C   UNL     1       4.287   0.000   0.000  0.00  0.00    +0.226 C 
ATOM     16  O   UNL     1       4.287   0.825   0.000  0.00  0.00    -0.275 OA
BRANCH   3   2
ATOM      1  C   UNL     1       0.000  -2.475   0.000  0.00  0.00    +0.253 C 
ATOM      2  O   UNL     1       0.000  -1.650   0.000  0.00  0.00    -0.468 OA
ENDBRANCH   3   2
BRANCH   4   5
ATOM      5  O   UNL     1       0.000   0.000   0.000  0.00  0.00    -0.468 OA
ATOM      6  C   UNL     1       0.000   0.825   0.000  0.00  0.00    +0.253 C 
ENDBRANCH   4   5
ENDBRANCH  17  15
ENDBRANCH  18  17
BRANCH  23  24
ATOM     24  C   UNL     1       6.430  -1.238   0.000  0.00  0.00    +0.051 C 
BRANCH  24  25
ATOM     25  C   UNL     1       7.145  -1.650   0.000  0.00  0.00    +0.101 A 
ATOM     26  N   UNL     1       7.898  -1.314   0.000  0.00  0.00    -0.081 NA
ATOM     27  O   UNL     1       8.450  -1.927   0.000  0.00  0.00    -0.354 OA
ATOM     28  C   UNL     1       8.038  -2.642   0.000  0.00  0.00    +0.177 A 
ATOM     29  C   UNL     1       7.231  -2.470   0.000  0.00  0.00    +0.058 A 
BRANCH  28  30
ATOM     30  C   UNL     1       8.373  -3.396   0.000  0.00  0.00    +0.037 A 
ATOM     31  C   UNL     1       9.194  -3.482   0.000  0.00  0.00    +0.003 A 
ATOM     32  C   UNL     1       9.530  -4.236   0.000  0.00  0.00    +0.000 A 
ATOM     33  C   UNL     1       9.045  -4.903   0.000  0.00  0.00    +0.000 A 
ATOM     34  C   UNL     1       8.224  -4.817   0.000  0.00  0.00    +0.000 A 
ATOM     35  C   UNL     1       7.889  -4.063   0.000  0.00  0.00    +0.003 A 
ENDBRANCH  28  30
ENDBRANCH  24  25
ENDBRANCH  23  24
TORSDOF 7
