REMARK  Name = 
REMARK  8 active torsions:
REMARK  status: ('A' for Active; 'I' for Inactive)
REMARK    1  A    between atoms: O_2  and  C_3
REMARK    2  A    between atoms: C_8  and  N_9
REMARK    3  A    between atoms: N_12  and  C_15
REMARK    4  A    between atoms: C_16  and  C_17
REMARK    5  A    between atoms: C_17  and  N_18
REMARK    6  A    between atoms: C_19  and  C_21
REMARK    7  A    between atoms: C_24  and  N_27
REMARK    8  A    between atoms: C_31  and  C_32
REMARK                            x       y       z     vdW  Elec       q    Type
REMARK                         _______ _______ _______ _____ _____    ______ ____
ROOT
ATOM     15  C   UNL     1       2.751  -2.537   0.000  0.00  0.00    +0.120 C 
ATOM     16  C   UNL     1       3.419  -3.022   0.000  0.00  0.00    +0.154 C 
ATOM     30  O   UNL     1       3.164  -3.806   0.000  0.00  0.00    -0.350 OA
ATOM     31  C   UNL     1       2.339  -3.806   0.000  0.00  0.00    +0.180 C 
ATOM     34  C   UNL     1       2.084  -3.022   0.000  0.00  0.00    +0.198 C 
ATOM     35  O   UNL     1       1.299  -2.767   0.000  0.00  0.00    -0.219 OA
ENDROOT
BRANCH  15  12
ATOM      9  N   UNL     1       2.751  -0.062   0.000  0.00  0.00    -0.302 N 
ATOM     10  C   UNL     1       3.466  -0.474   0.000  0.00  0.00    +0.108 C 
ATOM     11  C   UNL     1       3.466  -1.299   0.000  0.00  0.00    +0.094 C 
ATOM     12  N   UNL     1       2.751  -1.712   0.000  0.00  0.00    -0.267 NA
ATOM     13  C   UNL     1       2.037  -1.299   0.000  0.00  0.00    +0.094 C 
ATOM     14  C   UNL     1       2.037  -0.474   0.000  0.00  0.00    +0.108 C 
BRANCH   9   8
ATOM      3  C   UNL     1       2.037   1.176   0.000  0.00  0.00    +0.152 A 
ATOM      4  C   UNL     1       2.037   2.001   0.000  0.00  0.00    +0.038 A 
ATOM      5  C   UNL     1       2.751   2.413   0.000  0.00  0.00    +0.003 A 
ATOM      6  C   UNL     1       3.466   2.001   0.000  0.00  0.00    +0.001 A 
ATOM      7  C   UNL     1       3.466   1.176   0.000  0.00  0.00    +0.018 A 
ATOM      8  C   UNL     1       2.751   0.763   0.000  0.00  0.00    +0.082 A 
BRANCH   3   2
ATOM      1  C   UNL     1       0.608   1.176   0.000  0.00  0.00    +0.253 C 
ATOM      2  O   UNL     1       1.322   0.763   0.000  0.00  0.00    -0.470 OA
ENDBRANCH   3   2
ENDBRANCH   9   8
ENDBRANCH  15  12
BRANCH  31  32
ATOM     32  C   UNL     1       1.854  -4.474   0.000  0.00  0.00    +0.214 C 
ATOM     33  O   UNL     1       1.033  -4.387   0.000  0.00  0.00    -0.218 OA
ENDBRANCH  31  32
BRANCH  16  17
ATOM     17  C   UNL     1       4.203  -2.767   0.000  0.00  0.00    +0.146 C 
BRANCH  17  18
ATOM     18  N   UNL     1       4.816  -3.319   0.000  0.00  0.00    -0.199 NA
ATOM     19  C   UNL     1       5.601  -3.064   0.000  0.00  0.00    +0.265 C 
ATOM     20  O   UNL     1       5.772  -2.257   0.000  0.00  0.00    -0.268 OA
BRANCH  19  21
ATOM     21  C   UNL     1       6.214  -3.616   0.000  0.00  0.00    +0.055 A 
ATOM     22  C   UNL     1       6.999  -3.361   0.000  0.00  0.00    +0.006 A 
ATOM     23  C   UNL     1       7.612  -3.913   0.000  0.00  0.00    +0.015 A 
ATOM     24  C   UNL     1       7.440  -4.720   0.000  0.00  0.00    +0.048 A 
ATOM     25  C   UNL     1       6.656  -4.975   0.000  0.00  0.00    +0.015 A 
ATOM     26  C   UNL     1       6.043  -4.423   0.000  0.00  0.00    +0.006 A 
BRANCH  24  27
ATOM     27  N   UNL     1       8.053  -5.272   0.000  0.00  0.00    -0.304 N 
ATOM     28  C   UNL     1       8.838  -5.017   0.000  0.00  0.00    +0.112 C 
ATOM     29  C   UNL     1       7.882  -6.079   0.000  0.00  0.00    +0.112 C 
ENDBRANCH  24  27
ENDBRANCH  19  21
ENDBRANCH  17  18
ENDBRANCH  16  17
TORSDOF 8
