REMARK  Name = 
REMARK  6 active torsions:
REMARK  status: ('A' for Active; 'I' for Inactive)
REMARK    1  A    between atoms: C_5  and  N_6
REMARK    2  A    between atoms: C_7  and  O_9
REMARK    3  A    between atoms: O_9  and  C_10
REMARK    4  A    between atoms: C_15  and  C_16
REMARK    5  A    between atoms: C_16  and  C_17
REMARK    6  A    between atoms: C_29  and  C_31
REMARK                            x       y       z     vdW  Elec       q    Type
REMARK                         _______ _______ _______ _____ _____    ______ ____
ROOT
ATOM     10  C   UNL     1       0.715  -1.238   0.000  0.00  0.00    +0.173 C 
ATOM     11  C   UNL     1       0.715  -0.412   0.000  0.00  0.00    +0.044 C 
ATOM     12  C   UNL     1       1.429   0.000   0.000  0.00  0.00    +0.004 C 
ATOM     13  C   UNL     1       2.143  -0.412   0.000  0.00  0.00    +0.003 C 
ATOM     14  C   UNL     1       2.143   0.412   0.000  0.00  0.00    +0.000 C 
ATOM     15  C   UNL     1       2.858   0.000   0.000  0.00  0.00    +0.040 C 
ATOM     24  C   UNL     1       3.572  -0.412   0.000  0.00  0.00    +0.152 C 
ATOM     25  O   UNL     1       4.287   0.000   0.000  0.00  0.00    -0.223 OA
ATOM     26  C   UNL     1       3.572  -1.238   0.000  0.00  0.00    +0.033 C 
ATOM     27  C   UNL     1       2.858  -1.650   0.000  0.00  0.00    +0.003 C 
ATOM     28  C   UNL     1       2.143  -1.238   0.000  0.00  0.00    +0.006 C 
ATOM     29  C   UNL     1       1.429  -1.650   0.000  0.00  0.00    +0.068 C 
ATOM     30  C   UNL     1       1.816  -2.378   0.000  0.00  0.00    +0.006 C 
ENDROOT
BRANCH  29  31
ATOM     31  C   UNL     1       1.042  -2.378   0.000  0.00  0.00    +0.185 C 
ATOM     32  O   UNL     1       0.217  -2.407   0.000  0.00  0.00    -0.220 OA
ENDBRANCH  29  31
BRANCH  10   9
ATOM      9  O   UNL     1       0.000  -1.650   0.000  0.00  0.00    -0.437 OA
BRANCH   9   7
ATOM      6  N   UNL     1      -0.715  -0.412   0.000  0.00  0.00    -0.142 NA
ATOM      7  C   UNL     1      -0.715  -1.238   0.000  0.00  0.00    +0.425 C 
ATOM      8  O   UNL     1      -1.429  -1.650   0.000  0.00  0.00    -0.224 OA
BRANCH   6   5
ATOM      1  C   UNL     1      -3.572   1.238   0.000  0.00  0.00    +0.031 C 
ATOM      2  C   UNL     1      -2.858   0.825   0.000  0.00  0.00    -0.022 A 
ATOM      3  C   UNL     1      -2.143   1.238   0.000  0.00  0.00    -0.003 A 
ATOM      4  C   UNL     1      -1.429   0.825   0.000  0.00  0.00    +0.016 A 
ATOM      5  C   UNL     1      -1.429   0.000   0.000  0.00  0.00    +0.077 A 
ATOM     33  C   UNL     1      -2.143  -0.412   0.000  0.00  0.00    +0.016 A 
ATOM     34  C   UNL     1      -2.858   0.000   0.000  0.00  0.00    -0.003 A 
ENDBRANCH   6   5
ENDBRANCH   9   7
ENDBRANCH  10   9
BRANCH  15  16
ATOM     16  C   UNL     1       2.858   0.825   0.000  0.00  0.00    +0.088 C 
BRANCH  16  17
ATOM     17  C   UNL     1       3.572   1.238   0.000  0.00  0.00    +0.226 C 
ATOM     18  O   UNL     1       4.287   0.825   0.000  0.00  0.00    -0.275 OA
ATOM     19  N   UNL     1       3.572   2.062   0.000  0.00  0.00    -0.280 N 
ATOM     20  C   UNL     1       2.905   2.547   0.000  0.00  0.00    +0.093 C 
ATOM     21  C   UNL     1       3.160   3.332   0.000  0.00  0.00    +0.023 C 
ATOM     22  C   UNL     1       3.985   3.332   0.000  0.00  0.00    +0.023 C 
ATOM     23  C   UNL     1       4.240   2.547   0.000  0.00  0.00    +0.093 C 
ENDBRANCH  16  17
ENDBRANCH  15  16
TORSDOF 6
