REMARK  Name = 
REMARK  6 active torsions:
REMARK  status: ('A' for Active; 'I' for Inactive)
REMARK    1  A    between atoms: O_2  and  C_3
REMARK    2  A    between atoms: C_6  and  C_7
REMARK    3  A    between atoms: C_7  and  C_8
REMARK    4  A    between atoms: N_10  and  C_11
REMARK    5  A    between atoms: N_23  and  C_24
REMARK    6  A    between atoms: C_27  and  C_30
REMARK                            x       y       z     vdW  Elec       q    Type
REMARK                         _______ _______ _______ _____ _____    ______ ____
ROOT
ATOM     11  C   UNL     1      -1.296  -1.150   0.000  0.00  0.00    +0.129 A 
ATOM     12  C   UNL     1      -1.167  -0.335   0.000  0.00  0.00    +0.023 A 
ATOM     13  C   UNL     1      -0.397  -0.039   0.000  0.00  0.00    +0.014 A 
ATOM     14  C   UNL     1       0.244  -0.558   0.000  0.00  0.00    +0.041 A 
ATOM     15  C   UNL     1       1.163  -0.557   0.000  0.00  0.00    +0.058 C 
ATOM     16  C   UNL     1       1.713  -0.121   0.000  0.00  0.00    +0.011 C 
ATOM     17  C   UNL     1       1.582  -0.925   0.000  0.00  0.00    +0.043 C 
ATOM     18  C   UNL     1       1.629  -1.912   0.000  0.00  0.00    +0.097 C 
ATOM     19  N   UNL     1       0.813  -2.091   0.000  0.00  0.00    -0.262 N 
ATOM     20  C   UNL     1       1.225  -1.510   0.000  0.00  0.00    +0.101 C 
ATOM     21  C   UNL     1       0.125  -2.547   0.000  0.00  0.00    +0.327 C 
ATOM     22  O   UNL     1      -0.614  -2.179   0.000  0.00  0.00    -0.250 OA
ATOM     23  N   UNL     1       0.176  -3.370   0.000  0.00  0.00    -0.162 NA
ATOM     33  C   UNL     1       0.622  -0.936   0.000  0.00  0.00    +0.110 C 
ATOM     34  N   UNL     1       0.115  -1.373   0.000  0.00  0.00    -0.298 N 
ATOM     35  C   UNL     1      -0.655  -1.669   0.000  0.00  0.00    +0.276 A 
ATOM     36  O   UNL     1      -1.029  -2.404   0.000  0.00  0.00    -0.266 OA
ENDROOT
BRANCH  23  24
ATOM     24  C   UNL     1       0.914  -3.738   0.000  0.00  0.00    +0.075 A 
ATOM     25  C   UNL     1       1.602  -3.283   0.000  0.00  0.00    +0.017 A 
ATOM     26  C   UNL     1       2.340  -3.650   0.000  0.00  0.00    +0.004 A 
ATOM     27  C   UNL     1       2.391  -4.474   0.000  0.00  0.00    +0.035 A 
ATOM     28  C   UNL     1       1.703  -4.929   0.000  0.00  0.00    +0.004 A 
ATOM     29  C   UNL     1       0.965  -4.562   0.000  0.00  0.00    +0.017 A 
BRANCH  27  30
ATOM     30  C   UNL     1       3.130  -4.842   0.000  0.00  0.00    +0.173 C 
ATOM     31  C   UNL     1       3.817  -4.386   0.000  0.00  0.00    +0.077 C 
ATOM     32  O   UNL     1       3.180  -5.665   0.000  0.00  0.00    -0.291 OA
ENDBRANCH  27  30
ENDBRANCH  23  24
BRANCH  11  10
ATOM      8  C   UNL     1      -2.707  -0.926   0.000  0.00  0.00    +0.250 C 
ATOM      9  O   UNL     1      -3.478  -1.222   0.000  0.00  0.00    -0.273 OA
ATOM     10  N   UNL     1      -2.066  -1.445   0.000  0.00  0.00    -0.174 NA
BRANCH   8   7
ATOM      7  C   UNL     1      -2.578  -0.111   0.000  0.00  0.00    +0.113 C 
BRANCH   7   6
ATOM      3  C   UNL     1      -4.502   1.446   0.000  0.00  0.00    +0.139 A 
ATOM      4  C   UNL     1      -3.732   1.742   0.000  0.00  0.00    +0.037 A 
ATOM      5  C   UNL     1      -3.091   1.223   0.000  0.00  0.00    -0.001 A 
ATOM      6  C   UNL     1      -3.220   0.408   0.000  0.00  0.00    -0.013 A 
ATOM     37  C   UNL     1      -3.990   0.112   0.000  0.00  0.00    -0.001 A 
ATOM     38  C   UNL     1      -4.631   0.631   0.000  0.00  0.00    +0.037 A 
BRANCH   3   2
ATOM      1  C   UNL     1      -5.913   1.669   0.000  0.00  0.00    +0.252 C 
ATOM      2  O   UNL     1      -5.143   1.965   0.000  0.00  0.00    -0.471 OA
ENDBRANCH   3   2
ENDBRANCH   7   6
ENDBRANCH   8   7
ENDBRANCH  11  10
TORSDOF 6
