REMARK  Name = 
REMARK  4 active torsions:
REMARK  status: ('A' for Active; 'I' for Inactive)
REMARK    1  A    between atoms: C_1  and  N_2
REMARK    2  A    between atoms: C_1  and  C_22
REMARK    3  A    between atoms: C_7  and  C_8
REMARK    4  A    between atoms: C_10  and  C_13
REMARK                            x       y       z     vdW  Elec       q    Type
REMARK                         _______ _______ _______ _____ _____    ______ ____
ROOT
ATOM      2  N   UNL     1       2.070   1.110   0.000  0.00  0.00    -0.257 NA
ATOM      3  C   UNL     1       1.356   0.698   0.000  0.00  0.00    +0.121 C 
ATOM      4  C   UNL     1       0.641   1.110   0.000  0.00  0.00    +0.090 A 
ATOM      5  C   UNL     1       0.641   1.935   0.000  0.00  0.00    +0.077 A 
ATOM      6  C   UNL     1       1.356   2.348   0.000  0.00  0.00    +0.073 C 
ATOM      7  C   UNL     1       2.070   1.935   0.000  0.00  0.00    +0.144 C 
ATOM     19  N   UNL     1      -0.143   2.190   0.000  0.00  0.00    -0.227 NA
ATOM     20  C   UNL     1      -0.628   1.523   0.000  0.00  0.00    +0.198 A 
ATOM     21  N   UNL     1      -0.143   0.856   0.000  0.00  0.00    -0.226 NA
ENDROOT
BRANCH   7   8
ATOM      8  C   UNL     1       2.784   2.348   0.000  0.00  0.00    +0.251 A 
ATOM      9  N   UNL     1       2.871   3.168   0.000  0.00  0.00    -0.190 NA
ATOM     10  C   UNL     1       3.678   3.340   0.000  0.00  0.00    +0.203 A 
ATOM     11  N   UNL     1       4.090   2.626   0.000  0.00  0.00    -0.056 NA
ATOM     12  O   UNL     1       3.538   2.012   0.000  0.00  0.00    -0.336 OA
BRANCH  10  13
ATOM     13  C   UNL     1       4.013   4.094   0.000  0.00  0.00    +0.042 A 
ATOM     14  C   UNL     1       3.528   4.761   0.000  0.00  0.00    +0.024 A 
ATOM     15  C   UNL     1       3.864   5.515   0.000  0.00  0.00    +0.099 A 
ATOM     16  N   UNL     1       4.684   5.601   0.000  0.00  0.00    -0.242 NA
ATOM     17  C   UNL     1       5.169   4.934   0.000  0.00  0.00    +0.099 A 
ATOM     18  C   UNL     1       4.834   4.180   0.000  0.00  0.00    +0.024 A 
ENDBRANCH  10  13
ENDBRANCH   7   8
BRANCH   2   1
ATOM      1  C   UNL     1       2.784   0.698   0.000  0.00  0.00    +0.100 C 
BRANCH   1  22
ATOM     22  C   UNL     1       2.784  -0.127   0.000  0.00  0.00    -0.006 A 
ATOM     23  C   UNL     1       3.499  -0.540   0.000  0.00  0.00    -0.003 A 
ATOM     24  C   UNL     1       3.499  -1.365   0.000  0.00  0.00    -0.000 A 
ATOM     25  C   UNL     1       2.784  -1.777   0.000  0.00  0.00    -0.000 A 
ATOM     26  C   UNL     1       2.070  -1.365   0.000  0.00  0.00    -0.000 A 
ATOM     27  C   UNL     1       2.070  -0.540   0.000  0.00  0.00    -0.003 A 
ENDBRANCH   1  22
ENDBRANCH   2   1
TORSDOF 4
