REMARK  Name = 
REMARK  3 active torsions:
REMARK  status: ('A' for Active; 'I' for Inactive)
REMARK    1  A    between atoms: S_2  and  N_5
REMARK    2  A    between atoms: N_11  and  C_12
REMARK    3  A    between atoms: C_12  and  C_13
REMARK                            x       y       z     vdW  Elec       q    Type
REMARK                         _______ _______ _______ _____ _____    ______ ____
ROOT
ATOM      5  N   UNL     1       3.352   1.935   0.000  0.00  0.00    -0.156 NA
ATOM      6  C   UNL     1       3.352   1.110   0.000  0.00  0.00    +0.117 C 
ATOM      7  C   UNL     1       2.638   0.698   0.000  0.00  0.00    +0.114 C 
ATOM      8  N   UNL     1       1.923   1.110   0.000  0.00  0.00    -0.261 N 
ATOM      9  C   UNL     1       1.923   1.935   0.000  0.00  0.00    +0.114 C 
ATOM     10  C   UNL     1       1.139   2.190   0.000  0.00  0.00    +0.117 C 
ATOM     11  N   UNL     1       0.654   1.523   0.000  0.00  0.00    -0.258 N 
ATOM     20  C   UNL     1       1.139   0.856   0.000  0.00  0.00    +0.308 C 
ATOM     21  O   UNL     1       0.884   0.071   0.000  0.00  0.00    -0.252 OA
ATOM     22  C   UNL     1       2.638   2.348   0.000  0.00  0.00    +0.117 C 
ENDROOT
BRANCH   5   2
ATOM      1  C   UNL     1       4.781   2.760   0.000  0.00  0.00    +0.196 C 
ATOM      2  S   UNL     1       4.067   2.348   0.000  0.00  0.00    +0.046 S 
ATOM      3  O   UNL     1       3.654   3.062   0.000  0.00  0.00    -0.157 OA
ATOM      4  O   UNL     1       4.479   1.633   0.000  0.00  0.00    -0.157 OA
ENDBRANCH   5   2
BRANCH  11  12
ATOM     12  C   UNL     1      -0.171   1.523   0.000  0.00  0.00    +0.122 C 
BRANCH  12  13
ATOM     13  C   UNL     1      -0.584   2.237   0.000  0.00  0.00    -0.002 A 
ATOM     14  C   UNL     1      -1.409   2.237   0.000  0.00  0.00    -0.000 A 
ATOM     15  C   UNL     1      -1.821   2.952   0.000  0.00  0.00    +0.029 A 
ATOM     16  C   UNL     1      -1.409   3.666   0.000  0.00  0.00    +0.140 A 
ATOM     17  F   UNL     1      -1.821   4.381   0.000  0.00  0.00    -0.204 F 
ATOM     18  C   UNL     1      -0.584   3.666   0.000  0.00  0.00    +0.029 A 
ATOM     19  C   UNL     1      -0.171   2.952   0.000  0.00  0.00    -0.000 A 
ENDBRANCH  12  13
ENDBRANCH  11  12
TORSDOF 3
