REMARK  Name = 
REMARK  6 active torsions:
REMARK  status: ('A' for Active; 'I' for Inactive)
REMARK    1  A    between atoms: O_2  and  C_3
REMARK    2  A    between atoms: C_3  and  C_4
REMARK    3  A    between atoms: N_6  and  C_7
REMARK    4  A    between atoms: C_7  and  C_8
REMARK    5  A    between atoms: C_11  and  N_12
REMARK    6  A    between atoms: N_12  and  C_13
REMARK                            x       y       z     vdW  Elec       q    Type
REMARK                         _______ _______ _______ _____ _____    ______ ____
ROOT
ATOM      8  C   UNL     1       9.738  -2.591   0.000  0.00  0.00    +0.169 C 
ATOM      9  O   UNL     1       9.825  -1.771   0.000  0.00  0.00    -0.350 OA
ATOM     10  C   UNL     1      10.632  -1.599   0.000  0.00  0.00    +0.162 C 
ATOM     11  C   UNL     1      11.044  -2.314   0.000  0.00  0.00    +0.135 C 
ATOM     22  C   UNL     1      10.492  -2.927   0.000  0.00  0.00    +0.199 C 
ATOM     23  O   UNL     1      10.664  -3.734   0.000  0.00  0.00    -0.219 OA
ENDROOT
BRANCH   8   7
ATOM      7  C   UNL     1       9.024  -3.004   0.000  0.00  0.00    +0.147 C 
BRANCH   7   6
ATOM      4  C   UNL     1       7.595  -3.004   0.000  0.00  0.00    +0.272 C 
ATOM      5  O   UNL     1       7.595  -3.829   0.000  0.00  0.00    -0.271 OA
ATOM      6  N   UNL     1       8.309  -2.591   0.000  0.00  0.00    -0.201 NA
BRANCH   4   3
ATOM      3  C   UNL     1       6.880  -2.591   0.000  0.00  0.00    +0.229 C 
BRANCH   3   2
ATOM      1  C   UNL     1       5.452  -2.591   0.000  0.00  0.00    +0.175 C 
ATOM      2  O   UNL     1       6.166  -3.004   0.000  0.00  0.00    -0.342 OA
ENDBRANCH   3   2
ENDBRANCH   4   3
ENDBRANCH   7   6
ENDBRANCH   8   7
BRANCH  11  12
ATOM     12  N   UNL     1      11.864  -2.400   0.000  0.00  0.00    -0.216 NA
BRANCH  12  13
ATOM     13  C   UNL     1      12.200  -3.154   0.000  0.00  0.00    +0.076 C 
ATOM     14  C   UNL     1      13.021  -3.240   0.000  0.00  0.00    +0.039 C 
ATOM     15  C   UNL     1      13.356  -3.994   0.000  0.00  0.00    +0.095 C 
ATOM     16  N   UNL     1      12.871  -4.661   0.000  0.00  0.00    -0.279 N 
ATOM     17  C   UNL     1      12.051  -4.575   0.000  0.00  0.00    +0.095 C 
ATOM     18  C   UNL     1      11.715  -3.821   0.000  0.00  0.00    +0.039 C 
ATOM     19  C   UNL     1      13.207  -5.415   0.000  0.00  0.00    +0.226 C 
ATOM     20  C   UNL     1      14.027  -5.501   0.000  0.00  0.00    +0.095 C 
ATOM     21  O   UNL     1      12.722  -6.082   0.000  0.00  0.00    -0.275 OA
ENDBRANCH  12  13
ENDBRANCH  11  12
TORSDOF 6
