REMARK  Name = 
REMARK  4 active torsions:
REMARK  status: ('A' for Active; 'I' for Inactive)
REMARK    1  A    between atoms: O_2  and  C_3
REMARK    2  A    between atoms: C_4  and  C_10
REMARK    3  A    between atoms: C_18  and  N_24
REMARK    4  A    between atoms: C_25  and  C_27
REMARK                            x       y       z     vdW  Elec       q    Type
REMARK                         _______ _______ _______ _____ _____    ______ ____
ROOT
ATOM     10  C   UNL     1       5.671   1.585   0.000  0.00  0.00    +0.003 A 
ATOM     11  C   UNL     1       4.886   1.837   0.000  0.00  0.00    +0.006 A 
ATOM     12  C   UNL     1       4.275   1.282   0.000  0.00  0.00    +0.069 A 
ATOM     13  C   UNL     1       4.449   0.476   0.000  0.00  0.00    +0.078 A 
ATOM     14  N   UNL     1       3.928  -0.163   0.000  0.00  0.00    -0.178 NA
ATOM     15  C   UNL     1       3.103  -0.154   0.000  0.00  0.00    +0.265 C 
ATOM     16  O   UNL     1       2.736  -0.893   0.000  0.00  0.00    -0.271 OA
ATOM     17  C   UNL     1       2.596   0.497   0.000  0.00  0.00    +0.174 C 
ATOM     18  C   UNL     1       1.773   0.432   0.000  0.00  0.00    +0.124 C 
ATOM     19  C   UNL     1       1.457   1.194   0.000  0.00  0.00    +0.045 C 
ATOM     20  C   UNL     1       2.085   1.730   0.000  0.00  0.00    +0.096 C 
ATOM     21  N   UNL     1       2.788   1.299   0.000  0.00  0.00    -0.268 N 
ATOM     22  C   UNL     1       3.535   1.649   0.000  0.00  0.00    +0.251 C 
ATOM     23  O   UNL     1       3.545   2.474   0.000  0.00  0.00    -0.270 OA
ATOM     32  C   UNL     1       5.235   0.224   0.000  0.00  0.00    +0.017 A 
ATOM     33  C   UNL     1       5.846   0.778   0.000  0.00  0.00    +0.001 A 
ENDROOT
BRANCH  10   4
ATOM      3  C   UNL     1       6.108   2.946   0.000  0.00  0.00    +0.139 A 
ATOM      4  C   UNL     1       6.282   2.139   0.000  0.00  0.00    +0.035 A 
ATOM      5  C   UNL     1       7.068   1.887   0.000  0.00  0.00    +0.014 A 
ATOM      6  C   UNL     1       7.679   2.442   0.000  0.00  0.00    +0.058 A 
ATOM      7 CL   UNL     1       8.464   2.190   0.000  0.00  0.00    -0.082 Cl
ATOM      8  C   UNL     1       7.504   3.248   0.000  0.00  0.00    +0.015 A 
ATOM      9  C   UNL     1       6.719   3.500   0.000  0.00  0.00    +0.038 A 
BRANCH   3   2
ATOM      1  C   UNL     1       5.147   4.004   0.000  0.00  0.00    +0.252 C 
ATOM      2  O   UNL     1       5.322   3.197   0.000  0.00  0.00    -0.471 OA
ENDBRANCH   3   2
ENDBRANCH  10   4
BRANCH  18  24
ATOM     24  N   UNL     1       1.342  -0.271   0.000  0.00  0.00    -0.205 NA
ATOM     25  C   UNL     1       0.517  -0.250   0.000  0.00  0.00    +0.241 C 
ATOM     26  O   UNL     1       0.086  -0.953   0.000  0.00  0.00    -0.273 OA
BRANCH  25  27
ATOM     27  C   UNL     1       0.124   0.475   0.000  0.00  0.00    +0.078 C 
ATOM     28  C   UNL     1      -0.694   0.583   0.000  0.00  0.00    +0.009 C 
ATOM     29  C   UNL     1      -0.845   1.394   0.000  0.00  0.00    +0.001 C 
ATOM     30  C   UNL     1      -0.120   1.788   0.000  0.00  0.00    +0.001 C 
ATOM     31  C   UNL     1       0.479   1.220   0.000  0.00  0.00    +0.009 C 
ENDBRANCH  25  27
ENDBRANCH  18  24
TORSDOF 4
