REMARK  Name = 
REMARK  9 active torsions:
REMARK  status: ('A' for Active; 'I' for Inactive)
REMARK    1  A    between atoms: C_4  and  C_5
REMARK    2  A    between atoms: C_9  and  N_29
REMARK    3  A    between atoms: C_11  and  C_12
REMARK    4  A    between atoms: N_14  and  C_15
REMARK    5  A    between atoms: C_15  and  C_16
REMARK    6  A    between atoms: C_15  and  C_26
REMARK    7  A    between atoms: C_16  and  C_17
REMARK    8  A    between atoms: N_32  and  C_33
REMARK    9  A    between atoms: C_33  and  C_34
REMARK                            x       y       z     vdW  Elec       q    Type
REMARK                         _______ _______ _______ _____ _____    ______ ____
ROOT
ATOM      5  C   UNL     1      -7.492   3.573   0.000  0.00  0.00    +0.249 C 
ATOM      6  O   UNL     1      -7.007   4.240   0.000  0.00  0.00    -0.270 OA
ATOM      7  N   UNL     1      -7.157   2.819   0.000  0.00  0.00    -0.268 N 
ATOM      8  C   UNL     1      -6.350   2.648   0.000  0.00  0.00    +0.116 C 
ATOM      9  C   UNL     1      -6.263   1.827   0.000  0.00  0.00    +0.119 C 
ATOM     10  C   UNL     1      -7.017   1.492   0.000  0.00  0.00    +0.053 C 
ATOM     11  C   UNL     1      -7.569   2.105   0.000  0.00  0.00    +0.156 C 
ENDROOT
BRANCH   5   4
ATOM      1  C   UNL     1      -8.163   5.080   0.000  0.00  0.00    +0.027 C 
ATOM      2  C   UNL     1      -8.648   4.413   0.000  0.00  0.00    -0.039 C 
ATOM      3  C   UNL     1      -9.469   4.499   0.000  0.00  0.00    +0.027 C 
ATOM      4  C   UNL     1      -8.313   3.659   0.000  0.00  0.00    +0.049 C 
ENDBRANCH   5   4
BRANCH   9  29
ATOM     29  N   UNL     1      -5.549   1.415   0.000  0.00  0.00    -0.187 NA
ATOM     30  C   UNL     1      -4.835   1.827   0.000  0.00  0.00    +0.340 C 
ATOM     31  O   UNL     1      -4.835   2.652   0.000  0.00  0.00    -0.249 OA
ATOM     32  N   UNL     1      -4.120   1.415   0.000  0.00  0.00    -0.182 NA
BRANCH  32  33
ATOM     33  C   UNL     1      -3.406   1.827   0.000  0.00  0.00    +0.143 C 
BRANCH  33  34
ATOM     34  C   UNL     1      -2.691   1.415   0.000  0.00  0.00    -0.003 C 
ATOM     35  C   UNL     1      -1.977   1.827   0.000  0.00  0.00    -0.003 C 
ENDBRANCH  33  34
ENDBRANCH  32  33
ENDBRANCH   9  29
BRANCH  11  12
ATOM     12  C   UNL     1      -8.390   2.018   0.000  0.00  0.00    +0.260 C 
ATOM     13  O   UNL     1      -8.725   1.265   0.000  0.00  0.00    -0.272 OA
ATOM     14  N   UNL     1      -8.875   2.686   0.000  0.00  0.00    -0.196 NA
BRANCH  14  15
ATOM     15  C   UNL     1      -9.695   2.600   0.000  0.00  0.00    +0.179 C 
BRANCH  15  26
ATOM     26  C   UNL     1     -10.180   3.267   0.000  0.00  0.00    +0.281 C 
ATOM     27  N   UNL     1      -9.845   4.021   0.000  0.00  0.00    -0.086 NA
ATOM     28  O   UNL     1     -11.001   3.181   0.000  0.00  0.00    -0.270 OA
ENDBRANCH  15  26
BRANCH  15  16
ATOM     16  C   UNL     1     -10.031   1.846   0.000  0.00  0.00    +0.059 C 
BRANCH  16  17
ATOM     17  C   UNL     1     -10.851   1.760   0.000  0.00  0.00    +0.001 A 
ATOM     18  C   UNL     1     -11.403   2.373   0.000  0.00  0.00    +0.095 A 
ATOM     19  N   UNL     1     -12.157   2.037   0.000  0.00  0.00    -0.244 NA
ATOM     20  C   UNL     1     -12.071   1.217   0.000  0.00  0.00    +0.081 A 
ATOM     21  C   UNL     1     -11.264   1.045   0.000  0.00  0.00    +0.015 A 
ATOM     22  C   UNL     1     -11.009   0.261   0.000  0.00  0.00    +0.001 A 
ATOM     23  C   UNL     1     -11.561  -0.352   0.000  0.00  0.00    +0.000 A 
ATOM     24  C   UNL     1     -12.368  -0.181   0.000  0.00  0.00    +0.002 A 
ATOM     25  C   UNL     1     -12.623   0.604   0.000  0.00  0.00    +0.019 A 
ENDBRANCH  16  17
ENDBRANCH  15  16
ENDBRANCH  14  15
ENDBRANCH  11  12
TORSDOF 9
