REMARK  Name = 
REMARK  9 active torsions:
REMARK  status: ('A' for Active; 'I' for Inactive)
REMARK    1  A    between atoms: C_2  and  C_5
REMARK    2  A    between atoms: C_5  and  C_6
REMARK    3  A    between atoms: C_11  and  N_12
REMARK    4  A    between atoms: N_15  and  C_16
REMARK    5  A    between atoms: C_22  and  C_23
REMARK    6  A    between atoms: N_25  and  C_26
REMARK    7  A    between atoms: C_26  and  C_27
REMARK    8  A    between atoms: C_26  and  C_37
REMARK    9  A    between atoms: C_27  and  C_28
REMARK                            x       y       z     vdW  Elec       q    Type
REMARK                         _______ _______ _______ _____ _____    ______ ____
ROOT
ATOM      6  C   UNL     1      -3.974   2.436   0.000  0.00  0.00    +0.226 C 
ATOM      7  O   UNL     1      -4.728   2.772   0.000  0.00  0.00    -0.275 OA
ATOM      8  N   UNL     1      -3.307   2.921   0.000  0.00  0.00    -0.272 N 
ATOM      9  C   UNL     1      -3.307   3.746   0.000  0.00  0.00    +0.096 C 
ATOM     10  C   UNL     1      -2.522   4.001   0.000  0.00  0.00    +0.045 C 
ATOM     11  C   UNL     1      -2.037   3.334   0.000  0.00  0.00    +0.126 C 
ATOM     22  C   UNL     1      -2.522   2.666   0.000  0.00  0.00    +0.174 C 
ENDROOT
BRANCH  11  12
ATOM     12  N   UNL     1      -1.212   3.334   0.000  0.00  0.00    -0.187 NA
ATOM     13  C   UNL     1      -0.800   4.048   0.000  0.00  0.00    +0.339 C 
ATOM     14  O   UNL     1      -1.212   4.763   0.000  0.00  0.00    -0.249 OA
ATOM     15  N   UNL     1       0.025   4.048   0.000  0.00  0.00    -0.189 NA
BRANCH  15  16
ATOM     16  C   UNL     1       0.438   4.763   0.000  0.00  0.00    +0.097 C 
ATOM     17  C   UNL     1       0.025   5.477   0.000  0.00  0.00    +0.022 C 
ATOM     18  C   UNL     1       0.438   6.192   0.000  0.00  0.00    +0.002 C 
ATOM     19  C   UNL     1       1.263   6.192   0.000  0.00  0.00    +0.000 C 
ATOM     20  C   UNL     1       1.675   5.477   0.000  0.00  0.00    +0.002 C 
ATOM     21  C   UNL     1       1.263   4.763   0.000  0.00  0.00    +0.022 C 
ENDBRANCH  15  16
ENDBRANCH  11  12
BRANCH  22  23
ATOM     23  C   UNL     1      -2.267   1.882   0.000  0.00  0.00    +0.262 C 
ATOM     24  O   UNL     1      -2.819   1.269   0.000  0.00  0.00    -0.271 OA
ATOM     25  N   UNL     1      -1.460   1.710   0.000  0.00  0.00    -0.196 NA
BRANCH  25  26
ATOM     26  C   UNL     1      -1.205   0.926   0.000  0.00  0.00    +0.179 C 
BRANCH  26  37
ATOM     37  C   UNL     1      -1.758   0.313   0.000  0.00  0.00    +0.281 C 
ATOM     38  N   UNL     1      -2.564   0.484   0.000  0.00  0.00    -0.086 NA
ATOM     39  O   UNL     1      -1.502  -0.472   0.000  0.00  0.00    -0.270 OA
ENDBRANCH  26  37
BRANCH  26  27
ATOM     27  C   UNL     1      -0.398   0.754   0.000  0.00  0.00    +0.059 C 
BRANCH  27  28
ATOM     28  C   UNL     1      -0.143  -0.030   0.000  0.00  0.00    +0.001 A 
ATOM     29  C   UNL     1      -0.628  -0.698   0.000  0.00  0.00    +0.095 A 
ATOM     30  N   UNL     1      -0.143  -1.365   0.000  0.00  0.00    -0.244 NA
ATOM     31  C   UNL     1       0.641  -1.110   0.000  0.00  0.00    +0.081 A 
ATOM     32  C   UNL     1       0.641  -0.285   0.000  0.00  0.00    +0.015 A 
ATOM     33  C   UNL     1       1.356   0.127   0.000  0.00  0.00    +0.001 A 
ATOM     34  C   UNL     1       2.070  -0.285   0.000  0.00  0.00    +0.000 A 
ATOM     35  C   UNL     1       2.070  -1.110   0.000  0.00  0.00    +0.002 A 
ATOM     36  C   UNL     1       1.356  -1.523   0.000  0.00  0.00    +0.019 A 
ENDBRANCH  27  28
ENDBRANCH  26  27
ENDBRANCH  25  26
ENDBRANCH  22  23
BRANCH   6   5
ATOM      5  C   UNL     1      -3.888   1.616   0.000  0.00  0.00    +0.085 C 
BRANCH   5   2
ATOM      1  C   UNL     1      -5.223   0.646   0.000  0.00  0.00    +0.000 C 
ATOM      2  C   UNL     1      -4.556   1.131   0.000  0.00  0.00    +0.009 C 
ATOM      3  C   UNL     1      -5.040   1.798   0.000  0.00  0.00    +0.000 C 
ATOM      4  C   UNL     1      -4.071   0.464   0.000  0.00  0.00    +0.000 C 
ENDBRANCH   5   2
ENDBRANCH   6   5
TORSDOF 9
