REMARK  Name = 
REMARK  3 active torsions:
REMARK  status: ('A' for Active; 'I' for Inactive)
REMARK    1  A    between atoms: C_11  and  N_19
REMARK    2  A    between atoms: N_22  and  C_23
REMARK    3  A    between atoms: C_23  and  C_24
REMARK                            x       y       z     vdW  Elec       q    Type
REMARK                         _______ _______ _______ _____ _____    ______ ____
ROOT
ATOM      1 BR   UNL     1      -4.438   6.715   0.000  0.00  0.00    -0.049 Br
ATOM      2  C   UNL     1      -3.615   6.653   0.000  0.00  0.00    +0.035 A 
ATOM      3  C   UNL     1      -3.151   7.335   0.000  0.00  0.00    +0.008 A 
ATOM      4  C   UNL     1      -2.328   7.273   0.000  0.00  0.00    +0.017 A 
ATOM      5  C   UNL     1      -1.970   6.530   0.000  0.00  0.00    +0.078 A 
ATOM      6  N   UNL     1      -1.147   6.591   0.000  0.00  0.00    -0.178 NA
ATOM      7  C   UNL     1      -0.586   5.987   0.000  0.00  0.00    +0.264 C 
ATOM      8  O   UNL     1       0.202   6.230   0.000  0.00  0.00    -0.271 OA
ATOM      9  C   UNL     1      -0.709   5.171   0.000  0.00  0.00    +0.156 C 
ATOM     10  C   UNL     1       0.005   4.758   0.000  0.00  0.00    +0.051 C 
ATOM     11  C   UNL     1       0.005   3.933   0.000  0.00  0.00    +0.101 C 
ATOM     12  C   UNL     1      -0.709   3.521   0.000  0.00  0.00    +0.043 C 
ATOM     13  C   UNL     1      -1.424   3.933   0.000  0.00  0.00    +0.096 C 
ATOM     14  N   UNL     1      -1.424   4.758   0.000  0.00  0.00    -0.269 N 
ATOM     15  C   UNL     1      -2.192   5.060   0.000  0.00  0.00    +0.251 C 
ATOM     16  O   UNL     1      -2.796   4.499   0.000  0.00  0.00    -0.270 OA
ATOM     17  C   UNL     1      -2.435   5.848   0.000  0.00  0.00    +0.069 A 
ATOM     18  C   UNL     1      -3.257   5.910   0.000  0.00  0.00    +0.013 A 
ENDROOT
BRANCH  11  19
ATOM     19  N   UNL     1       0.720   3.521   0.000  0.00  0.00    -0.189 NA
ATOM     20  C   UNL     1       1.434   3.933   0.000  0.00  0.00    +0.340 C 
ATOM     21  O   UNL     1       1.434   4.758   0.000  0.00  0.00    -0.249 OA
ATOM     22  N   UNL     1       2.149   3.521   0.000  0.00  0.00    -0.182 NA
BRANCH  22  23
ATOM     23  C   UNL     1       2.863   3.933   0.000  0.00  0.00    +0.143 C 
BRANCH  23  24
ATOM     24  C   UNL     1       3.578   3.521   0.000  0.00  0.00    -0.003 C 
ATOM     25  C   UNL     1       4.292   3.933   0.000  0.00  0.00    -0.003 C 
ENDBRANCH  23  24
ENDBRANCH  22  23
ENDBRANCH  11  19
TORSDOF 3
