REMARK  Name = 
REMARK  7 active torsions:
REMARK  status: ('A' for Active; 'I' for Inactive)
REMARK    1  A    between atoms: C_2  and  N_3
REMARK    2  A    between atoms: N_3  and  C_4
REMARK    3  A    between atoms: N_3  and  C_6
REMARK    4  A    between atoms: C_12  and  N_13
REMARK    5  A    between atoms: N_13  and  C_14
REMARK    6  A    between atoms: C_14  and  C_15
REMARK    7  A    between atoms: C_18  and  O_19
REMARK                            x       y       z     vdW  Elec       q    Type
REMARK                         _______ _______ _______ _____ _____    ______ ____
ROOT
ATOM      6  C   UNL     1       1.611  -0.930   0.000  0.00  0.00    +0.147 C 
ATOM      7  C   UNL     1       0.640  -0.930   0.000  0.00  0.00    +0.253 C 
ATOM      8  O   UNL     1       0.120  -1.643   0.000  0.00  0.00    -0.327 OA
ATOM      9  C   UNL     1       0.740  -1.266   0.000  0.00  0.00    +0.176 C 
ATOM     10  C   UNL     1       1.060  -0.557   0.000  0.00  0.00    +0.166 C 
ATOM     11  O   UNL     1       0.500  -0.117   0.000  0.00  0.00    -0.328 OA
ATOM     12  C   UNL     1       1.989  -0.542   0.000  0.00  0.00    +0.135 C 
ATOM     23  C   UNL     1       2.127  -1.359   0.000  0.00  0.00    +0.190 C 
ATOM     24  O   UNL     1       2.539  -2.074   0.000  0.00  0.00    -0.220 OA
ENDROOT
BRANCH   6   3
ATOM      3  N   UNL     1       1.331  -1.706   0.000  0.00  0.00    -0.268 NA
BRANCH   3   2
ATOM      1  C   UNL     1       0.239  -2.628   0.000  0.00  0.00    +0.019 C 
ATOM      2  C   UNL     1       0.519  -1.852   0.000  0.00  0.00    +0.072 C 
ENDBRANCH   3   2
BRANCH   3   4
ATOM      4  C   UNL     1       1.863  -2.337   0.000  0.00  0.00    +0.072 C 
ATOM      5  C   UNL     1       1.583  -3.113   0.000  0.00  0.00    +0.019 C 
ENDBRANCH   3   4
ENDBRANCH   6   3
BRANCH  12  13
ATOM     13  N   UNL     1       2.517   0.093   0.000  0.00  0.00    -0.209 NA
BRANCH  13  14
ATOM     14  C   UNL     1       2.231   0.867   0.000  0.00  0.00    +0.115 C 
BRANCH  14  15
ATOM     15  C   UNL     1       2.758   1.501   0.000  0.00  0.00    -0.005 A 
ATOM     16  C   UNL     1       2.472   2.275   0.000  0.00  0.00    +0.000 A 
ATOM     17  C   UNL     1       2.999   2.910   0.000  0.00  0.00    +0.037 A 
ATOM     18  C   UNL     1       3.812   2.770   0.000  0.00  0.00    +0.139 A 
ATOM     21  C   UNL     1       4.098   1.996   0.000  0.00  0.00    +0.037 A 
ATOM     22  C   UNL     1       3.571   1.362   0.000  0.00  0.00    +0.000 A 
BRANCH  18  19
ATOM     19  O   UNL     1       4.340   3.405   0.000  0.00  0.00    -0.471 OA
ATOM     20  C   UNL     1       4.054   4.179   0.000  0.00  0.00    +0.252 C 
ENDBRANCH  18  19
ENDBRANCH  14  15
ENDBRANCH  13  14
ENDBRANCH  12  13
TORSDOF 7
