REMARK  Name = 
REMARK  8 active torsions:
REMARK  status: ('A' for Active; 'I' for Inactive)
REMARK    1  A    between atoms: O_2  and  C_3
REMARK    2  A    between atoms: C_6  and  C_9
REMARK    3  A    between atoms: C_12  and  C_14
REMARK    4  A    between atoms: C_16  and  N_20
REMARK    5  A    between atoms: C_21  and  C_23
REMARK    6  A    between atoms: C_23  and  O_24
REMARK    7  A    between atoms: O_24  and  C_25
REMARK    8  A    between atoms: C_25  and  C_26
REMARK                            x       y       z     vdW  Elec       q    Type
REMARK                         _______ _______ _______ _____ _____    ______ ____
ROOT
ATOM     14  C   UNL     1       0.004   6.229   0.000  0.00  0.00    +0.139 C 
ATOM     15  C   UNL     1       0.556   6.842   0.000  0.00  0.00    +0.049 C 
ATOM     16  C   UNL     1       1.310   6.506   0.000  0.00  0.00    +0.113 C 
ATOM     17  C   UNL     1       1.224   5.686   0.000  0.00  0.00    +0.094 C 
ATOM     18  N   UNL     1       0.417   5.514   0.000  0.00  0.00    -0.264 NA
ATOM     19  C   UNL     1       0.081   4.761   0.000  0.00  0.00    +0.090 C 
ENDROOT
BRANCH  14  12
ATOM      9  C   UNL     1      -2.122   6.038   0.000  0.00  0.00    +0.203 A 
ATOM     10  N   UNL     1      -2.036   6.858   0.000  0.00  0.00    -0.056 NA
ATOM     11  O   UNL     1      -1.229   7.030   0.000  0.00  0.00    -0.336 OA
ATOM     12  C   UNL     1      -0.816   6.315   0.000  0.00  0.00    +0.251 A 
ATOM     13  N   UNL     1      -1.368   5.702   0.000  0.00  0.00    -0.190 NA
BRANCH   9   6
ATOM      3  C   UNL     1      -4.265   4.800   0.000  0.00  0.00    +0.139 A 
ATOM      4  C   UNL     1      -4.265   5.625   0.000  0.00  0.00    +0.037 A 
ATOM      5  C   UNL     1      -3.551   6.038   0.000  0.00  0.00    +0.006 A 
ATOM      6  C   UNL     1      -2.836   5.625   0.000  0.00  0.00    +0.039 A 
ATOM      7  C   UNL     1      -2.836   4.800   0.000  0.00  0.00    +0.006 A 
ATOM      8  C   UNL     1      -3.551   4.388   0.000  0.00  0.00    +0.037 A 
BRANCH   3   2
ATOM      1  C   UNL     1      -4.980   3.563   0.000  0.00  0.00    +0.252 C 
ATOM      2  O   UNL     1      -4.980   4.388   0.000  0.00  0.00    -0.471 OA
ENDBRANCH   3   2
ENDBRANCH   9   6
ENDBRANCH  14  12
BRANCH  16  20
ATOM     20  N   UNL     1       2.024   6.919   0.000  0.00  0.00    -0.204 NA
ATOM     21  C   UNL     1       2.739   6.506   0.000  0.00  0.00    +0.272 C 
ATOM     22  O   UNL     1       2.739   5.681   0.000  0.00  0.00    -0.271 OA
BRANCH  21  23
ATOM     23  C   UNL     1       3.453   6.919   0.000  0.00  0.00    +0.229 C 
BRANCH  23  24
ATOM     24  O   UNL     1       4.168   6.506   0.000  0.00  0.00    -0.333 OA
BRANCH  24  25
ATOM     25  C   UNL     1       4.882   6.919   0.000  0.00  0.00    +0.257 C 
BRANCH  25  26
ATOM     26  C   UNL     1       5.597   6.506   0.000  0.00  0.00    +0.394 C 
ATOM     27  O   UNL     1       6.311   6.919   0.000  0.00  0.00    -0.243 OA
ATOM     28  O   UNL     1       5.597   5.681   0.000  0.00  0.00    -0.243 OA
ENDBRANCH  25  26
ENDBRANCH  24  25
ENDBRANCH  23  24
ENDBRANCH  21  23
ENDBRANCH  16  20
TORSDOF 8
