REMARK  Name = 
REMARK  6 active torsions:
REMARK  status: ('A' for Active; 'I' for Inactive)
REMARK    1  A    between atoms: C_2  and  C_3
REMARK    2  A    between atoms: C_2  and  C_20
REMARK    3  A    between atoms: C_10  and  N_11
REMARK    4  A    between atoms: N_22  and  C_24
REMARK    5  A    between atoms: C_24  and  C_25
REMARK    6  A    between atoms: C_25  and  C_26
REMARK                            x       y       z     vdW  Elec       q    Type
REMARK                         _______ _______ _______ _____ _____    ______ ____
ROOT
ATOM      3  C   UNL     1       2.143  -2.062   0.000  0.00  0.00    +0.039 C 
ATOM      4  C   UNL     1       2.143  -2.888   0.000  0.00  0.00    +0.003 C 
ATOM      5  C   UNL     1       1.429  -3.300   0.000  0.00  0.00    +0.000 C 
ATOM      6  C   UNL     1       0.715  -2.888   0.000  0.00  0.00    +0.002 C 
ATOM      7  C   UNL     1       0.715  -3.712   0.000  0.00  0.00    +0.000 C 
ATOM      8  C   UNL     1       0.000  -3.300   0.000  0.00  0.00    +0.002 C 
ATOM      9  C   UNL     1      -0.715  -2.888   0.000  0.00  0.00    +0.022 C 
ATOM     10  C   UNL     1      -0.715  -2.062   0.000  0.00  0.00    +0.095 C 
ATOM     15  C   UNL     1       0.000  -1.650   0.000  0.00  0.00    +0.022 C 
ATOM     16  C   UNL     1       0.000  -0.825   0.000  0.00  0.00    +0.002 C 
ATOM     17  C   UNL     1       0.715  -2.062   0.000  0.00  0.00    +0.032 C 
ATOM     18  C   UNL     1       1.429  -1.650   0.000  0.00  0.00    +0.152 C 
ATOM     19  O   UNL     1       1.429  -0.825   0.000  0.00  0.00    -0.223 OA
ENDROOT
BRANCH  10  11
ATOM     11  N   UNL     1      -1.429  -1.650   0.000  0.00  0.00    -0.207 NA
ATOM     12  C   UNL     1      -2.143  -2.062   0.000  0.00  0.00    +0.242 C 
ATOM     13  C   UNL     1      -2.858  -1.650   0.000  0.00  0.00    +0.096 C 
ATOM     14  O   UNL     1      -2.143  -2.888   0.000  0.00  0.00    -0.273 OA
ENDBRANCH  10  11
BRANCH   3   2
ATOM      1  C   UNL     1       2.858  -0.825   0.000  0.00  0.00    +0.010 C 
ATOM      2  C   UNL     1       2.858  -1.650   0.000  0.00  0.00    +0.079 C 
BRANCH   2  20
ATOM     20  C   UNL     1       3.572  -2.062   0.000  0.00  0.00    +0.225 C 
ATOM     21  O   UNL     1       3.572  -2.888   0.000  0.00  0.00    -0.275 OA
ATOM     22  N   UNL     1       4.287  -1.650   0.000  0.00  0.00    -0.277 N 
ATOM     23  C   UNL     1       4.287  -0.825   0.000  0.00  0.00    +0.115 C 
BRANCH  22  24
ATOM     24  C   UNL     1       5.001  -2.062   0.000  0.00  0.00    +0.098 C 
BRANCH  24  25
ATOM     25  C   UNL     1       5.716  -1.650   0.000  0.00  0.00    +0.048 C 
BRANCH  25  26
ATOM     26  C   UNL     1       6.430  -2.062   0.000  0.00  0.00    -0.020 A 
ATOM     27  C   UNL     1       7.145  -1.650   0.000  0.00  0.00    -0.004 A 
ATOM     28  C   UNL     1       7.859  -2.062   0.000  0.00  0.00    -0.000 A 
ATOM     29  C   UNL     1       7.859  -2.888   0.000  0.00  0.00    -0.000 A 
ATOM     30  C   UNL     1       7.145  -3.300   0.000  0.00  0.00    -0.000 A 
ATOM     31  C   UNL     1       6.430  -2.888   0.000  0.00  0.00    -0.004 A 
ENDBRANCH  25  26
ENDBRANCH  24  25
ENDBRANCH  22  24
ENDBRANCH   2  20
ENDBRANCH   3   2
TORSDOF 6
