REMARK  Name = 
REMARK  2 active torsions:
REMARK  status: ('A' for Active; 'I' for Inactive)
REMARK    1  A    between atoms: N_7  and  S_11
REMARK    2  A    between atoms: S_11  and  C_14
REMARK                            x       y       z     vdW  Elec       q    Type
REMARK                         _______ _______ _______ _____ _____    ______ ____
ROOT
ATOM      1  O   UNL     1       0.884  -2.150   0.000  0.00  0.00    -0.251 OA
ATOM      2  C   UNL     1       1.139  -1.365   0.000  0.00  0.00    +0.323 C 
ATOM      3  N   UNL     1       0.654  -0.698   0.000  0.00  0.00    -0.187 NA
ATOM      4  C   UNL     1       1.139  -0.030   0.000  0.00  0.00    +0.138 C 
ATOM      5  C   UNL     1       1.923  -0.285   0.000  0.00  0.00    +0.116 C 
ATOM      6  C   UNL     1       2.638   0.127   0.000  0.00  0.00    +0.117 C 
ATOM      7  N   UNL     1       3.352  -0.285   0.000  0.00  0.00    -0.152 NA
ATOM      8  C   UNL     1       3.352  -1.110   0.000  0.00  0.00    +0.117 C 
ATOM      9  C   UNL     1       2.638  -1.523   0.000  0.00  0.00    +0.114 C 
ATOM     10  N   UNL     1       1.923  -1.110   0.000  0.00  0.00    -0.260 N 
ENDROOT
BRANCH   7  11
ATOM     11  S   UNL     1       4.067   0.127   0.000  0.00  0.00    +0.063 S 
ATOM     12  O   UNL     1       4.479  -0.587   0.000  0.00  0.00    -0.153 OA
ATOM     13  O   UNL     1       3.654   0.842   0.000  0.00  0.00    -0.153 OA
BRANCH  11  14
ATOM     14  C   UNL     1       4.781   0.540   0.000  0.00  0.00    +0.122 A 
ATOM     15  C   UNL     1       4.781   1.365   0.000  0.00  0.00    +0.020 A 
ATOM     16  C   UNL     1       5.496   1.777   0.000  0.00  0.00    +0.001 A 
ATOM     17  C   UNL     1       6.210   1.365   0.000  0.00  0.00    +0.000 A 
ATOM     18  C   UNL     1       6.210   0.540   0.000  0.00  0.00    +0.001 A 
ATOM     19  C   UNL     1       5.496   0.127   0.000  0.00  0.00    +0.020 A 
ENDBRANCH  11  14
ENDBRANCH   7  11
TORSDOF 2
