REMARK  Name = 
REMARK  8 active torsions:
REMARK  status: ('A' for Active; 'I' for Inactive)
REMARK    1  A    between atoms: C_2  and  C_4
REMARK    2  A    between atoms: C_6  and  C_7
REMARK    3  A    between atoms: C_7  and  C_8
REMARK    4  A    between atoms: N_10  and  C_11
REMARK    5  A    between atoms: C_11  and  C_12
REMARK    6  A    between atoms: C_15  and  C_18
REMARK    7  A    between atoms: C_25  and  C_26
REMARK    8  A    between atoms: C_26  and  C_27
REMARK                            x       y       z     vdW  Elec       q    Type
REMARK                         _______ _______ _______ _____ _____    ______ ____
ROOT
ATOM      7  C   UNL     1      -0.715  -2.062   0.000  0.00  0.00    +0.091 C 
ENDROOT
BRANCH   7   6
ATOM      4  C   UNL     1      -2.858  -2.475   0.000  0.00  0.00    +0.005 C 
ATOM      5  C   UNL     1      -2.143  -2.062   0.000  0.00  0.00    +0.005 C 
ATOM      6  C   UNL     1      -1.429  -2.475   0.000  0.00  0.00    +0.027 C 
ATOM     22  C   UNL     1      -1.429  -3.300   0.000  0.00  0.00    -0.048 C 
ATOM     23  C   UNL     1      -0.715  -3.712   0.000  0.00  0.00    +0.026 C 
ATOM     24  C   UNL     1      -2.143  -3.712   0.000  0.00  0.00    -0.034 C 
ATOM     25  C   UNL     1      -2.858  -3.300   0.000  0.00  0.00    +0.037 C 
BRANCH   4   2
ATOM      1  C   UNL     1      -4.287  -2.475   0.000  0.00  0.00    +0.000 C 
ATOM      2  C   UNL     1      -3.572  -2.062   0.000  0.00  0.00    +0.000 C 
ATOM      3  C   UNL     1      -3.572  -1.238   0.000  0.00  0.00    +0.000 C 
ENDBRANCH   4   2
BRANCH  25  26
ATOM     26  C   UNL     1      -3.572  -3.712   0.000  0.00  0.00    +0.110 C 
BRANCH  26  27
ATOM     27  C   UNL     1      -3.572  -4.537   0.000  0.00  0.00    +0.073 C 
ATOM     28  N   UNL     1      -3.572  -5.362   0.000  0.00  0.00    -0.196 NA
ENDBRANCH  26  27
ENDBRANCH  25  26
ENDBRANCH   7   6
BRANCH   7   8
ATOM      8  C   UNL     1       0.000  -2.475   0.000  0.00  0.00    +0.242 C 
ATOM      9  O   UNL     1       0.000  -3.300   0.000  0.00  0.00    -0.273 OA
ATOM     10  N   UNL     1       0.715  -2.062   0.000  0.00  0.00    -0.201 NA
BRANCH  10  11
ATOM     11  C   UNL     1       1.429  -2.475   0.000  0.00  0.00    +0.141 C 
BRANCH  11  12
ATOM     12  C   UNL     1       2.143  -2.062   0.000  0.00  0.00    -0.001 A 
ATOM     13  C   UNL     1       2.143  -1.238   0.000  0.00  0.00    -0.003 A 
ATOM     14  C   UNL     1       2.858  -0.825   0.000  0.00  0.00    +0.004 A 
ATOM     15  C   UNL     1       3.572  -1.238   0.000  0.00  0.00    +0.071 A 
ATOM     16  C   UNL     1       3.572  -2.062   0.000  0.00  0.00    +0.004 A 
ATOM     17  C   UNL     1       2.858  -2.475   0.000  0.00  0.00    -0.003 A 
BRANCH  15  18
ATOM     18  C   UNL     1       4.287  -0.825   0.000  0.00  0.00    +0.419 C 
ATOM     19  F   UNL     1       5.001  -0.412   0.000  0.00  0.00    -0.166 F 
ATOM     20  F   UNL     1       3.874  -0.111   0.000  0.00  0.00    -0.166 F 
ATOM     21  F   UNL     1       4.699  -1.540   0.000  0.00  0.00    -0.166 F 
ENDBRANCH  15  18
ENDBRANCH  11  12
ENDBRANCH  10  11
ENDBRANCH   7   8
TORSDOF 8
