REMARK  Name = 
REMARK  4 active torsions:
REMARK  status: ('A' for Active; 'I' for Inactive)
REMARK    1  A    between atoms: C_2  and  C_4
REMARK    2  A    between atoms: C_4  and  N_5
REMARK    3  A    between atoms: N_5  and  C_6
REMARK    4  A    between atoms: C_12  and  C_13
REMARK                            x       y       z     vdW  Elec       q    Type
REMARK                         _______ _______ _______ _____ _____    ______ ____
ROOT
ATOM      6  C   UNL     1       0.715  -1.238   0.000  0.00  0.00    +0.110 C 
ATOM      7  C   UNL     1       1.382  -1.722   0.000  0.00  0.00    +0.198 C 
ATOM      8  O   UNL     1       2.167  -1.468   0.000  0.00  0.00    -0.219 OA
ATOM      9  C   UNL     1       1.127  -2.507   0.000  0.00  0.00    +0.184 C 
ATOM     10  O   UNL     1       1.612  -3.175   0.000  0.00  0.00    -0.220 OA
ATOM     11  C   UNL     1       0.302  -2.507   0.000  0.00  0.00    +0.041 C 
ATOM     12  C   UNL     1       0.047  -1.722   0.000  0.00  0.00    +0.045 C 
ENDROOT
BRANCH  12  13
ATOM     13  C   UNL     1      -0.738  -1.468   0.000  0.00  0.00    -0.002 A 
ATOM     14  C   UNL     1      -1.351  -2.019   0.000  0.00  0.00    -0.001 A 
ATOM     15  C   UNL     1      -2.135  -1.765   0.000  0.00  0.00    +0.020 A 
ATOM     16  C   UNL     1      -2.307  -0.958   0.000  0.00  0.00    +0.099 A 
ATOM     17  N   UNL     1      -1.694  -0.406   0.000  0.00  0.00    -0.243 NA
ATOM     18  C   UNL     1      -0.909  -0.660   0.000  0.00  0.00    +0.095 A 
ENDBRANCH  12  13
BRANCH   6   5
ATOM      5  N   UNL     1       0.715  -0.412   0.000  0.00  0.00    -0.216 NA
BRANCH   5   4
ATOM      4  C   UNL     1       1.429   0.000   0.000  0.00  0.00    +0.089 C 
BRANCH   4   2
ATOM      1  C   UNL     1       2.143   1.238   0.000  0.00  0.00    +0.001 C 
ATOM      2  C   UNL     1       1.429   0.825   0.000  0.00  0.00    +0.017 C 
ATOM      3  C   UNL     1       0.715   1.238   0.000  0.00  0.00    +0.001 C 
ENDBRANCH   4   2
ENDBRANCH   5   4
ENDBRANCH   6   5
TORSDOF 4
