REMARK  Name = 
REMARK  8 active torsions:
REMARK  status: ('A' for Active; 'I' for Inactive)
REMARK    1  A    between atoms: O_2  and  C_3
REMARK    2  A    between atoms: C_3  and  C_4
REMARK    3  A    between atoms: C_4  and  N_5
REMARK    4  A    between atoms: N_5  and  C_6
REMARK    5  A    between atoms: C_9  and  C_12
REMARK    6  A    between atoms: C_15  and  C_17
REMARK    7  A    between atoms: N_21  and  C_22
REMARK    8  A    between atoms: C_22  and  C_23
REMARK                            x       y       z     vdW  Elec       q    Type
REMARK                         _______ _______ _______ _____ _____    ______ ____
ROOT
ATOM     12  C   UNL     1       0.715   3.466   0.000  0.00  0.00    +0.205 A 
ATOM     13  N   UNL     1       1.382   2.981   0.000  0.00  0.00    -0.056 NA
ATOM     14  O   UNL     1       1.127   2.196   0.000  0.00  0.00    -0.336 OA
ATOM     15  C   UNL     1       0.302   2.196   0.000  0.00  0.00    +0.251 A 
ATOM     16  N   UNL     1       0.047   2.981   0.000  0.00  0.00    -0.190 NA
ENDROOT
BRANCH  12   9
ATOM      6  C   UNL     1       0.715   5.941   0.000  0.00  0.00    +0.148 A 
ATOM      7  C   UNL     1       1.429   5.529   0.000  0.00  0.00    +0.036 A 
ATOM      8  C   UNL     1       1.429   4.704   0.000  0.00  0.00    +0.008 A 
ATOM      9  C   UNL     1       0.715   4.291   0.000  0.00  0.00    +0.058 A 
ATOM     10  C   UNL     1       0.000   4.704   0.000  0.00  0.00    +0.103 A 
ATOM     11  N   UNL     1       0.000   5.529   0.000  0.00  0.00    -0.228 NA
BRANCH   6   5
ATOM      5  N   UNL     1       0.715   6.766   0.000  0.00  0.00    -0.218 NA
BRANCH   5   4
ATOM      4  C   UNL     1       0.000   7.179   0.000  0.00  0.00    +0.146 C 
BRANCH   4   3
ATOM      3  C   UNL     1       0.000   8.004   0.000  0.00  0.00    +0.166 C 
BRANCH   3   2
ATOM      1  C   UNL     1      -0.715   9.241   0.000  0.00  0.00    +0.174 C 
ATOM      2  O   UNL     1      -0.715   8.416   0.000  0.00  0.00    -0.349 OA
ENDBRANCH   3   2
ENDBRANCH   4   3
ENDBRANCH   5   4
ENDBRANCH   6   5
ENDBRANCH  12   9
BRANCH  15  17
ATOM     17  C   UNL     1      -0.183   1.529   0.000  0.00  0.00    +0.138 C 
ATOM     18  C   UNL     1       0.072   0.745   0.000  0.00  0.00    +0.027 C 
ATOM     19  C   UNL     1      -0.596   0.260   0.000  0.00  0.00    +0.019 C 
ATOM     20  C   UNL     1      -1.263   0.745   0.000  0.00  0.00    +0.073 C 
ATOM     21  N   UNL     1      -1.008   1.529   0.000  0.00  0.00    -0.262 NA
BRANCH  21  22
ATOM     22  C   UNL     1      -1.493   2.196   0.000  0.00  0.00    +0.106 C 
BRANCH  22  23
ATOM     23  C   UNL     1      -2.313   2.110   0.000  0.00  0.00    +0.023 A 
ATOM     24  C   UNL     1      -2.726   1.396   0.000  0.00  0.00    +0.004 A 
ATOM     25  C   UNL     1      -3.533   1.567   0.000  0.00  0.00    +0.007 A 
ATOM     26  C   UNL     1      -3.619   2.388   0.000  0.00  0.00    +0.035 A 
ATOM     27  S   UNL     1      -2.865   2.723   0.000  0.00  0.00    -0.089 S 
ENDBRANCH  22  23
ENDBRANCH  21  22
ENDBRANCH  15  17
TORSDOF 8
