REMARK  Name = 
REMARK  8 active torsions:
REMARK  status: ('A' for Active; 'I' for Inactive)
REMARK    1  A    between atoms: O_2  and  C_3
REMARK    2  A    between atoms: C_6  and  S_9
REMARK    3  A    between atoms: S_9  and  N_12
REMARK    4  A    between atoms: N_12  and  C_13
REMARK    5  A    between atoms: C_13  and  C_14
REMARK    6  A    between atoms: C_18  and  C_19
REMARK    7  A    between atoms: C_19  and  C_20
REMARK    8  A    between atoms: C_28  and  C_29
REMARK                            x       y       z     vdW  Elec       q    Type
REMARK                         _______ _______ _______ _____ _____    ______ ____
ROOT
ATOM     14  C   UNL     1      -0.715   8.416   0.000  0.00  0.00    +0.041 C 
ATOM     15  C   UNL     1       0.000   8.004   0.000  0.00  0.00    -0.033 C 
ATOM     16  C   UNL     1       0.000   7.179   0.000  0.00  0.00    -0.048 C 
ATOM     17  C   UNL     1       0.715   6.766   0.000  0.00  0.00    +0.026 C 
ATOM     18  C   UNL     1      -0.715   6.766   0.000  0.00  0.00    +0.027 C 
ATOM     27  C   UNL     1      -1.429   7.179   0.000  0.00  0.00    +0.005 C 
ATOM     28  C   UNL     1      -1.429   8.004   0.000  0.00  0.00    +0.006 C 
ENDROOT
BRANCH  28  29
ATOM     29  C   UNL     1      -2.143   8.416   0.000  0.00  0.00    +0.000 C 
ATOM     30  C   UNL     1      -2.143   9.241   0.000  0.00  0.00    +0.000 C 
ATOM     31  C   UNL     1      -2.858   8.004   0.000  0.00  0.00    +0.000 C 
ENDBRANCH  28  29
BRANCH  14  13
ATOM     13  C   UNL     1      -0.715   9.241   0.000  0.00  0.00    +0.120 C 
BRANCH  13  12
ATOM     12  N   UNL     1      -1.429   9.654   0.000  0.00  0.00    -0.077 NA
BRANCH  12   9
ATOM      9  S   UNL     1      -1.429  10.479   0.000  0.00  0.00    +0.077 S 
ATOM     10  O   UNL     1      -2.254  10.479   0.000  0.00  0.00    -0.152 OA
ATOM     11  O   UNL     1      -0.604  10.479   0.000  0.00  0.00    -0.152 OA
BRANCH   9   6
ATOM      3  C   UNL     1      -1.429  12.954   0.000  0.00  0.00    +0.139 A 
ATOM      4  C   UNL     1      -0.715  12.541   0.000  0.00  0.00    +0.038 A 
ATOM      5  C   UNL     1      -0.715  11.716   0.000  0.00  0.00    +0.023 A 
ATOM      6  C   UNL     1      -1.429  11.304   0.000  0.00  0.00    +0.124 A 
ATOM      7  C   UNL     1      -2.143  11.716   0.000  0.00  0.00    +0.023 A 
ATOM      8  C   UNL     1      -2.143  12.541   0.000  0.00  0.00    +0.038 A 
BRANCH   3   2
ATOM      1  C   UNL     1      -2.143  14.191   0.000  0.00  0.00    +0.252 C 
ATOM      2  O   UNL     1      -1.429  13.779   0.000  0.00  0.00    -0.471 OA
ENDBRANCH   3   2
ENDBRANCH   9   6
ENDBRANCH  12   9
ENDBRANCH  13  12
ENDBRANCH  14  13
BRANCH  18  19
ATOM     19  C   UNL     1      -0.715   5.941   0.000  0.00  0.00    +0.089 C 
BRANCH  19  20
ATOM     20  C   UNL     1       0.000   5.529   0.000  0.00  0.00    +0.226 C 
ATOM     21  O   UNL     1       0.715   5.941   0.000  0.00  0.00    -0.275 OA
ATOM     22  N   UNL     1       0.000   4.704   0.000  0.00  0.00    -0.280 N 
ATOM     23  C   UNL     1       0.667   4.219   0.000  0.00  0.00    +0.093 C 
ATOM     24  C   UNL     1       0.412   3.434   0.000  0.00  0.00    +0.023 C 
ATOM     25  C   UNL     1      -0.412   3.434   0.000  0.00  0.00    +0.023 C 
ATOM     26  C   UNL     1      -0.667   4.219   0.000  0.00  0.00    +0.093 C 
ENDBRANCH  19  20
ENDBRANCH  18  19
TORSDOF 8
