REMARK  Name = 
REMARK  7 active torsions:
REMARK  status: ('A' for Active; 'I' for Inactive)
REMARK    1  A    between atoms: C_3  and  C_4
REMARK    2  A    between atoms: C_4  and  N_5
REMARK    3  A    between atoms: N_5  and  S_6
REMARK    4  A    between atoms: S_6  and  C_9
REMARK    5  A    between atoms: C_17  and  N_18
REMARK    6  A    between atoms: N_18  and  C_19
REMARK    7  A    between atoms: C_19  and  C_20
REMARK                            x       y       z     vdW  Elec       q    Type
REMARK                         _______ _______ _______ _____ _____    ______ ____
ROOT
ATOM      1  O   UNL     1       1.429  -1.650   0.000  0.00  0.00    -0.219 OA
ATOM      2  C   UNL     1       1.429  -2.475   0.000  0.00  0.00    +0.199 C 
ATOM      3  C   UNL     1       2.096  -2.960   0.000  0.00  0.00    +0.166 C 
ATOM     15  O   UNL     1       1.841  -3.744   0.000  0.00  0.00    -0.350 OA
ATOM     16  C   UNL     1       1.016  -3.744   0.000  0.00  0.00    +0.162 C 
ATOM     17  C   UNL     1       0.761  -2.960   0.000  0.00  0.00    +0.135 C 
ENDROOT
BRANCH   3   4
ATOM      4  C   UNL     1       2.881  -2.705   0.000  0.00  0.00    +0.148 C 
BRANCH   4   5
ATOM      5  N   UNL     1       3.494  -3.257   0.000  0.00  0.00    -0.075 NA
BRANCH   5   6
ATOM      6  S   UNL     1       4.279  -3.002   0.000  0.00  0.00    +0.077 S 
ATOM      7  O   UNL     1       4.024  -2.217   0.000  0.00  0.00    -0.152 OA
ATOM      8  O   UNL     1       4.534  -3.787   0.000  0.00  0.00    -0.152 OA
BRANCH   6   9
ATOM      9  C   UNL     1       5.063  -2.747   0.000  0.00  0.00    +0.124 A 
ATOM     10  C   UNL     1       5.235  -1.940   0.000  0.00  0.00    +0.020 A 
ATOM     11  C   UNL     1       6.019  -1.685   0.000  0.00  0.00    +0.001 A 
ATOM     12  C   UNL     1       6.633  -2.237   0.000  0.00  0.00    +0.000 A 
ATOM     13  C   UNL     1       6.461  -3.044   0.000  0.00  0.00    +0.001 A 
ATOM     14  C   UNL     1       5.676  -3.299   0.000  0.00  0.00    +0.020 A 
ENDBRANCH   6   9
ENDBRANCH   5   6
ENDBRANCH   4   5
ENDBRANCH   3   4
BRANCH  17  18
ATOM     18  N   UNL     1      -0.023  -2.705   0.000  0.00  0.00    -0.209 NA
BRANCH  18  19
ATOM     19  C   UNL     1      -0.636  -3.257   0.000  0.00  0.00    +0.115 C 
BRANCH  19  20
ATOM     20  C   UNL     1      -1.421  -3.002   0.000  0.00  0.00    -0.005 A 
ATOM     21  C   UNL     1      -2.034  -3.554   0.000  0.00  0.00    -0.003 A 
ATOM     22  C   UNL     1      -2.819  -3.299   0.000  0.00  0.00    -0.000 A 
ATOM     23  C   UNL     1      -2.990  -2.492   0.000  0.00  0.00    -0.000 A 
ATOM     24  C   UNL     1      -2.377  -1.940   0.000  0.00  0.00    -0.000 A 
ATOM     25  C   UNL     1      -1.592  -2.195   0.000  0.00  0.00    -0.003 A 
ENDBRANCH  19  20
ENDBRANCH  18  19
ENDBRANCH  17  18
TORSDOF 7
