REMARK  Name = 
REMARK  9 active torsions:
REMARK  status: ('A' for Active; 'I' for Inactive)
REMARK    1  A    between atoms: C_2  and  C_4
REMARK    2  A    between atoms: C_4  and  C_5
REMARK    3  A    between atoms: C_7  and  C_21
REMARK    4  A    between atoms: N_11  and  C_12
REMARK    5  A    between atoms: C_12  and  C_13
REMARK    6  A    between atoms: N_23  and  C_24
REMARK    7  A    between atoms: C_24  and  C_25
REMARK    8  A    between atoms: C_25  and  C_26
REMARK    9  A    between atoms: C_26  and  N_27
REMARK                            x       y       z     vdW  Elec       q    Type
REMARK                         _______ _______ _______ _____ _____    ______ ____
ROOT
ATOM      5  C   UNL     1      -0.385  -2.390   0.000  0.00  0.00    +0.095 C 
ATOM      6  N   UNL     1       0.404  -2.146   0.000  0.00  0.00    -0.207 NA
ATOM      7  C   UNL     1       1.085  -2.611   0.000  0.00  0.00    +0.155 C 
ATOM      8  C   UNL     1       1.147  -3.434   0.000  0.00  0.00    +0.055 C 
ATOM      9  C   UNL     1       0.542  -3.995   0.000  0.00  0.00    -0.002 A 
ATOM     10  C   UNL     1       0.677  -4.809   0.000  0.00  0.00    +0.072 A 
ATOM     11  N   UNL     1      -0.055  -5.189   0.000  0.00  0.00    -0.322 N 
ATOM     15  C   UNL     1      -0.643  -4.610   0.000  0.00  0.00    +0.060 A 
ATOM     16  C   UNL     1      -0.274  -3.872   0.000  0.00  0.00    +0.011 A 
ATOM     17  C   UNL     1      -0.686  -3.158   0.000  0.00  0.00    -0.005 A 
ATOM     18  C   UNL     1      -1.552  -3.233   0.000  0.00  0.00    -0.003 A 
ATOM     19  C   UNL     1      -1.921  -3.971   0.000  0.00  0.00    +0.001 A 
ATOM     20  C   UNL     1      -1.466  -4.659   0.000  0.00  0.00    +0.017 A 
ENDROOT
BRANCH   7  21
ATOM     21  C   UNL     1       1.800  -2.199   0.000  0.00  0.00    +0.258 C 
ATOM     22  O   UNL     1       1.800  -1.374   0.000  0.00  0.00    -0.272 OA
ATOM     23  N   UNL     1       2.514  -2.611   0.000  0.00  0.00    -0.204 NA
BRANCH  23  24
ATOM     24  C   UNL     1       3.229  -2.199   0.000  0.00  0.00    +0.117 C 
BRANCH  24  25
ATOM     25  C   UNL     1       3.943  -2.611   0.000  0.00  0.00    +0.045 C 
BRANCH  25  26
ATOM     26  C   UNL     1       4.658  -2.199   0.000  0.00  0.00    +0.095 C 
BRANCH  26  27
ATOM     27  N   UNL     1       5.372  -2.611   0.000  0.00  0.00    -0.279 N 
ATOM     28  C   UNL     1       6.126  -2.276   0.000  0.00  0.00    +0.094 C 
ATOM     29  C   UNL     1       6.678  -2.889   0.000  0.00  0.00    +0.031 C 
ATOM     30  C   UNL     1       6.265  -3.603   0.000  0.00  0.00    +0.087 C 
ATOM     31  C   UNL     1       5.458  -3.432   0.000  0.00  0.00    +0.226 C 
ATOM     32  O   UNL     1       4.845  -3.984   0.000  0.00  0.00    -0.275 OA
ENDBRANCH  26  27
ENDBRANCH  25  26
ENDBRANCH  24  25
ENDBRANCH  23  24
ENDBRANCH   7  21
BRANCH   5   4
ATOM      4  C   UNL     1      -0.946  -1.785   0.000  0.00  0.00    +0.022 C 
BRANCH   4   2
ATOM      1  C   UNL     1      -2.311  -1.364   0.000  0.00  0.00    +0.000 C 
ATOM      2  C   UNL     1      -1.750  -1.968   0.000  0.00  0.00    +0.002 C 
ATOM      3  C   UNL     1      -1.993  -2.757   0.000  0.00  0.00    +0.000 C 
ENDBRANCH   4   2
ENDBRANCH   5   4
BRANCH  11  12
ATOM     12  C   UNL     1      -0.178  -6.005   0.000  0.00  0.00    +0.132 C 
BRANCH  12  13
ATOM     13  C   UNL     1      -0.946  -6.306   0.000  0.00  0.00    -0.002 C 
ATOM     14  C   UNL     1      -1.069  -7.122   0.000  0.00  0.00    -0.003 C 
ENDBRANCH  12  13
ENDBRANCH  11  12
TORSDOF 9
