REMARK  Name = 
REMARK  9 active torsions:
REMARK  status: ('A' for Active; 'I' for Inactive)
REMARK    1  A    between atoms: O_2  and  C_3
REMARK    2  A    between atoms: C_3  and  C_5
REMARK    3  A    between atoms: C_5  and  C_6
REMARK    4  A    between atoms: C_5  and  N_15
REMARK    5  A    between atoms: C_6  and  C_7
REMARK    6  A    between atoms: C_10  and  O_11
REMARK    7  A    between atoms: C_16  and  C_18
REMARK    8  A    between atoms: N_20  and  S_30
REMARK    9  A    between atoms: N_26  and  C_27
REMARK                            x       y       z     vdW  Elec       q    Type
REMARK                         _______ _______ _______ _____ _____    ______ ____
ROOT
ATOM     15  N   UNL     1       4.508  -2.475   0.000  0.00  0.00    -0.194 NA
ATOM     16  C   UNL     1       5.333  -2.475   0.000  0.00  0.00    +0.261 C 
ATOM     17  O   UNL     1       5.745  -1.760   0.000  0.00  0.00    -0.271 OA
ENDROOT
BRANCH  16  18
ATOM     18  C   UNL     1       5.745  -3.189   0.000  0.00  0.00    +0.173 C 
ATOM     19  C   UNL     1       6.570  -3.189   0.000  0.00  0.00    +0.125 C 
ATOM     20  N   UNL     1       6.983  -3.904   0.000  0.00  0.00    -0.155 NA
ATOM     21  C   UNL     1       6.570  -4.618   0.000  0.00  0.00    +0.117 C 
ATOM     22  C   UNL     1       5.745  -4.618   0.000  0.00  0.00    +0.115 C 
ATOM     23  N   UNL     1       5.333  -3.904   0.000  0.00  0.00    -0.253 N 
ATOM     24  C   UNL     1       4.508  -3.904   0.000  0.00  0.00    +0.324 C 
ATOM     25  O   UNL     1       4.095  -3.189   0.000  0.00  0.00    -0.251 OA
ATOM     26  N   UNL     1       4.095  -4.618   0.000  0.00  0.00    -0.190 NA
BRANCH  20  30
ATOM     30  S   UNL     1       7.808  -3.904   0.000  0.00  0.00    +0.046 S 
ATOM     31  C   UNL     1       8.633  -3.904   0.000  0.00  0.00    +0.196 C 
ATOM     32  O   UNL     1       7.808  -4.729   0.000  0.00  0.00    -0.157 OA
ATOM     33  O   UNL     1       7.808  -3.079   0.000  0.00  0.00    -0.157 OA
ENDBRANCH  20  30
BRANCH  26  27
ATOM     27  C   UNL     1       3.270  -4.618   0.000  0.00  0.00    +0.097 C 
ATOM     28  C   UNL     1       2.858  -5.333   0.000  0.00  0.00    +0.023 C 
ATOM     29  C   UNL     1       2.858  -3.904   0.000  0.00  0.00    +0.023 C 
ENDBRANCH  26  27
ENDBRANCH  16  18
BRANCH  15   5
ATOM      5  C   UNL     1       4.095  -1.760   0.000  0.00  0.00    +0.198 C 
BRANCH   5   3
ATOM      3  C   UNL     1       3.270  -1.760   0.000  0.00  0.00    +0.337 C 
ATOM      4  O   UNL     1       2.858  -1.046   0.000  0.00  0.00    -0.248 OA
BRANCH   3   2
ATOM      1  C   UNL     1       2.033  -2.475   0.000  0.00  0.00    +0.256 C 
ATOM      2  O   UNL     1       2.858  -2.475   0.000  0.00  0.00    -0.443 OA
ENDBRANCH   3   2
ENDBRANCH   5   3
BRANCH   5   6
ATOM      6  C   UNL     1       4.508  -1.046   0.000  0.00  0.00    +0.059 C 
BRANCH   6   7
ATOM      7  C   UNL     1       4.095  -0.332   0.000  0.00  0.00    -0.020 A 
ATOM      8  C   UNL     1       3.270  -0.332   0.000  0.00  0.00    -0.001 A 
ATOM      9  C   UNL     1       2.858   0.383   0.000  0.00  0.00    +0.037 A 
ATOM     10  C   UNL     1       3.270   1.097   0.000  0.00  0.00    +0.139 A 
ATOM     13  C   UNL     1       4.095   1.097   0.000  0.00  0.00    +0.037 A 
ATOM     14  C   UNL     1       4.508   0.383   0.000  0.00  0.00    -0.001 A 
BRANCH  10  11
ATOM     11  O   UNL     1       2.858   1.812   0.000  0.00  0.00    -0.471 OA
ATOM     12  C   UNL     1       3.270   2.526   0.000  0.00  0.00    +0.252 C 
ENDBRANCH  10  11
ENDBRANCH   6   7
ENDBRANCH   5   6
ENDBRANCH  15   5
TORSDOF 9
