REMARK  Name = 
REMARK  4 active torsions:
REMARK  status: ('A' for Active; 'I' for Inactive)
REMARK    1  A    between atoms: O_2  and  C_3
REMARK    2  A    between atoms: N_8  and  C_9
REMARK    3  A    between atoms: C_9  and  C_10
REMARK    4  A    between atoms: C_13  and  N_16
REMARK                            x       y       z     vdW  Elec       q    Type
REMARK                         _______ _______ _______ _____ _____    ______ ____
ROOT
ATOM      9  C   UNL     1       3.457   0.634   0.000  0.00  0.00    +0.099 C 
ENDROOT
BRANCH   9   8
ATOM      3  C   UNL     1       1.273   0.825   0.000  0.00  0.00    +0.161 C 
ATOM      4  C   UNL     1       0.971   1.593   0.000  0.00  0.00    +0.173 C 
ATOM      5  O   UNL     1       1.384   2.307   0.000  0.00  0.00    -0.350 OA
ATOM      6  C   UNL     1       2.200   2.430   0.000  0.00  0.00    +0.160 C 
ATOM      7  C   UNL     1       2.804   1.869   0.000  0.00  0.00    +0.105 C 
ATOM      8  N   UNL     1       2.743   1.046   0.000  0.00  0.00    -0.265 NA
ATOM     19  C   UNL     1       2.061   0.581   0.000  0.00  0.00    +0.105 C 
BRANCH   3   2
ATOM      1  C   UNL     1      -0.093   0.403   0.000  0.00  0.00    +0.174 C 
ATOM      2  O   UNL     1       0.712   0.220   0.000  0.00  0.00    -0.350 OA
ENDBRANCH   3   2
ENDBRANCH   9   8
BRANCH   9  10
ATOM     10  C   UNL     1       3.457  -0.191   0.000  0.00  0.00    -0.006 A 
ATOM     11  C   UNL     1       4.172  -0.604   0.000  0.00  0.00    -0.002 A 
ATOM     12  C   UNL     1       4.172  -1.429   0.000  0.00  0.00    +0.014 A 
ATOM     13  C   UNL     1       3.457  -1.841   0.000  0.00  0.00    +0.048 A 
ATOM     14  C   UNL     1       2.743  -1.429   0.000  0.00  0.00    +0.014 A 
ATOM     15  C   UNL     1       2.743  -0.604   0.000  0.00  0.00    -0.002 A 
BRANCH  13  16
ATOM     16  N   UNL     1       3.457  -2.666   0.000  0.00  0.00    -0.304 N 
ATOM     17  C   UNL     1       4.172  -3.079   0.000  0.00  0.00    +0.112 C 
ATOM     18  C   UNL     1       2.743  -3.079   0.000  0.00  0.00    +0.112 C 
ENDBRANCH  13  16
ENDBRANCH   9  10
TORSDOF 4
