REMARK  Name = 
REMARK  6 active torsions:
REMARK  status: ('A' for Active; 'I' for Inactive)
REMARK    1  A    between atoms: O_2  and  C_3
REMARK    2  A    between atoms: C_3  and  C_4
REMARK    3  A    between atoms: C_4  and  N_5
REMARK    4  A    between atoms: C_6  and  C_8
REMARK    5  A    between atoms: C_8  and  C_9
REMARK    6  A    between atoms: C_27  and  N_30
REMARK                            x       y       z     vdW  Elec       q    Type
REMARK                         _______ _______ _______ _____ _____    ______ ____
ROOT
ATOM      9  C   UNL     1      -0.775  -0.714   0.000  0.00  0.00    +0.017 C 
ATOM     10  C   UNL     1      -0.812  -1.538   0.000  0.00  0.00    +0.022 C 
ATOM     11  C   UNL     1      -0.117  -1.983   0.000  0.00  0.00    +0.093 C 
ATOM     12  N   UNL     1       0.612  -1.680   0.000  0.00  0.00    -0.278 N 
ATOM     13  C   UNL     1       0.653  -0.778   0.000  0.00  0.00    +0.098 C 
ATOM     14  C   UNL     1       0.157  -0.119   0.000  0.00  0.00    +0.042 C 
ATOM     15  C   UNL     1       0.631   0.556   0.000  0.00  0.00    -0.026 C 
ATOM     16  C   UNL     1       1.419   0.314   0.000  0.00  0.00    +0.016 C 
ATOM     17  C   UNL     1       2.254   0.659   0.000  0.00  0.00    +0.231 C 
ATOM     18  O   UNL     1       2.704   0.453   0.000  0.00  0.00    -0.471 OA
ATOM     19  C   UNL     1       2.856  -0.637   0.000  0.00  0.00    +0.136 A 
ATOM     20  C   UNL     1       3.532  -1.111   0.000  0.00  0.00    +0.030 A 
ATOM     21  C   UNL     1       3.459  -1.933   0.000  0.00  0.00    +0.119 C 
ATOM     22  N   UNL     1       2.711  -2.280   0.000  0.00  0.00    -0.204 NA
ATOM     23  C   UNL     1       2.036  -1.806   0.000  0.00  0.00    +0.174 C 
ATOM     24  C   UNL     1       1.288  -2.154   0.000  0.00  0.00    +0.243 C 
ATOM     25  O   UNL     1       1.215  -2.976   0.000  0.00  0.00    -0.273 OA
ATOM     26  C   UNL     1       4.280  -0.763   0.000  0.00  0.00    +0.015 A 
ATOM     27  C   UNL     1       4.353   0.059   0.000  0.00  0.00    +0.048 A 
ATOM     28  C   UNL     1       3.677   0.533   0.000  0.00  0.00    +0.018 A 
ATOM     29  C   UNL     1       2.929   0.185   0.000  0.00  0.00    +0.038 A 
ENDROOT
BRANCH  27  30
ATOM     30  N   UNL     1       5.101   0.407   0.000  0.00  0.00    -0.305 N 
ATOM     31  C   UNL     1       5.173   1.228   0.000  0.00  0.00    +0.110 C 
ATOM     32  C   UNL     1       5.921   1.576   0.000  0.00  0.00    +0.110 C 
ATOM     33  N   UNL     1       6.597   1.102   0.000  0.00  0.00    -0.214 NA
ATOM     34  C   UNL     1       6.524   0.281   0.000  0.00  0.00    +0.110 C 
ATOM     35  C   UNL     1       5.776  -0.067   0.000  0.00  0.00    +0.110 C 
ENDBRANCH  27  30
BRANCH   9   8
ATOM      8  C   UNL     1      -1.489  -0.302   0.000  0.00  0.00    +0.087 C 
BRANCH   8   6
ATOM      5  N   UNL     1      -2.918  -0.302   0.000  0.00  0.00    -0.203 NA
ATOM      6  C   UNL     1      -2.204  -0.714   0.000  0.00  0.00    +0.241 C 
ATOM      7  O   UNL     1      -2.204  -1.539   0.000  0.00  0.00    -0.273 OA
BRANCH   5   4
ATOM      4  C   UNL     1      -3.633  -0.714   0.000  0.00  0.00    +0.147 C 
BRANCH   4   3
ATOM      3  C   UNL     1      -4.347  -0.302   0.000  0.00  0.00    +0.166 C 
BRANCH   3   2
ATOM      1  C   UNL     1      -5.776  -0.302   0.000  0.00  0.00    +0.174 C 
ATOM      2  O   UNL     1      -5.062  -0.714   0.000  0.00  0.00    -0.349 OA
ENDBRANCH   3   2
ENDBRANCH   4   3
ENDBRANCH   5   4
ENDBRANCH   8   6
ENDBRANCH   9   8
TORSDOF 6
