REMARK  Name = 
REMARK  4 active torsions:
REMARK  status: ('A' for Active; 'I' for Inactive)
REMARK    1  A    between atoms: C_7  and  N_10
REMARK    2  A    between atoms: C_13  and  C_15
REMARK    3  A    between atoms: C_18  and  C_19
REMARK    4  A    between atoms: C_19  and  C_20
REMARK                            x       y       z     vdW  Elec       q    Type
REMARK                         _______ _______ _______ _____ _____    ______ ____
ROOT
ATOM     15  C   UNL     1      -2.533   0.786   0.000  0.00  0.00    +0.227 A 
ATOM     16  N   UNL     1      -2.361   1.593   0.000  0.00  0.00    -0.112 NA
ATOM     17  N   UNL     1      -1.541   1.679   0.000  0.00  0.00    -0.111 NA
ATOM     18  C   UNL     1      -1.205   0.926   0.000  0.00  0.00    +0.231 A 
ATOM     29  O   UNL     1      -1.819   0.374   0.000  0.00  0.00    -0.423 OA
ENDROOT
BRANCH  15  13
ATOM     10  N   UNL     1      -4.279  -0.443   0.000  0.00  0.00    -0.273 NA
ATOM     11  C   UNL     1      -4.614   0.311   0.000  0.00  0.00    +0.073 C 
ATOM     12  C   UNL     1      -4.001   0.863   0.000  0.00  0.00    +0.028 C 
ATOM     13  C   UNL     1      -3.287   0.451   0.000  0.00  0.00    +0.095 C 
ATOM     14  C   UNL     1      -3.458  -0.356   0.000  0.00  0.00    +0.081 C 
BRANCH  10   7
ATOM      1  C   UNL     1      -5.516  -4.015   0.000  0.00  0.00    +0.095 C 
ATOM      2  C   UNL     1      -5.929  -3.300   0.000  0.00  0.00    +0.226 C 
ATOM      3  O   UNL     1      -6.754  -3.300   0.000  0.00  0.00    -0.275 OA
ATOM      4  N   UNL     1      -5.516  -2.586   0.000  0.00  0.00    -0.279 N 
ATOM      5  C   UNL     1      -5.929  -1.872   0.000  0.00  0.00    +0.095 C 
ATOM      6  C   UNL     1      -5.516  -1.157   0.000  0.00  0.00    +0.038 C 
ATOM      7  C   UNL     1      -4.691  -1.157   0.000  0.00  0.00    +0.061 C 
ATOM      8  C   UNL     1      -4.279  -1.872   0.000  0.00  0.00    +0.038 C 
ATOM      9  C   UNL     1      -4.691  -2.586   0.000  0.00  0.00    +0.095 C 
ENDBRANCH  10   7
ENDBRANCH  15  13
BRANCH  18  19
ATOM     19  C   UNL     1      -0.398   0.754   0.000  0.00  0.00    +0.115 C 
BRANCH  19  20
ATOM     20  C   UNL     1      -0.143  -0.030   0.000  0.00  0.00    +0.008 A 
ATOM     21  C   UNL     1      -0.628  -0.698   0.000  0.00  0.00    +0.095 A 
ATOM     22  N   UNL     1      -0.143  -1.365   0.000  0.00  0.00    -0.244 NA
ATOM     23  C   UNL     1       0.641  -1.110   0.000  0.00  0.00    +0.081 A 
ATOM     24  C   UNL     1       0.641  -0.285   0.000  0.00  0.00    +0.016 A 
ATOM     25  C   UNL     1       1.356   0.127   0.000  0.00  0.00    +0.001 A 
ATOM     26  C   UNL     1       2.070  -0.285   0.000  0.00  0.00    +0.000 A 
ATOM     27  C   UNL     1       2.070  -1.110   0.000  0.00  0.00    +0.002 A 
ATOM     28  C   UNL     1       1.356  -1.523   0.000  0.00  0.00    +0.019 A 
ENDBRANCH  19  20
ENDBRANCH  18  19
TORSDOF 4
