REMARK  Name = 
REMARK  6 active torsions:
REMARK  status: ('A' for Active; 'I' for Inactive)
REMARK    1  A    between atoms: C_5  and  C_6
REMARK    2  A    between atoms: C_6  and  N_7
REMARK    3  A    between atoms: C_11  and  C_12
REMARK    4  A    between atoms: C_14  and  C_17
REMARK    5  A    between atoms: C_20  and  O_21
REMARK    6  A    between atoms: O_21  and  C_22
REMARK                            x       y       z     vdW  Elec       q    Type
REMARK                         _______ _______ _______ _____ _____    ______ ____
ROOT
ATOM     12  C   UNL     1       3.635  -4.803   0.000  0.00  0.00    +0.251 A 
ATOM     13  N   UNL     1       2.967  -5.287   0.000  0.00  0.00    -0.190 NA
ATOM     14  C   UNL     1       2.300  -4.803   0.000  0.00  0.00    +0.205 A 
ATOM     15  N   UNL     1       2.555  -4.018   0.000  0.00  0.00    -0.056 NA
ATOM     16  O   UNL     1       3.380  -4.018   0.000  0.00  0.00    -0.336 OA
ENDROOT
BRANCH  14  17
ATOM     17  C   UNL     1       1.515  -5.057   0.000  0.00  0.00    +0.058 A 
ATOM     18  C   UNL     1       1.343  -5.864   0.000  0.00  0.00    +0.010 A 
ATOM     19  C   UNL     1       0.559  -6.119   0.000  0.00  0.00    +0.058 A 
ATOM     20  C   UNL     1      -0.054  -5.567   0.000  0.00  0.00    +0.225 A 
ATOM     28  N   UNL     1       0.117  -4.760   0.000  0.00  0.00    -0.210 NA
ATOM     29  C   UNL     1       0.902  -4.505   0.000  0.00  0.00    +0.105 A 
BRANCH  20  21
ATOM     21  O   UNL     1      -0.839  -5.822   0.000  0.00  0.00    -0.464 OA
BRANCH  21  22
ATOM     22  C   UNL     1      -1.452  -5.270   0.000  0.00  0.00    +0.168 C 
ATOM     23  C   UNL     1      -2.237  -5.525   0.000  0.00  0.00    +0.044 C 
ATOM     24  C   UNL     1      -2.850  -4.973   0.000  0.00  0.00    +0.004 C 
ATOM     25  C   UNL     1      -2.678  -4.166   0.000  0.00  0.00    +0.000 C 
ATOM     26  C   UNL     1      -1.893  -3.911   0.000  0.00  0.00    +0.004 C 
ATOM     27  C   UNL     1      -1.280  -4.463   0.000  0.00  0.00    +0.044 C 
ENDBRANCH  21  22
ENDBRANCH  20  21
ENDBRANCH  14  17
BRANCH  12  11
ATOM      7  N   UNL     1       5.087  -4.572   0.000  0.00  0.00    -0.263 NA
ATOM      8  C   UNL     1       5.754  -5.057   0.000  0.00  0.00    +0.073 C 
ATOM      9  C   UNL     1       5.499  -5.842   0.000  0.00  0.00    +0.019 C 
ATOM     10  C   UNL     1       4.674  -5.842   0.000  0.00  0.00    +0.027 C 
ATOM     11  C   UNL     1       4.419  -5.057   0.000  0.00  0.00    +0.138 C 
BRANCH   7   6
ATOM      6  C   UNL     1       5.087  -3.748   0.000  0.00  0.00    +0.099 C 
BRANCH   6   5
ATOM      1  C   UNL     1       7.944  -2.098   0.000  0.00  0.00    +0.031 C 
ATOM      2  C   UNL     1       7.230  -2.510   0.000  0.00  0.00    -0.022 A 
ATOM      3  C   UNL     1       7.230  -3.335   0.000  0.00  0.00    -0.005 A 
ATOM      4  C   UNL     1       6.516  -3.748   0.000  0.00  0.00    -0.003 A 
ATOM      5  C   UNL     1       5.801  -3.335   0.000  0.00  0.00    -0.006 A 
ATOM     30  C   UNL     1       5.801  -2.510   0.000  0.00  0.00    -0.003 A 
ATOM     31  C   UNL     1       6.516  -2.098   0.000  0.00  0.00    -0.005 A 
ENDBRANCH   6   5
ENDBRANCH   7   6
ENDBRANCH  12  11
TORSDOF 6
