REMARK  Name = 
REMARK  7 active torsions:
REMARK  status: ('A' for Active; 'I' for Inactive)
REMARK    1  A    between atoms: C_2  and  C_4
REMARK    2  A    between atoms: C_7  and  N_8
REMARK    3  A    between atoms: C_9  and  O_11
REMARK    4  A    between atoms: O_11  and  C_12
REMARK    5  A    between atoms: C_16  and  N_20
REMARK    6  A    between atoms: N_23  and  C_24
REMARK    7  A    between atoms: C_24  and  C_25
REMARK                            x       y       z     vdW  Elec       q    Type
REMARK                         _______ _______ _______ _____ _____    ______ ____
ROOT
ATOM     12  C   UNL     1       1.270  -0.922   0.000  0.00  0.00    +0.229 C 
ATOM     13  C   UNL     1       0.785  -0.255   0.000  0.00  0.00    +0.188 C 
ATOM     14  O   UNL     1       1.270   0.412   0.000  0.00  0.00    -0.348 OA
ATOM     15  C   UNL     1       2.054   0.158   0.000  0.00  0.00    +0.168 C 
ATOM     16  C   UNL     1       2.839   0.412   0.000  0.00  0.00    +0.156 C 
ATOM     17  C   UNL     1       3.324  -0.255   0.000  0.00  0.00    +0.166 C 
ATOM     18  O   UNL     1       2.839  -0.922   0.000  0.00  0.00    -0.348 OA
ATOM     19  C   UNL     1       2.054  -0.667   0.000  0.00  0.00    +0.186 C 
ENDROOT
BRANCH  16  20
ATOM     20  N   UNL     1       3.094   1.197   0.000  0.00  0.00    -0.184 NA
ATOM     21  C   UNL     1       2.542   1.810   0.000  0.00  0.00    +0.340 C 
ATOM     22  O   UNL     1       1.735   1.639   0.000  0.00  0.00    -0.249 OA
ATOM     23  N   UNL     1       2.797   2.595   0.000  0.00  0.00    -0.182 NA
BRANCH  23  24
ATOM     24  C   UNL     1       2.245   3.208   0.000  0.00  0.00    +0.143 C 
BRANCH  24  25
ATOM     25  C   UNL     1       2.499   3.993   0.000  0.00  0.00    -0.001 A 
ATOM     26  C   UNL     1       1.948   4.606   0.000  0.00  0.00    -0.003 A 
ATOM     27  C   UNL     1       2.202   5.390   0.000  0.00  0.00    -0.000 A 
ATOM     28  C   UNL     1       3.009   5.562   0.000  0.00  0.00    -0.000 A 
ATOM     29  C   UNL     1       3.562   4.949   0.000  0.00  0.00    -0.000 A 
ATOM     30  C   UNL     1       3.307   4.164   0.000  0.00  0.00    -0.003 A 
ENDBRANCH  24  25
ENDBRANCH  23  24
ENDBRANCH  16  20
BRANCH  12  11
ATOM     11  O   UNL     1       1.015  -1.707   0.000  0.00  0.00    -0.432 OA
BRANCH  11   9
ATOM      8  N   UNL     1       2.374  -2.149   0.000  0.00  0.00    -0.142 NA
ATOM      9  C   UNL     1       1.567  -2.320   0.000  0.00  0.00    +0.425 C 
ATOM     10  O   UNL     1       1.312  -3.105   0.000  0.00  0.00    -0.224 OA
BRANCH   8   7
ATOM      4  C   UNL     1       4.030  -3.988   0.000  0.00  0.00    -0.022 A 
ATOM      5  C   UNL     1       3.223  -4.159   0.000  0.00  0.00    -0.003 A 
ATOM      6  C   UNL     1       2.671  -3.546   0.000  0.00  0.00    +0.016 A 
ATOM      7  C   UNL     1       2.926  -2.762   0.000  0.00  0.00    +0.077 A 
ATOM     31  C   UNL     1       3.733  -2.590   0.000  0.00  0.00    +0.016 A 
ATOM     32  C   UNL     1       4.285  -3.203   0.000  0.00  0.00    -0.003 A 
BRANCH   4   2
ATOM      1  C   UNL     1       5.389  -4.429   0.000  0.00  0.00    +0.005 C 
ATOM      2  C   UNL     1       4.582  -4.601   0.000  0.00  0.00    +0.022 C 
ATOM      3  C   UNL     1       4.327  -5.386   0.000  0.00  0.00    +0.005 C 
ENDBRANCH   4   2
ENDBRANCH   8   7
ENDBRANCH  11   9
ENDBRANCH  12  11
TORSDOF 7
