REMARK  Name = 
REMARK  3 active torsions:
REMARK  status: ('A' for Active; 'I' for Inactive)
REMARK    1  A    between atoms: C_2  and  C_20
REMARK    2  A    between atoms: N_10  and  C_11
REMARK    3  A    between atoms: C_11  and  C_12
REMARK                            x       y       z     vdW  Elec       q    Type
REMARK                         _______ _______ _______ _____ _____    ______ ____
ROOT
ATOM      1  O   UNL     1      -0.584  -1.412   0.000  0.00  0.00    -0.270 OA
ATOM      2  C   UNL     1      -0.171  -0.698   0.000  0.00  0.00    +0.249 C 
ATOM      3  N   UNL     1       0.654  -0.698   0.000  0.00  0.00    -0.272 N 
ATOM      4  C   UNL     1       1.139  -0.030   0.000  0.00  0.00    +0.125 C 
ATOM      5  C   UNL     1       1.923  -0.285   0.000  0.00  0.00    +0.155 C 
ATOM      6  O   UNL     1       2.638   0.127   0.000  0.00  0.00    -0.343 OA
ATOM      7  C   UNL     1       3.352  -0.285   0.000  0.00  0.00    +0.227 C 
ATOM      8  C   UNL     1       3.352  -1.110   0.000  0.00  0.00    +0.256 C 
ATOM      9  O   UNL     1       4.067  -1.523   0.000  0.00  0.00    -0.272 OA
ATOM     10  N   UNL     1       2.638  -1.523   0.000  0.00  0.00    -0.271 N 
ATOM     18  C   UNL     1       1.923  -1.110   0.000  0.00  0.00    +0.124 C 
ATOM     19  C   UNL     1       1.139  -1.365   0.000  0.00  0.00    +0.116 C 
ENDROOT
BRANCH   2  20
ATOM     20  C   UNL     1      -0.584   0.017   0.000  0.00  0.00    +0.057 A 
ATOM     21  C   UNL     1      -1.409   0.017   0.000  0.00  0.00    +0.025 A 
ATOM     22  C   UNL     1      -1.821   0.731   0.000  0.00  0.00    +0.099 A 
ATOM     23  N   UNL     1      -1.409   1.446   0.000  0.00  0.00    -0.242 NA
ATOM     24  C   UNL     1      -0.584   1.446   0.000  0.00  0.00    +0.099 A 
ATOM     25  C   UNL     1      -0.171   0.731   0.000  0.00  0.00    +0.025 A 
ENDBRANCH   2  20
BRANCH  10  11
ATOM     11  C   UNL     1       2.638  -2.348   0.000  0.00  0.00    +0.122 C 
BRANCH  11  12
ATOM     12  C   UNL     1       3.352  -2.760   0.000  0.00  0.00    +0.017 A 
ATOM     13  C   UNL     1       4.067  -2.348   0.000  0.00  0.00    +0.001 A 
ATOM     14  C   UNL     1       4.781  -2.760   0.000  0.00  0.00    +0.020 A 
ATOM     15  C   UNL     1       4.781  -3.585   0.000  0.00  0.00    +0.099 A 
ATOM     16  N   UNL     1       4.067  -3.998   0.000  0.00  0.00    -0.243 NA
ATOM     17  C   UNL     1       3.352  -3.585   0.000  0.00  0.00    +0.096 A 
ENDBRANCH  11  12
ENDBRANCH  10  11
TORSDOF 3
