REMARK  Name = 
REMARK  4 active torsions:
REMARK  status: ('A' for Active; 'I' for Inactive)
REMARK    1  A    between atoms: O_2  and  C_3
REMARK    2  A    between atoms: C_3  and  C_4
REMARK    3  A    between atoms: C_18  and  C_23
REMARK    4  A    between atoms: C_26  and  O_27
REMARK                            x       y       z     vdW  Elec       q    Type
REMARK                         _______ _______ _______ _____ _____    ______ ____
ROOT
ATOM      4  C   UNL     1       6.912   0.608   0.000  0.00  0.00    +0.256 C 
ATOM      5  O   UNL     1       7.517   1.169   0.000  0.00  0.00    -0.272 OA
ATOM      6  N   UNL     1       6.124   0.851   0.000  0.00  0.00    -0.274 N 
ATOM      7  C   UNL     1       5.940   1.655   0.000  0.00  0.00    +0.115 C 
ATOM      8  C   UNL     1       5.152   1.899   0.000  0.00  0.00    +0.116 C 
ATOM      9  N   UNL     1       4.547   1.337   0.000  0.00  0.00    -0.266 N 
ATOM     10  C   UNL     1       4.731   0.533   0.000  0.00  0.00    +0.174 C 
ATOM     11  C   UNL     1       5.519   0.290   0.000  0.00  0.00    +0.123 C 
ATOM     12  C   UNL     1       4.216  -0.112   0.000  0.00  0.00    +0.265 C 
ATOM     13  O   UNL     1       4.574  -0.855   0.000  0.00  0.00    -0.271 OA
ATOM     14  N   UNL     1       3.391  -0.112   0.000  0.00  0.00    -0.178 NA
ATOM     15  C   UNL     1       2.877   0.533   0.000  0.00  0.00    +0.078 A 
ATOM     16  C   UNL     1       2.088   0.290   0.000  0.00  0.00    +0.017 A 
ATOM     17  C   UNL     1       1.484   0.851   0.000  0.00  0.00    +0.001 A 
ATOM     18  C   UNL     1       1.667   1.655   0.000  0.00  0.00    +0.000 A 
ATOM     19  C   UNL     1       2.456   1.899   0.000  0.00  0.00    +0.006 A 
ATOM     20  C   UNL     1       3.060   1.337   0.000  0.00  0.00    +0.069 A 
ATOM     21  C   UNL     1       3.804   1.695   0.000  0.00  0.00    +0.251 C 
ATOM     22  O   UNL     1       3.804   2.520   0.000  0.00  0.00    -0.270 OA
ENDROOT
BRANCH  18  23
ATOM     23  C   UNL     1       1.062   2.216   0.000  0.00  0.00    +0.000 A 
ATOM     24  C   UNL     1       0.274   1.973   0.000  0.00  0.00    +0.003 A 
ATOM     25  C   UNL     1      -0.331   2.534   0.000  0.00  0.00    +0.037 A 
ATOM     26  C   UNL     1      -0.147   3.339   0.000  0.00  0.00    +0.139 A 
ATOM     29  C   UNL     1       0.641   3.582   0.000  0.00  0.00    +0.037 A 
ATOM     30  C   UNL     1       1.246   3.021   0.000  0.00  0.00    +0.003 A 
BRANCH  26  27
ATOM     27  O   UNL     1      -0.752   3.900   0.000  0.00  0.00    -0.471 OA
ATOM     28  C   UNL     1      -1.540   3.657   0.000  0.00  0.00    +0.252 C 
ENDBRANCH  26  27
ENDBRANCH  18  23
BRANCH   4   3
ATOM      3  C   UNL     1       7.096  -0.197   0.000  0.00  0.00    +0.227 C 
BRANCH   3   2
ATOM      1  C   UNL     1       8.068  -1.244   0.000  0.00  0.00    +0.175 C 
ATOM      2  O   UNL     1       7.884  -0.440   0.000  0.00  0.00    -0.342 OA
ENDBRANCH   3   2
ENDBRANCH   4   3
TORSDOF 4
