REMARK  Name = 
REMARK  6 active torsions:
REMARK  status: ('A' for Active; 'I' for Inactive)
REMARK    1  A    between atoms: C_6  and  C_7
REMARK    2  A    between atoms: N_9  and  C_10
REMARK    3  A    between atoms: C_10  and  C_11
REMARK    4  A    between atoms: C_13  and  C_14
REMARK    5  A    between atoms: C_18  and  N_19
REMARK    6  A    between atoms: N_22  and  C_25
REMARK                            x       y       z     vdW  Elec       q    Type
REMARK                         _______ _______ _______ _____ _____    ______ ____
ROOT
ATOM     11  C   UNL     1       1.236  -5.638   0.000  0.00  0.00    +0.154 C 
ATOM     12  O   UNL     1       1.322  -6.459   0.000  0.00  0.00    -0.350 OA
ATOM     13  C   UNL     1       0.569  -6.795   0.000  0.00  0.00    +0.180 C 
ATOM     16  C   UNL     1       0.017  -6.181   0.000  0.00  0.00    +0.198 C 
ATOM     17  O   UNL     1      -0.804  -6.268   0.000  0.00  0.00    -0.219 OA
ATOM     18  C   UNL     1       0.429  -5.467   0.000  0.00  0.00    +0.120 C 
ENDROOT
BRANCH  18  19
ATOM     19  N   UNL     1       0.093  -4.713   0.000  0.00  0.00    -0.267 NA
ATOM     20  C   UNL     1      -0.727  -4.627   0.000  0.00  0.00    +0.094 C 
ATOM     21  C   UNL     1      -1.063  -3.873   0.000  0.00  0.00    +0.108 C 
ATOM     22  N   UNL     1      -0.578  -3.206   0.000  0.00  0.00    -0.305 N 
ATOM     23  C   UNL     1       0.243  -3.292   0.000  0.00  0.00    +0.108 C 
ATOM     24  C   UNL     1       0.578  -4.046   0.000  0.00  0.00    +0.094 C 
BRANCH  22  25
ATOM     25  C   UNL     1      -0.913  -2.452   0.000  0.00  0.00    +0.048 A 
ATOM     26  C   UNL     1      -1.734  -2.366   0.000  0.00  0.00    +0.015 A 
ATOM     27  C   UNL     1      -2.069  -1.612   0.000  0.00  0.00    +0.001 A 
ATOM     28  C   UNL     1      -1.584  -0.945   0.000  0.00  0.00    +0.000 A 
ATOM     29  C   UNL     1      -0.764  -1.031   0.000  0.00  0.00    +0.001 A 
ATOM     30  C   UNL     1      -0.428  -1.785   0.000  0.00  0.00    +0.015 A 
ENDBRANCH  22  25
ENDBRANCH  18  19
BRANCH  13  14
ATOM     14  C   UNL     1       0.397  -7.601   0.000  0.00  0.00    +0.214 C 
ATOM     15  O   UNL     1      -0.388  -7.856   0.000  0.00  0.00    -0.218 OA
ENDBRANCH  13  14
BRANCH  11  10
ATOM     10  C   UNL     1       1.849  -5.087   0.000  0.00  0.00    +0.146 C 
BRANCH  10   9
ATOM      7  C   UNL     1       3.247  -4.789   0.000  0.00  0.00    +0.281 C 
ATOM      8  O   UNL     1       3.075  -3.982   0.000  0.00  0.00    -0.267 OA
ATOM      9  N   UNL     1       2.634  -5.341   0.000  0.00  0.00    -0.198 NA
BRANCH   7   6
ATOM      1  C   UNL     1       4.699  -3.734   0.000  0.00  0.00    +0.131 C 
ATOM      2  N   UNL     1       4.699  -4.559   0.000  0.00  0.00    -0.320 N 
ATOM      3  C   UNL     1       5.366  -5.044   0.000  0.00  0.00    +0.076 A 
ATOM      4  C   UNL     1       5.111  -5.829   0.000  0.00  0.00    +0.020 A 
ATOM      5  C   UNL     1       4.286  -5.829   0.000  0.00  0.00    +0.023 A 
ATOM      6  C   UNL     1       4.031  -5.044   0.000  0.00  0.00    +0.116 A 
ENDBRANCH   7   6
ENDBRANCH  10   9
ENDBRANCH  11  10
TORSDOF 6
