REMARK  Name = 
REMARK  3 active torsions:
REMARK  status: ('A' for Active; 'I' for Inactive)
REMARK    1  A    between atoms: C_1  and  N_2
REMARK    2  A    between atoms: C_1  and  C_16
REMARK    3  A    between atoms: C_5  and  C_7
REMARK                            x       y       z     vdW  Elec       q    Type
REMARK                         _______ _______ _______ _____ _____    ______ ____
ROOT
ATOM      2  N   UNL     1      -1.205   0.926   0.000  0.00  0.00    -0.269 NA
ATOM      3  C   UNL     1      -1.819   0.374   0.000  0.00  0.00    +0.073 C 
ATOM      4  C   UNL     1      -2.533   0.786   0.000  0.00  0.00    +0.025 C 
ATOM      5  C   UNL     1      -2.361   1.593   0.000  0.00  0.00    +0.064 C 
ATOM      6  C   UNL     1      -1.541   1.679   0.000  0.00  0.00    +0.079 C 
ENDROOT
BRANCH   5   7
ATOM      7  C   UNL     1      -2.913   2.206   0.000  0.00  0.00    +0.089 A 
ATOM      8  N   UNL     1      -2.742   3.013   0.000  0.00  0.00    -0.243 NA
ATOM      9  C   UNL     1      -3.456   3.426   0.000  0.00  0.00    +0.087 A 
ATOM     10  C   UNL     1      -4.069   2.874   0.000  0.00  0.00    +0.048 A 
ATOM     11  S   UNL     1      -3.734   2.120   0.000  0.00  0.00    -0.071 S 
ATOM     12  C   UNL     1      -4.854   3.129   0.000  0.00  0.00    +0.008 A 
ATOM     13  C   UNL     1      -5.026   3.936   0.000  0.00  0.00    +0.001 A 
ATOM     14  C   UNL     1      -4.413   4.488   0.000  0.00  0.00    +0.002 A 
ATOM     15  C   UNL     1      -3.628   4.233   0.000  0.00  0.00    +0.020 A 
ENDBRANCH   5   7
BRANCH   2   1
ATOM      1  C   UNL     1      -0.398   0.754   0.000  0.00  0.00    +0.101 C 
BRANCH   1  16
ATOM     16  C   UNL     1      -0.143  -0.030   0.000  0.00  0.00    +0.014 A 
ATOM     17  C   UNL     1      -0.628  -0.698   0.000  0.00  0.00    +0.096 A 
ATOM     18  N   UNL     1      -0.143  -1.365   0.000  0.00  0.00    -0.244 NA
ATOM     19  C   UNL     1       0.641  -1.110   0.000  0.00  0.00    +0.081 A 
ATOM     20  C   UNL     1       0.641  -0.285   0.000  0.00  0.00    +0.016 A 
ATOM     21  C   UNL     1       1.356   0.127   0.000  0.00  0.00    +0.001 A 
ATOM     22  C   UNL     1       2.070  -0.285   0.000  0.00  0.00    +0.000 A 
ATOM     23  C   UNL     1       2.070  -1.110   0.000  0.00  0.00    +0.002 A 
ATOM     24  C   UNL     1       1.356  -1.523   0.000  0.00  0.00    +0.019 A 
ENDBRANCH   1  16
ENDBRANCH   2   1
TORSDOF 3
