REMARK  Name = 
REMARK  11 active torsions:
REMARK  status: ('A' for Active; 'I' for Inactive)
REMARK    1  A    between atoms: O_2  and  C_3
REMARK    2  A    between atoms: C_3  and  C_4
REMARK    3  A    between atoms: C_4  and  C_5
REMARK    4  A    between atoms: N_7  and  C_8
REMARK    5  A    between atoms: C_8  and  C_9
REMARK    6  A    between atoms: C_13  and  C_14
REMARK    7  A    between atoms: C_14  and  C_15
REMARK    8  A    between atoms: N_17  and  C_18
REMARK    9  A    between atoms: C_18  and  C_19
REMARK   10  A    between atoms: C_19  and  N_20
REMARK   11  A    between atoms: C_27  and  C_28
REMARK                            x       y       z     vdW  Elec       q    Type
REMARK                         _______ _______ _______ _____ _____    ______ ____
ROOT
ATOM      9  C   UNL     1       6.430  -7.013   0.000  0.00  0.00    +0.043 C 
ATOM     10  C   UNL     1       5.716  -6.600   0.000  0.00  0.00    -0.033 C 
ATOM     11  C   UNL     1       5.716  -5.775   0.000  0.00  0.00    -0.048 C 
ATOM     12  C   UNL     1       5.001  -5.362   0.000  0.00  0.00    +0.026 C 
ATOM     13  C   UNL     1       6.430  -5.362   0.000  0.00  0.00    +0.027 C 
ATOM     26  C   UNL     1       7.145  -5.775   0.000  0.00  0.00    +0.005 C 
ATOM     27  C   UNL     1       7.145  -6.600   0.000  0.00  0.00    +0.006 C 
ENDROOT
BRANCH  27  28
ATOM     28  C   UNL     1       7.859  -7.013   0.000  0.00  0.00    +0.000 C 
ATOM     29  C   UNL     1       7.859  -7.838   0.000  0.00  0.00    +0.000 C 
ATOM     30  C   UNL     1       8.574  -6.600   0.000  0.00  0.00    +0.000 C 
ENDBRANCH  27  28
BRANCH   9   8
ATOM      8  C   UNL     1       6.430  -7.838   0.000  0.00  0.00    +0.119 C 
BRANCH   8   7
ATOM      5  C   UNL     1       5.001  -7.838   0.000  0.00  0.00    +0.244 C 
ATOM      6  O   UNL     1       5.001  -7.013   0.000  0.00  0.00    -0.273 OA
ATOM      7  N   UNL     1       5.716  -8.250   0.000  0.00  0.00    -0.205 NA
BRANCH   5   4
ATOM      4  C   UNL     1       4.287  -8.250   0.000  0.00  0.00    +0.119 C 
BRANCH   4   3
ATOM      3  C   UNL     1       3.572  -7.838   0.000  0.00  0.00    +0.152 C 
BRANCH   3   2
ATOM      1  C   UNL     1       2.143  -7.838   0.000  0.00  0.00    +0.174 C 
ATOM      2  O   UNL     1       2.858  -8.250   0.000  0.00  0.00    -0.351 OA
ENDBRANCH   3   2
ENDBRANCH   4   3
ENDBRANCH   5   4
ENDBRANCH   8   7
ENDBRANCH   9   8
BRANCH  13  14
ATOM     14  C   UNL     1       6.430  -4.537   0.000  0.00  0.00    +0.091 C 
BRANCH  14  15
ATOM     15  C   UNL     1       7.145  -4.125   0.000  0.00  0.00    +0.242 C 
ATOM     16  O   UNL     1       7.859  -4.537   0.000  0.00  0.00    -0.273 OA
ATOM     17  N   UNL     1       7.145  -3.300   0.000  0.00  0.00    -0.204 NA
BRANCH  17  18
ATOM     18  C   UNL     1       7.859  -2.888   0.000  0.00  0.00    +0.132 C 
BRANCH  18  19
ATOM     19  C   UNL     1       7.859  -2.062   0.000  0.00  0.00    +0.096 C 
BRANCH  19  20
ATOM     20  N   UNL     1       8.574  -1.650   0.000  0.00  0.00    -0.267 NA
ATOM     21  C   UNL     1       8.574  -0.825   0.000  0.00  0.00    +0.105 C 
ATOM     22  C   UNL     1       9.288  -0.412   0.000  0.00  0.00    +0.159 C 
ATOM     23  O   UNL     1      10.003  -0.825   0.000  0.00  0.00    -0.351 OA
ATOM     24  C   UNL     1      10.003  -1.650   0.000  0.00  0.00    +0.159 C 
ATOM     25  C   UNL     1       9.288  -2.062   0.000  0.00  0.00    +0.105 C 
ENDBRANCH  19  20
ENDBRANCH  18  19
ENDBRANCH  17  18
ENDBRANCH  14  15
ENDBRANCH  13  14
TORSDOF 11
