REMARK  Name = 
REMARK  3 active torsions:
REMARK  status: ('A' for Active; 'I' for Inactive)
REMARK    1  A    between atoms: N_3  and  C_4
REMARK    2  A    between atoms: C_15  and  C_20
REMARK    3  A    between atoms: N_25  and  C_26
REMARK                            x       y       z     vdW  Elec       q    Type
REMARK                         _______ _______ _______ _____ _____    ______ ____
ROOT
ATOM      4  C   UNL     1       5.559   0.496   0.000  0.00  0.00    +0.126 C 
ATOM      5  C   UNL     1       5.875   1.258   0.000  0.00  0.00    +0.045 C 
ATOM      6  C   UNL     1       5.248   1.794   0.000  0.00  0.00    +0.096 C 
ATOM      7  N   UNL     1       4.544   1.363   0.000  0.00  0.00    -0.268 N 
ATOM      8  C   UNL     1       4.737   0.560   0.000  0.00  0.00    +0.174 C 
ATOM      9  C   UNL     1       4.229  -0.090   0.000  0.00  0.00    +0.265 C 
ATOM     10  O   UNL     1       4.596  -0.829   0.000  0.00  0.00    -0.271 OA
ATOM     11  N   UNL     1       3.405  -0.099   0.000  0.00  0.00    -0.178 NA
ATOM     12  C   UNL     1       2.883   0.540   0.000  0.00  0.00    +0.078 A 
ATOM     13  C   UNL     1       2.097   0.288   0.000  0.00  0.00    +0.017 A 
ATOM     14  C   UNL     1       1.486   0.842   0.000  0.00  0.00    +0.002 A 
ATOM     15  C   UNL     1       1.661   1.649   0.000  0.00  0.00    +0.006 A 
ATOM     16  C   UNL     1       2.447   1.901   0.000  0.00  0.00    +0.006 A 
ATOM     17  C   UNL     1       3.058   1.346   0.000  0.00  0.00    +0.069 A 
ATOM     18  C   UNL     1       3.797   1.712   0.000  0.00  0.00    +0.251 C 
ATOM     19  O   UNL     1       3.788   2.537   0.000  0.00  0.00    -0.270 OA
ENDROOT
BRANCH  15  20
ATOM     20  C   UNL     1       1.050   2.203   0.000  0.00  0.00    +0.029 A 
ATOM     21  C   UNL     1       0.242   2.034   0.000  0.00  0.00    +0.007 A 
ATOM     22  C   UNL     1      -0.167   2.750   0.000  0.00  0.00    +0.007 A 
ATOM     23  C   UNL     1       0.387   3.361   0.000  0.00  0.00    +0.035 A 
ATOM     24  S   UNL     1       1.139   3.023   0.000  0.00  0.00    -0.086 S 
ENDBRANCH  15  20
BRANCH   4   3
ATOM      1  O   UNL     1       7.209   0.539   0.000  0.00  0.00    -0.249 OA
ATOM      2  C   UNL     1       6.815  -0.186   0.000  0.00  0.00    +0.339 C 
ATOM      3  N   UNL     1       5.990  -0.208   0.000  0.00  0.00    -0.187 NA
ATOM     25  N   UNL     1       7.246  -0.890   0.000  0.00  0.00    -0.189 NA
BRANCH  25  26
ATOM     26  C   UNL     1       6.852  -1.615   0.000  0.00  0.00    +0.097 C 
ATOM     27  C   UNL     1       7.283  -2.318   0.000  0.00  0.00    +0.022 C 
ATOM     28  C   UNL     1       6.890  -3.043   0.000  0.00  0.00    +0.002 C 
ATOM     29  C   UNL     1       6.065  -3.065   0.000  0.00  0.00    +0.000 C 
ATOM     30  C   UNL     1       5.634  -2.361   0.000  0.00  0.00    +0.002 C 
ATOM     31  C   UNL     1       6.027  -1.636   0.000  0.00  0.00    +0.022 C 
ENDBRANCH  25  26
ENDBRANCH   4   3
TORSDOF 3
