REMARK  Name = 
REMARK  11 active torsions:
REMARK  status: ('A' for Active; 'I' for Inactive)
REMARK    1  A    between atoms: O_2  and  C_3
REMARK    2  A    between atoms: C_3  and  C_4
REMARK    3  A    between atoms: N_6  and  C_7
REMARK    4  A    between atoms: C_11  and  C_13
REMARK    5  A    between atoms: N_15  and  C_16
REMARK    6  A    between atoms: C_16  and  C_17
REMARK    7  A    between atoms: C_16  and  C_27
REMARK    8  A    between atoms: C_17  and  C_18
REMARK    9  A    between atoms: C_27  and  O_29
REMARK   10  A    between atoms: C_31  and  C_33
REMARK   11  A    between atoms: C_33  and  O_34
REMARK                            x       y       z     vdW  Elec       q    Type
REMARK                         _______ _______ _______ _____ _____    ______ ____
ROOT
ATOM     13  C   UNL     1      -3.331  -1.435   0.000  0.00  0.00    +0.260 C 
ATOM     14  O   UNL     1      -2.919  -2.150   0.000  0.00  0.00    -0.272 OA
ATOM     15  N   UNL     1      -2.919  -0.721   0.000  0.00  0.00    -0.194 NA
ENDROOT
BRANCH  13  11
ATOM      7  C   UNL     1      -5.394  -2.150   0.000  0.00  0.00    +0.099 C 
ATOM      8  C   UNL     1      -5.806  -1.435   0.000  0.00  0.00    +0.043 C 
ATOM      9  C   UNL     1      -5.394  -0.721   0.000  0.00  0.00    +0.096 C 
ATOM     10  N   UNL     1      -4.569  -0.721   0.000  0.00  0.00    -0.271 N 
ATOM     11  C   UNL     1      -4.156  -1.435   0.000  0.00  0.00    +0.155 C 
ATOM     12  C   UNL     1      -4.569  -2.150   0.000  0.00  0.00    +0.051 C 
ATOM     31  C   UNL     1      -4.156  -0.006   0.000  0.00  0.00    +0.256 C 
ATOM     32  O   UNL     1      -3.331  -0.006   0.000  0.00  0.00    -0.272 OA
BRANCH   7   6
ATOM      4  C   UNL     1      -6.631  -2.864   0.000  0.00  0.00    +0.272 C 
ATOM      5  O   UNL     1      -7.044  -2.150   0.000  0.00  0.00    -0.271 OA
ATOM      6  N   UNL     1      -5.806  -2.864   0.000  0.00  0.00    -0.205 NA
BRANCH   4   3
ATOM      3  C   UNL     1      -7.044  -3.579   0.000  0.00  0.00    +0.229 C 
BRANCH   3   2
ATOM      1  C   UNL     1      -8.281  -4.293   0.000  0.00  0.00    +0.175 C 
ATOM      2  O   UNL     1      -7.869  -3.579   0.000  0.00  0.00    -0.342 OA
ENDBRANCH   3   2
ENDBRANCH   4   3
ENDBRANCH   7   6
BRANCH  31  33
ATOM     33  C   UNL     1      -4.569   0.708   0.000  0.00  0.00    +0.227 C 
BRANCH  33  34
ATOM     34  O   UNL     1      -5.394   0.708   0.000  0.00  0.00    -0.342 OA
ATOM     35  C   UNL     1      -5.806   1.423   0.000  0.00  0.00    +0.175 C 
ENDBRANCH  33  34
ENDBRANCH  31  33
ENDBRANCH  13  11
BRANCH  15  16
ATOM     16  C   UNL     1      -2.094  -0.721   0.000  0.00  0.00    +0.198 C 
BRANCH  16  27
ATOM     27  C   UNL     1      -1.681  -1.435   0.000  0.00  0.00    +0.337 C 
ATOM     28  O   UNL     1      -2.094  -2.150   0.000  0.00  0.00    -0.248 OA
BRANCH  27  29
ATOM     29  O   UNL     1      -0.856  -1.435   0.000  0.00  0.00    -0.443 OA
ATOM     30  C   UNL     1      -0.444  -2.150   0.000  0.00  0.00    +0.256 C 
ENDBRANCH  27  29
ENDBRANCH  16  27
BRANCH  16  17
ATOM     17  C   UNL     1      -1.681  -0.006   0.000  0.00  0.00    +0.061 C 
BRANCH  17  18
ATOM     18  C   UNL     1      -0.856  -0.006   0.000  0.00  0.00    +0.001 A 
ATOM     19  C   UNL     1      -0.371  -0.674   0.000  0.00  0.00    +0.095 A 
ATOM     20  N   UNL     1       0.413  -0.419   0.000  0.00  0.00    -0.244 NA
ATOM     21  C   UNL     1       0.413   0.406   0.000  0.00  0.00    +0.081 A 
ATOM     22  C   UNL     1      -0.371   0.661   0.000  0.00  0.00    +0.015 A 
ATOM     23  C   UNL     1      -0.543   1.468   0.000  0.00  0.00    +0.001 A 
ATOM     24  C   UNL     1       0.070   2.020   0.000  0.00  0.00    +0.000 A 
ATOM     25  C   UNL     1       0.855   1.765   0.000  0.00  0.00    +0.002 A 
ATOM     26  C   UNL     1       1.026   0.958   0.000  0.00  0.00    +0.019 A 
ENDBRANCH  17  18
ENDBRANCH  16  17
ENDBRANCH  15  16
TORSDOF 11
