REMARK  Name = 
REMARK  6 active torsions:
REMARK  status: ('A' for Active; 'I' for Inactive)
REMARK    1  A    between atoms: C_2  and  C_4
REMARK    2  A    between atoms: C_7  and  N_8
REMARK    3  A    between atoms: N_11  and  C_12
REMARK    4  A    between atoms: C_12  and  C_13
REMARK    5  A    between atoms: C_20  and  C_21
REMARK    6  A    between atoms: C_23  and  C_28
REMARK                            x       y       z     vdW  Elec       q    Type
REMARK                         _______ _______ _______ _____ _____    ______ ____
ROOT
ATOM     13  C   UNL     1       1.814  -2.106   0.000  0.00  0.00    +0.079 C 
ATOM     14  C   UNL     1       1.661  -1.343   0.000  0.00  0.00    +0.018 C 
ATOM     15  C   UNL     1       0.923  -1.010   0.000  0.00  0.00    +0.010 C 
ATOM     16  C   UNL     1       0.961  -0.114   0.000  0.00  0.00    +0.018 C 
ATOM     17  C   UNL     1       1.205  -0.720   0.000  0.00  0.00    +0.072 C 
ATOM     18  N   UNL     1       1.065  -1.759   0.000  0.00  0.00    -0.272 NA
ATOM     19  C   UNL     1       0.226  -2.118   0.000  0.00  0.00    +0.078 C 
ATOM     20  C   UNL     1       0.119  -1.362   0.000  0.00  0.00    +0.056 C 
ENDROOT
BRANCH  20  21
ATOM     21  C   UNL     1      -0.602  -0.960   0.000  0.00  0.00    +0.063 A 
ATOM     22  C   UNL     1      -1.310  -1.384   0.000  0.00  0.00    +0.037 A 
ATOM     23  C   UNL     1      -2.030  -0.982   0.000  0.00  0.00    +0.118 A 
ATOM     24  N   UNL     1      -2.043  -0.157   0.000  0.00  0.00    -0.228 NA
ATOM     25  C   UNL     1      -1.335   0.266   0.000  0.00  0.00    +0.139 A 
ATOM     26  C   UNL     1      -1.347   1.091   0.000  0.00  0.00    +0.074 C 
ATOM     27  N   UNL     1      -0.614  -0.136   0.000  0.00  0.00    -0.235 NA
BRANCH  23  28
ATOM     28  C   UNL     1      -2.739  -1.405   0.000  0.00  0.00    +0.163 A 
ATOM     29  C   UNL     1      -2.812  -2.227   0.000  0.00  0.00    +0.042 A 
ATOM     30  C   UNL     1      -3.617  -2.410   0.000  0.00  0.00    +0.044 A 
ATOM     31  C   UNL     1      -4.040  -1.702   0.000  0.00  0.00    +0.180 A 
ATOM     32  O   UNL     1      -3.497  -1.081   0.000  0.00  0.00    -0.449 OA
ENDBRANCH  23  28
ENDBRANCH  20  21
BRANCH  13  12
ATOM     12  C   UNL     1       2.324  -2.754   0.000  0.00  0.00    +0.133 C 
BRANCH  12  11
ATOM      8  N   UNL     1       2.223  -4.934   0.000  0.00  0.00    -0.161 NA
ATOM      9  C   UNL     1       2.529  -4.168   0.000  0.00  0.00    +0.344 C 
ATOM     10  O   UNL     1       3.345  -4.050   0.000  0.00  0.00    -0.249 OA
ATOM     11  N   UNL     1       2.018  -3.520   0.000  0.00  0.00    -0.185 NA
BRANCH   8   7
ATOM      4  C   UNL     1       3.754  -6.878   0.000  0.00  0.00    +0.035 A 
ATOM      5  C   UNL     1       2.938  -6.996   0.000  0.00  0.00    +0.004 A 
ATOM      6  C   UNL     1       2.427  -6.348   0.000  0.00  0.00    +0.017 A 
ATOM      7  C   UNL     1       2.733  -5.582   0.000  0.00  0.00    +0.075 A 
ATOM     33  C   UNL     1       3.550  -5.464   0.000  0.00  0.00    +0.017 A 
ATOM     34  C   UNL     1       4.060  -6.112   0.000  0.00  0.00    +0.004 A 
BRANCH   4   2
ATOM      1  C   UNL     1       5.081  -7.409   0.000  0.00  0.00    +0.077 C 
ATOM      2  C   UNL     1       4.264  -7.527   0.000  0.00  0.00    +0.173 C 
ATOM      3  O   UNL     1       3.958  -8.293   0.000  0.00  0.00    -0.291 OA
ENDBRANCH   4   2
ENDBRANCH   8   7
ENDBRANCH  12  11
ENDBRANCH  13  12
TORSDOF 6
