REMARK  Name = 
REMARK  3 active torsions:
REMARK  status: ('A' for Active; 'I' for Inactive)
REMARK    1  A    between atoms: C_4  and  C_6
REMARK    2  A    between atoms: C_8  and  C_11
REMARK    3  A    between atoms: C_15  and  N_17
REMARK                            x       y       z     vdW  Elec       q    Type
REMARK                         _______ _______ _______ _____ _____    ______ ____
ROOT
ATOM     11  C   UNL     1       2.760  -1.810   0.000  0.00  0.00    +0.043 A 
ATOM     12  C   UNL     1       1.940  -1.897   0.000  0.00  0.00    +0.024 A 
ATOM     13  C   UNL     1       1.455  -1.229   0.000  0.00  0.00    +0.100 A 
ATOM     14  N   UNL     1       1.790  -0.476   0.000  0.00  0.00    -0.229 NA
ATOM     15  C   UNL     1       2.611  -0.389   0.000  0.00  0.00    +0.132 A 
ATOM     16  C   UNL     1       3.096  -1.057   0.000  0.00  0.00    +0.037 A 
ENDROOT
BRANCH  15  17
ATOM     17  N   UNL     1       2.946   0.364   0.000  0.00  0.00    -0.288 N 
ATOM     18  C   UNL     1       2.462   1.032   0.000  0.00  0.00    +0.124 C 
ATOM     19  C   UNL     1       2.797   1.785   0.000  0.00  0.00    +0.164 C 
ATOM     20  O   UNL     1       3.618   1.872   0.000  0.00  0.00    -0.350 OA
ATOM     21  C   UNL     1       4.102   1.204   0.000  0.00  0.00    +0.164 C 
ATOM     22  C   UNL     1       3.767   0.451   0.000  0.00  0.00    +0.124 C 
ENDBRANCH  15  17
BRANCH  11   8
ATOM      6  C   UNL     1       3.658  -3.748   0.000  0.00  0.00    +0.252 A 
ATOM      7  N   UNL     1       2.990  -3.263   0.000  0.00  0.00    -0.190 NA
ATOM      8  C   UNL     1       3.245  -2.478   0.000  0.00  0.00    +0.203 A 
ATOM      9  N   UNL     1       4.070  -2.478   0.000  0.00  0.00    -0.056 NA
ATOM     10  O   UNL     1       4.325  -3.263   0.000  0.00  0.00    -0.336 OA
BRANCH   6   4
ATOM      1  C   UNL     1       4.070  -5.842   0.000  0.00  0.00    +0.021 C 
ATOM      2  C   UNL     1       3.245  -5.842   0.000  0.00  0.00    +0.089 C 
ATOM      3  N   UNL     1       2.990  -5.057   0.000  0.00  0.00    -0.210 NA
ATOM      4  C   UNL     1       3.658  -4.572   0.000  0.00  0.00    +0.151 C 
ATOM      5  C   UNL     1       4.325  -5.057   0.000  0.00  0.00    +0.028 C 
ENDBRANCH   6   4
ENDBRANCH  11   8
TORSDOF 3
