REMARK  Name = 
REMARK  3 active torsions:
REMARK  status: ('A' for Active; 'I' for Inactive)
REMARK    1  A    between atoms: C_2  and  C_3
REMARK    2  A    between atoms: C_3  and  C_4
REMARK    3  A    between atoms: C_17  and  N_25
REMARK                            x       y       z     vdW  Elec       q    Type
REMARK                         _______ _______ _______ _____ _____    ______ ____
ROOT
ATOM      4  C   UNL     1       5.423   0.862   0.000  0.00  0.00    +0.016 C 
ATOM      5  C   UNL     1       5.972   1.478   0.000  0.00  0.00    +0.022 C 
ATOM      6  C   UNL     1       5.712   2.261   0.000  0.00  0.00    +0.093 C 
ATOM      7  N   UNL     1       4.904   2.428   0.000  0.00  0.00    -0.278 N 
ATOM      8  C   UNL     1       4.356   1.811   0.000  0.00  0.00    +0.098 C 
ATOM      9  C   UNL     1       4.615   1.028   0.000  0.00  0.00    +0.042 C 
ATOM     10  C   UNL     1       4.067   0.412   0.000  0.00  0.00    -0.026 C 
ATOM     11  C   UNL     1       3.176   0.556   0.000  0.00  0.00    +0.016 C 
ATOM     12  C   UNL     1       2.464   0.139   0.000  0.00  0.00    +0.231 C 
ATOM     13  O   UNL     1       1.847   0.687   0.000  0.00  0.00    -0.471 OA
ATOM     14  C   UNL     1       2.179   1.443   0.000  0.00  0.00    +0.136 A 
ATOM     15  C   UNL     1       1.604   0.851   0.000  0.00  0.00    +0.038 A 
ATOM     16  C   UNL     1       0.804   1.053   0.000  0.00  0.00    +0.018 A 
ATOM     17  C   UNL     1       0.579   1.846   0.000  0.00  0.00    +0.048 A 
ATOM     18  C   UNL     1       1.153   2.438   0.000  0.00  0.00    +0.015 A 
ATOM     19  C   UNL     1       1.953   2.237   0.000  0.00  0.00    +0.030 A 
ATOM     20  C   UNL     1       2.480   2.928   0.000  0.00  0.00    +0.119 C 
ATOM     21  N   UNL     1       3.288   2.761   0.000  0.00  0.00    -0.204 NA
ATOM     22  C   UNL     1       3.837   3.378   0.000  0.00  0.00    +0.174 C 
ATOM     23  C   UNL     1       4.645   3.211   0.000  0.00  0.00    +0.243 C 
ATOM     24  O   UNL     1       5.193   3.827   0.000  0.00  0.00    -0.273 OA
ENDROOT
BRANCH  17  25
ATOM     25  N   UNL     1      -0.221   2.048   0.000  0.00  0.00    -0.303 N 
ATOM     26  C   UNL     1      -0.796   1.456   0.000  0.00  0.00    +0.123 C 
ATOM     27  C   UNL     1      -1.596   1.658   0.000  0.00  0.00    +0.164 C 
ATOM     28  O   UNL     1      -1.821   2.451   0.000  0.00  0.00    -0.350 OA
ATOM     29  C   UNL     1      -1.247   3.043   0.000  0.00  0.00    +0.164 C 
ATOM     30  C   UNL     1      -0.447   2.842   0.000  0.00  0.00    +0.123 C 
ENDBRANCH  17  25
BRANCH   4   3
ATOM      3  C   UNL     1       5.683   0.079   0.000  0.00  0.00    +0.086 C 
BRANCH   3   2
ATOM      1  O   UNL     1       7.039   0.528   0.000  0.00  0.00    -0.275 OA
ATOM      2  C   UNL     1       6.491  -0.088   0.000  0.00  0.00    +0.226 C 
ATOM     31  N   UNL     1       6.751  -0.871   0.000  0.00  0.00    -0.274 N 
ATOM     32  C   UNL     1       7.559  -1.038   0.000  0.00  0.00    +0.125 C 
ATOM     33  C   UNL     1       7.818  -1.821   0.000  0.00  0.00    +0.164 C 
ATOM     34  O   UNL     1       7.270  -2.438   0.000  0.00  0.00    -0.350 OA
ATOM     35  C   UNL     1       6.462  -2.271   0.000  0.00  0.00    +0.164 C 
ATOM     36  C   UNL     1       6.202  -1.488   0.000  0.00  0.00    +0.125 C 
ENDBRANCH   3   2
ENDBRANCH   4   3
TORSDOF 3
