REMARK  Name = 
REMARK  3 active torsions:
REMARK  status: ('A' for Active; 'I' for Inactive)
REMARK    1  A    between atoms: N_3  and  C_4
REMARK    2  A    between atoms: N_17  and  C_18
REMARK    3  A    between atoms: C_18  and  C_19
REMARK                            x       y       z     vdW  Elec       q    Type
REMARK                         _______ _______ _______ _____ _____    ______ ____
ROOT
ATOM      1  O   UNL     1      -0.223  -2.769   0.000  0.00  0.00    -0.251 OA
ATOM      2  C   UNL     1      -0.223  -1.944   0.000  0.00  0.00    +0.323 C 
ATOM      3  N   UNL     1      -0.937  -1.532   0.000  0.00  0.00    -0.190 NA
ATOM     10  N   UNL     1       0.492  -1.532   0.000  0.00  0.00    -0.263 N 
ATOM     11  C   UNL     1       0.492  -0.707   0.000  0.00  0.00    +0.095 C 
ATOM     12  C   UNL     1       1.206  -0.294   0.000  0.00  0.00    +0.022 C 
ATOM     13  C   UNL     1       1.921  -0.707   0.000  0.00  0.00    +0.012 C 
ATOM     14  C   UNL     1       2.566  -0.192   0.000  0.00  0.00    +0.085 C 
ATOM     15  C   UNL     1       3.370  -0.376   0.000  0.00  0.00    +0.226 C 
ATOM     16  O   UNL     1       3.884   0.269   0.000  0.00  0.00    -0.275 OA
ATOM     17  N   UNL     1       3.728  -1.119   0.000  0.00  0.00    -0.275 N 
ATOM     28  C   UNL     1       3.370  -1.862   0.000  0.00  0.00    +0.094 C 
ATOM     29  C   UNL     1       2.566  -2.046   0.000  0.00  0.00    +0.023 C 
ATOM     30  C   UNL     1       1.921  -1.532   0.000  0.00  0.00    +0.022 C 
ATOM     31  C   UNL     1       1.206  -1.944   0.000  0.00  0.00    +0.095 C 
ENDROOT
BRANCH   3   4
ATOM      4  C   UNL     1      -1.652  -1.944   0.000  0.00  0.00    +0.097 C 
ATOM      5  C   UNL     1      -1.652  -2.769   0.000  0.00  0.00    +0.022 C 
ATOM      6  C   UNL     1      -2.366  -3.182   0.000  0.00  0.00    +0.002 C 
ATOM      7  C   UNL     1      -3.081  -2.769   0.000  0.00  0.00    +0.000 C 
ATOM      8  C   UNL     1      -3.081  -1.944   0.000  0.00  0.00    +0.002 C 
ATOM      9  C   UNL     1      -2.366  -1.532   0.000  0.00  0.00    +0.022 C 
ENDBRANCH   3   4
BRANCH  17  18
ATOM     18  C   UNL     1       4.553  -1.119   0.000  0.00  0.00    +0.120 C 
BRANCH  18  19
ATOM     19  C   UNL     1       4.965  -1.834   0.000  0.00  0.00    +0.001 A 
ATOM     20  C   UNL     1       5.790  -1.834   0.000  0.00  0.00    +0.001 A 
ATOM     21  C   UNL     1       6.203  -2.548   0.000  0.00  0.00    +0.040 A 
ATOM     22  C   UNL     1       5.790  -3.263   0.000  0.00  0.00    +0.176 A 
ATOM     23  O   UNL     1       6.045  -4.047   0.000  0.00  0.00    -0.435 OA
ATOM     24  C   UNL     1       5.378  -4.532   0.000  0.00  0.00    +0.429 C 
ATOM     25  O   UNL     1       4.710  -4.047   0.000  0.00  0.00    -0.435 OA
ATOM     26  C   UNL     1       4.965  -3.263   0.000  0.00  0.00    +0.176 A 
ATOM     27  C   UNL     1       4.553  -2.548   0.000  0.00  0.00    +0.038 A 
ENDBRANCH  18  19
ENDBRANCH  17  18
TORSDOF 3
