REMARK  Name = 
REMARK  4 active torsions:
REMARK  status: ('A' for Active; 'I' for Inactive)
REMARK    1  A    between atoms: O_2  and  C_3
REMARK    2  A    between atoms: C_6  and  N_7
REMARK    3  A    between atoms: C_19  and  N_20
REMARK    4  A    between atoms: C_21  and  C_23
REMARK                            x       y       z     vdW  Elec       q    Type
REMARK                         _______ _______ _______ _____ _____    ______ ____
ROOT
ATOM      7  N   UNL     1      -0.614  -2.179   0.000  0.00  0.00    -0.162 NA
ATOM      8  C   UNL     1       0.125  -2.547   0.000  0.00  0.00    +0.327 C 
ATOM      9  O   UNL     1       0.176  -3.370   0.000  0.00  0.00    -0.250 OA
ATOM     10  N   UNL     1       0.813  -2.091   0.000  0.00  0.00    -0.262 N 
ATOM     11  C   UNL     1       1.629  -1.912   0.000  0.00  0.00    +0.097 C 
ATOM     12  C   UNL     1       1.582  -0.925   0.000  0.00  0.00    +0.043 C 
ATOM     13  C   UNL     1       1.713  -0.121   0.000  0.00  0.00    +0.011 C 
ATOM     14  C   UNL     1       1.163  -0.557   0.000  0.00  0.00    +0.058 C 
ATOM     15  C   UNL     1       1.225  -1.510   0.000  0.00  0.00    +0.101 C 
ATOM     16  C   UNL     1       0.244  -0.558   0.000  0.00  0.00    +0.041 A 
ATOM     17  C   UNL     1      -0.397  -0.039   0.000  0.00  0.00    +0.014 A 
ATOM     18  C   UNL     1      -1.167  -0.335   0.000  0.00  0.00    +0.023 A 
ATOM     19  C   UNL     1      -1.296  -1.150   0.000  0.00  0.00    +0.130 A 
ATOM     30  C   UNL     1      -0.655  -1.669   0.000  0.00  0.00    +0.276 A 
ATOM     31  O   UNL     1      -1.238  -2.252   0.000  0.00  0.00    -0.266 OA
ATOM     32  N   UNL     1       0.115  -1.373   0.000  0.00  0.00    -0.298 N 
ATOM     33  C   UNL     1       0.622  -0.936   0.000  0.00  0.00    +0.110 C 
ENDROOT
BRANCH   7   6
ATOM      3  C   UNL     1      -2.677  -3.546   0.000  0.00  0.00    +0.139 A 
ATOM      4  C   UNL     1      -2.728  -2.723   0.000  0.00  0.00    +0.038 A 
ATOM      5  C   UNL     1      -2.040  -2.267   0.000  0.00  0.00    +0.020 A 
ATOM      6  C   UNL     1      -1.301  -2.635   0.000  0.00  0.00    +0.075 A 
ATOM     34  C   UNL     1      -1.251  -3.458   0.000  0.00  0.00    +0.020 A 
ATOM     35  C   UNL     1      -1.938  -3.914   0.000  0.00  0.00    +0.038 A 
BRANCH   3   2
ATOM      1  C   UNL     1      -3.314  -4.825   0.000  0.00  0.00    +0.252 C 
ATOM      2  O   UNL     1      -3.365  -4.002   0.000  0.00  0.00    -0.471 OA
ENDBRANCH   3   2
ENDBRANCH   7   6
BRANCH  19  20
ATOM     20  N   UNL     1      -2.066  -1.445   0.000  0.00  0.00    -0.171 NA
ATOM     21  C   UNL     1      -2.707  -0.926   0.000  0.00  0.00    +0.269 C 
ATOM     22  O   UNL     1      -2.578  -0.111   0.000  0.00  0.00    -0.268 OA
BRANCH  21  23
ATOM     23  C   UNL     1      -3.478  -1.222   0.000  0.00  0.00    +0.056 A 
ATOM     24  C   UNL     1      -3.606  -2.037   0.000  0.00  0.00    +0.007 A 
ATOM     25  C   UNL     1      -4.377  -2.333   0.000  0.00  0.00    +0.030 A 
ATOM     26  C   UNL     1      -5.018  -1.813   0.000  0.00  0.00    +0.140 A 
ATOM     27  F   UNL     1      -5.788  -2.109   0.000  0.00  0.00    -0.204 F 
ATOM     28  C   UNL     1      -4.889  -0.999   0.000  0.00  0.00    +0.030 A 
ATOM     29  C   UNL     1      -4.119  -0.703   0.000  0.00  0.00    +0.007 A 
ENDBRANCH  21  23
ENDBRANCH  19  20
TORSDOF 4
