REMARK  Name = 
REMARK  5 active torsions:
REMARK  status: ('A' for Active; 'I' for Inactive)
REMARK    1  A    between atoms: C_1  and  C_2
REMARK    2  A    between atoms: C_1  and  N_8
REMARK    3  A    between atoms: C_12  and  C_13
REMARK    4  A    between atoms: C_15  and  C_18
REMARK    5  A    between atoms: C_21  and  C_24
REMARK                            x       y       z     vdW  Elec       q    Type
REMARK                         _______ _______ _______ _____ _____    ______ ____
ROOT
ATOM     13  C   UNL     1      -2.047  -5.745   0.000  0.00  0.00    +0.251 A 
ATOM     14  N   UNL     1      -2.715  -6.230   0.000  0.00  0.00    -0.190 NA
ATOM     15  C   UNL     1      -3.382  -5.745   0.000  0.00  0.00    +0.205 A 
ATOM     16  N   UNL     1      -3.127  -4.961   0.000  0.00  0.00    -0.056 NA
ATOM     17  O   UNL     1      -2.303  -4.961   0.000  0.00  0.00    -0.336 OA
ENDROOT
BRANCH  15  18
ATOM     18  C   UNL     1      -4.167  -6.000   0.000  0.00  0.00    +0.058 A 
ATOM     19  C   UNL     1      -4.338  -6.807   0.000  0.00  0.00    +0.006 A 
ATOM     20  C   UNL     1      -5.123  -7.062   0.000  0.00  0.00    +0.019 A 
ATOM     21  C   UNL     1      -5.736  -6.510   0.000  0.00  0.00    +0.084 A 
ATOM     22  N   UNL     1      -5.565  -5.703   0.000  0.00  0.00    -0.244 NA
ATOM     23  C   UNL     1      -4.780  -5.448   0.000  0.00  0.00    +0.102 A 
BRANCH  21  24
ATOM     24  C   UNL     1      -6.521  -6.765   0.000  0.00  0.00    +0.056 A 
ATOM     25  C   UNL     1      -6.692  -7.572   0.000  0.00  0.00    +0.104 A 
ATOM     26  N   UNL     1      -7.477  -7.827   0.000  0.00  0.00    -0.222 NA
ATOM     27  C   UNL     1      -8.090  -7.275   0.000  0.00  0.00    +0.199 A 
ATOM     28  N   UNL     1      -7.919  -6.468   0.000  0.00  0.00    -0.222 NA
ATOM     29  C   UNL     1      -7.134  -6.213   0.000  0.00  0.00    +0.104 A 
ENDBRANCH  21  24
ENDBRANCH  15  18
BRANCH  13  12
ATOM      8  N   UNL     1      -0.596  -5.516   0.000  0.00  0.00    -0.266 NA
ATOM      9  C   UNL     1       0.072  -6.000   0.000  0.00  0.00    +0.073 C 
ATOM     10  C   UNL     1      -0.183  -6.785   0.000  0.00  0.00    +0.019 C 
ATOM     11  C   UNL     1      -1.008  -6.785   0.000  0.00  0.00    +0.027 C 
ATOM     12  C   UNL     1      -1.263  -6.000   0.000  0.00  0.00    +0.138 C 
BRANCH   8   1
ATOM      1  C   UNL     1      -0.596  -4.691   0.000  0.00  0.00    +0.072 C 
BRANCH   1   2
ATOM      2  C   UNL     1       0.119  -4.278   0.000  0.00  0.00    +0.016 C 
ATOM      3  C   UNL     1       0.119  -3.453   0.000  0.00  0.00    +0.001 C 
ATOM      4  C   UNL     1       0.834  -3.041   0.000  0.00  0.00    +0.000 C 
ATOM      5  C   UNL     1       1.548  -3.453   0.000  0.00  0.00    +0.000 C 
ATOM      6  C   UNL     1       1.548  -4.278   0.000  0.00  0.00    +0.000 C 
ATOM      7  C   UNL     1       0.834  -4.691   0.000  0.00  0.00    +0.001 C 
ENDBRANCH   1   2
ENDBRANCH   8   1
ENDBRANCH  13  12
TORSDOF 5
