REMARK  Name = 
REMARK  6 active torsions:
REMARK  status: ('A' for Active; 'I' for Inactive)
REMARK    1  A    between atoms: C_4  and  C_5
REMARK    2  A    between atoms: C_5  and  C_6
REMARK    3  A    between atoms: C_9  and  C_10
REMARK    4  A    between atoms: C_14  and  N_15
REMARK    5  A    between atoms: N_15  and  S_16
REMARK    6  A    between atoms: S_16  and  C_19
REMARK                            x       y       z     vdW  Elec       q    Type
REMARK                         _______ _______ _______ _____ _____    ______ ____
ROOT
ATOM      1  C   UNL     1       2.518  -1.600   0.000  0.00  0.00    +0.001 C 
ATOM      2  C   UNL     1       1.934  -2.183   0.000  0.00  0.00    +0.017 C 
ATOM      3  C   UNL     1       1.351  -1.600   0.000  0.00  0.00    +0.001 C 
ATOM      4  C   UNL     1       2.518  -2.767   0.000  0.00  0.00    +0.009 C 
ATOM     13  C   UNL     1       1.934  -3.350   0.000  0.00  0.00    +0.020 C 
ATOM     14  C   UNL     1       1.351  -2.767   0.000  0.00  0.00    +0.098 C 
ENDROOT
BRANCH   4   5
ATOM      5  C   UNL     1       3.342  -2.767   0.000  0.00  0.00    +0.049 C 
BRANCH   5   6
ATOM      6  C   UNL     1       3.755  -3.481   0.000  0.00  0.00    +0.100 A 
ATOM      7  N   UNL     1       4.575  -3.567   0.000  0.00  0.00    -0.082 NA
ATOM      8  O   UNL     1       4.747  -4.374   0.000  0.00  0.00    -0.355 OA
ATOM      9  C   UNL     1       4.032  -4.787   0.000  0.00  0.00    +0.187 A 
ATOM     12  C   UNL     1       3.420  -4.235   0.000  0.00  0.00    +0.056 A 
BRANCH   9  10
ATOM     10  C   UNL     1       3.946  -5.607   0.000  0.00  0.00    +0.249 C 
ATOM     11  O   UNL     1       4.614  -6.092   0.000  0.00  0.00    -0.212 OA
ENDBRANCH   9  10
ENDBRANCH   5   6
ENDBRANCH   4   5
BRANCH  14  15
ATOM     15  N   UNL     1       0.526  -2.767   0.000  0.00  0.00    -0.079 NA
BRANCH  15  16
ATOM     16  S   UNL     1       0.113  -2.052   0.000  0.00  0.00    +0.077 S 
ATOM     17  O   UNL     1       0.828  -1.640   0.000  0.00  0.00    -0.152 OA
ATOM     18  O   UNL     1      -0.601  -2.465   0.000  0.00  0.00    -0.152 OA
BRANCH  16  19
ATOM     19  C   UNL     1      -0.299  -1.338   0.000  0.00  0.00    +0.124 A 
ATOM     20  C   UNL     1      -1.124  -1.338   0.000  0.00  0.00    +0.020 A 
ATOM     21  C   UNL     1      -1.537  -0.623   0.000  0.00  0.00    +0.001 A 
ATOM     22  C   UNL     1      -1.124   0.091   0.000  0.00  0.00    +0.000 A 
ATOM     23  C   UNL     1      -0.299   0.091   0.000  0.00  0.00    +0.001 A 
ATOM     24  C   UNL     1       0.113  -0.623   0.000  0.00  0.00    +0.020 A 
ENDBRANCH  16  19
ENDBRANCH  15  16
ENDBRANCH  14  15
TORSDOF 6
