REMARK  Name = 
REMARK  7 active torsions:
REMARK  status: ('A' for Active; 'I' for Inactive)
REMARK    1  A    between atoms: C_2  and  N_3
REMARK    2  A    between atoms: N_3  and  C_4
REMARK    3  A    between atoms: N_3  and  C_6
REMARK    4  A    between atoms: C_6  and  C_7
REMARK    5  A    between atoms: C_7  and  C_8
REMARK    6  A    between atoms: C_11  and  C_12
REMARK    7  A    between atoms: C_12  and  C_13
REMARK                            x       y       z     vdW  Elec       q    Type
REMARK                         _______ _______ _______ _____ _____    ______ ____
ROOT
ATOM      7  C   UNL     1      -0.678  -0.516   0.000  0.00  0.00    +0.069 C 
ENDROOT
BRANCH   7   8
ATOM      8  C   UNL     1      -1.475  -0.730   0.000  0.00  0.00    +0.102 A 
ATOM      9  N   UNL     1      -1.771  -1.500   0.000  0.00  0.00    -0.082 NA
ATOM     10  O   UNL     1      -2.595  -1.457   0.000  0.00  0.00    -0.358 OA
ATOM     11  C   UNL     1      -2.808  -0.660   0.000  0.00  0.00    +0.154 A 
ATOM     16  C   UNL     1      -2.116  -0.211   0.000  0.00  0.00    +0.054 A 
BRANCH  11  12
ATOM     12  C   UNL     1      -3.579  -0.364   0.000  0.00  0.00    +0.067 C 
BRANCH  12  13
ATOM     13  C   UNL     1      -4.220  -0.884   0.000  0.00  0.00    +0.008 C 
ATOM     14  C   UNL     1      -4.091  -1.698   0.000  0.00  0.00    +0.000 C 
ATOM     15  C   UNL     1      -4.990  -0.588   0.000  0.00  0.00    +0.000 C 
ENDBRANCH  12  13
ENDBRANCH  11  12
ENDBRANCH   7   8
BRANCH   7   6
ATOM      6  C   UNL     1      -0.095  -1.100   0.000  0.00  0.00    +0.106 C 
ATOM     17  C   UNL     1       0.488  -1.683   0.000  0.00  0.00    +0.160 C 
ATOM     18  O   UNL     1      -0.095  -2.267   0.000  0.00  0.00    -0.351 OA
ATOM     19  C   UNL     1      -0.678  -1.683   0.000  0.00  0.00    +0.160 C 
BRANCH   6   3
ATOM      3  N   UNL     1       0.488  -0.516   0.000  0.00  0.00    -0.271 NA
BRANCH   3   2
ATOM      1  C   UNL     1       0.858   0.864   0.000  0.00  0.00    +0.019 C 
ATOM      2  C   UNL     1       0.275   0.280   0.000  0.00  0.00    +0.072 C 
ENDBRANCH   3   2
BRANCH   3   4
ATOM      4  C   UNL     1       1.285  -0.730   0.000  0.00  0.00    +0.072 C 
ATOM      5  C   UNL     1       1.499  -1.527   0.000  0.00  0.00    +0.019 C 
ENDBRANCH   3   4
ENDBRANCH   6   3
ENDBRANCH   7   6
TORSDOF 7
