REMARK  Name = 
REMARK  5 active torsions:
REMARK  status: ('A' for Active; 'I' for Inactive)
REMARK    1  A    between atoms: C_2  and  C_5
REMARK    2  A    between atoms: C_7  and  C_8
REMARK    3  A    between atoms: C_8  and  C_9
REMARK    4  A    between atoms: C_11  and  N_12
REMARK    5  A    between atoms: N_12  and  C_13
REMARK                            x       y       z     vdW  Elec       q    Type
REMARK                         _______ _______ _______ _____ _____    ______ ____
ROOT
ATOM      9  C   UNL     1       2.518  -1.942   0.000  0.00  0.00    +0.009 C 
ATOM     10  C   UNL     1       1.934  -2.525   0.000  0.00  0.00    +0.018 C 
ATOM     11  C   UNL     1       1.351  -1.942   0.000  0.00  0.00    +0.073 C 
ATOM     19  C   UNL     1       1.934  -1.358   0.000  0.00  0.00    +0.015 C 
ATOM     20  C   UNL     1       1.503  -0.655   0.000  0.00  0.00    +0.001 C 
ATOM     21  C   UNL     1       2.365  -0.655   0.000  0.00  0.00    +0.001 C 
ENDROOT
BRANCH   9   8
ATOM      8  C   UNL     1       3.342  -1.942   0.000  0.00  0.00    +0.049 C 
BRANCH   8   7
ATOM      5  C   UNL     1       4.747  -0.334   0.000  0.00  0.00    +0.153 A 
ATOM      6  C   UNL     1       4.575  -1.141   0.000  0.00  0.00    +0.054 A 
ATOM      7  C   UNL     1       3.755  -1.227   0.000  0.00  0.00    +0.100 A 
ATOM     22  N   UNL     1       3.420  -0.473   0.000  0.00  0.00    -0.082 NA
ATOM     23  O   UNL     1       4.032   0.079   0.000  0.00  0.00    -0.358 OA
BRANCH   5   2
ATOM      1  C   UNL     1       6.254   0.337   0.000  0.00  0.00    +0.008 C 
ATOM      2  C   UNL     1       5.501   0.002   0.000  0.00  0.00    +0.054 C 
ATOM      3  C   UNL     1       5.165   0.755   0.000  0.00  0.00    +0.008 C 
ATOM      4  C   UNL     1       5.836  -0.752   0.000  0.00  0.00    +0.008 C 
ENDBRANCH   5   2
ENDBRANCH   8   7
ENDBRANCH   9   8
BRANCH  11  12
ATOM     12  N   UNL     1       0.526  -1.942   0.000  0.00  0.00    -0.221 NA
BRANCH  12  13
ATOM     13  C   UNL     1       0.113  -1.227   0.000  0.00  0.00    +0.078 C 
ATOM     14  C   UNL     1      -0.712  -1.227   0.000  0.00  0.00    +0.050 C 
ATOM     15  C   UNL     1      -1.124  -0.513   0.000  0.00  0.00    +0.144 C 
ATOM     16  O   UNL     1      -0.712   0.202   0.000  0.00  0.00    -0.354 OA
ATOM     17  C   UNL     1       0.113   0.202   0.000  0.00  0.00    +0.144 C 
ATOM     18  C   UNL     1       0.526  -0.513   0.000  0.00  0.00    +0.050 C 
ENDBRANCH  12  13
ENDBRANCH  11  12
TORSDOF 5
