REMARK  Name = 
REMARK  5 active torsions:
REMARK  status: ('A' for Active; 'I' for Inactive)
REMARK    1  A    between atoms: N_7  and  C_10
REMARK    2  A    between atoms: C_12  and  C_16
REMARK    3  A    between atoms: C_19  and  C_21
REMARK    4  A    between atoms: N_25  and  C_26
REMARK    5  A    between atoms: C_26  and  C_27
REMARK                            x       y       z     vdW  Elec       q    Type
REMARK                         _______ _______ _______ _____ _____    ______ ____
ROOT
ATOM     16  C   UNL     1      -1.322   2.290   0.000  0.00  0.00    +0.203 A 
ATOM     17  N   UNL     1      -0.655   1.805   0.000  0.00  0.00    -0.056 NA
ATOM     18  O   UNL     1      -0.910   1.021   0.000  0.00  0.00    -0.336 OA
ATOM     19  C   UNL     1      -1.735   1.021   0.000  0.00  0.00    +0.251 A 
ATOM     20  N   UNL     1      -1.990   1.805   0.000  0.00  0.00    -0.190 NA
ENDROOT
BRANCH  16  12
ATOM     10  C   UNL     1      -0.608   4.353   0.000  0.00  0.00    +0.132 A 
ATOM     11  C   UNL     1      -0.608   3.528   0.000  0.00  0.00    +0.037 A 
ATOM     12  C   UNL     1      -1.322   3.115   0.000  0.00  0.00    +0.043 A 
ATOM     13  C   UNL     1      -2.037   3.528   0.000  0.00  0.00    +0.024 A 
ATOM     14  C   UNL     1      -2.037   4.353   0.000  0.00  0.00    +0.100 A 
ATOM     15  N   UNL     1      -1.322   4.765   0.000  0.00  0.00    -0.229 NA
BRANCH  10   7
ATOM      1  C   UNL     1       2.250   6.828   0.000  0.00  0.00    +0.095 C 
ATOM      2  C   UNL     1       2.250   6.003   0.000  0.00  0.00    +0.226 C 
ATOM      3  O   UNL     1       2.965   5.590   0.000  0.00  0.00    -0.275 OA
ATOM      4  N   UNL     1       1.536   5.590   0.000  0.00  0.00    -0.276 N 
ATOM      5  C   UNL     1       1.536   4.765   0.000  0.00  0.00    +0.115 C 
ATOM      6  C   UNL     1       0.821   4.353   0.000  0.00  0.00    +0.114 C 
ATOM      7  N   UNL     1       0.107   4.765   0.000  0.00  0.00    -0.290 N 
ATOM      8  C   UNL     1       0.107   5.590   0.000  0.00  0.00    +0.114 C 
ATOM      9  C   UNL     1       0.821   6.003   0.000  0.00  0.00    +0.115 C 
ENDBRANCH  10   7
ENDBRANCH  16  12
BRANCH  19  21
ATOM     21  C   UNL     1      -2.220   0.353   0.000  0.00  0.00    +0.138 C 
ATOM     22  C   UNL     1      -1.965  -0.431   0.000  0.00  0.00    +0.027 C 
ATOM     23  C   UNL     1      -2.632  -0.916   0.000  0.00  0.00    +0.019 C 
ATOM     24  C   UNL     1      -3.300  -0.431   0.000  0.00  0.00    +0.073 C 
ATOM     25  N   UNL     1      -3.045   0.353   0.000  0.00  0.00    -0.260 NA
BRANCH  25  26
ATOM     26  C   UNL     1      -3.530   1.021   0.000  0.00  0.00    +0.139 C 
BRANCH  26  27
ATOM     27  C   UNL     1      -3.194   1.774   0.000  0.00  0.00    +0.155 A 
ATOM     28  N   UNL     1      -3.607   2.489   0.000  0.00  0.00    -0.226 NA
ATOM     29  C   UNL     1      -3.054   3.102   0.000  0.00  0.00    +0.121 A 
ATOM     30  C   UNL     1      -2.301   2.766   0.000  0.00  0.00    +0.121 A 
ATOM     31  N   UNL     1      -2.387   1.946   0.000  0.00  0.00    -0.226 NA
ENDBRANCH  26  27
ENDBRANCH  25  26
ENDBRANCH  19  21
TORSDOF 5
