REMARK  Name = 
REMARK  6 active torsions:
REMARK  status: ('A' for Active; 'I' for Inactive)
REMARK    1  A    between atoms: S_2  and  N_5
REMARK    2  A    between atoms: N_5  and  C_6
REMARK    3  A    between atoms: C_6  and  C_7
REMARK    4  A    between atoms: C_10  and  N_11
REMARK    5  A    between atoms: N_11  and  C_12
REMARK    6  A    between atoms: C_12  and  C_13
REMARK                            x       y       z     vdW  Elec       q    Type
REMARK                         _______ _______ _______ _____ _____    ______ ____
ROOT
ATOM      7  C   UNL     1       1.429  -2.475   0.000  0.00  0.00    +0.166 C 
ATOM      8  O   UNL     1       2.096  -2.960   0.000  0.00  0.00    -0.350 OA
ATOM      9  C   UNL     1       1.841  -3.744   0.000  0.00  0.00    +0.162 C 
ATOM     10  C   UNL     1       1.016  -3.744   0.000  0.00  0.00    +0.135 C 
ATOM     19  C   UNL     1       0.761  -2.960   0.000  0.00  0.00    +0.199 C 
ATOM     20  O   UNL     1      -0.023  -2.705   0.000  0.00  0.00    -0.219 OA
ENDROOT
BRANCH   7   6
ATOM      6  C   UNL     1       1.429  -1.650   0.000  0.00  0.00    +0.147 C 
BRANCH   6   5
ATOM      5  N   UNL     1       2.143  -1.238   0.000  0.00  0.00    -0.079 NA
BRANCH   5   2
ATOM      1  C   UNL     1       2.143   0.412   0.000  0.00  0.00    +0.197 C 
ATOM      2  S   UNL     1       2.143  -0.412   0.000  0.00  0.00    +0.059 S 
ATOM      3  O   UNL     1       1.318  -0.412   0.000  0.00  0.00    -0.156 OA
ATOM      4  O   UNL     1       2.968  -0.412   0.000  0.00  0.00    -0.156 OA
ENDBRANCH   5   2
ENDBRANCH   6   5
ENDBRANCH   7   6
BRANCH  10  11
ATOM     11  N   UNL     1       0.531  -4.412   0.000  0.00  0.00    -0.208 NA
BRANCH  11  12
ATOM     12  C   UNL     1       0.867  -5.166   0.000  0.00  0.00    +0.134 C 
BRANCH  12  13
ATOM     13  C   UNL     1       0.382  -5.833   0.000  0.00  0.00    +0.077 A 
ATOM     14  N   UNL     1       0.718  -6.587   0.000  0.00  0.00    -0.247 NA
ATOM     15  C   UNL     1       0.233  -7.254   0.000  0.00  0.00    +0.098 A 
ATOM     16  C   UNL     1      -0.588  -7.168   0.000  0.00  0.00    +0.021 A 
ATOM     17  C   UNL     1      -0.923  -6.414   0.000  0.00  0.00    +0.003 A 
ATOM     18  C   UNL     1      -0.438  -5.747   0.000  0.00  0.00    +0.016 A 
ENDBRANCH  12  13
ENDBRANCH  11  12
ENDBRANCH  10  11
TORSDOF 6
