REMARK  Name = 
REMARK  3 active torsions:
REMARK  status: ('A' for Active; 'I' for Inactive)
REMARK    1  A    between atoms: O_2  and  C_3
REMARK    2  A    between atoms: N_8  and  C_9
REMARK    3  A    between atoms: C_9  and  C_10
REMARK                            x       y       z     vdW  Elec       q    Type
REMARK                         _______ _______ _______ _____ _____    ______ ____
ROOT
ATOM      9  C   UNL     1      -1.429  -1.650   0.000  0.00  0.00    +0.101 C 
ENDROOT
BRANCH   9  10
ATOM     10  C   UNL     1      -0.715  -1.238   0.000  0.00  0.00    +0.013 A 
ATOM     11  C   UNL     1       0.000  -1.650   0.000  0.00  0.00    +0.000 A 
ATOM     12  C   UNL     1       0.715  -1.238   0.000  0.00  0.00    +0.017 A 
ATOM     13  C   UNL     1       0.715  -0.412   0.000  0.00  0.00    +0.081 A 
ATOM     14  C   UNL     1       1.429   0.000   0.000  0.00  0.00    +0.019 A 
ATOM     15  C   UNL     1       2.143  -0.412   0.000  0.00  0.00    +0.002 A 
ATOM     16  C   UNL     1       2.143  -1.238   0.000  0.00  0.00    +0.000 A 
ATOM     17  C   UNL     1       1.429  -1.650   0.000  0.00  0.00    +0.001 A 
ATOM     18  N   UNL     1       0.000   0.000   0.000  0.00  0.00    -0.244 NA
ATOM     19  C   UNL     1      -0.715  -0.412   0.000  0.00  0.00    +0.096 A 
ENDBRANCH   9  10
BRANCH   9   8
ATOM      3  C   UNL     1      -3.613  -1.459   0.000  0.00  0.00    +0.161 C 
ATOM      4  C   UNL     1      -3.915  -0.691   0.000  0.00  0.00    +0.173 C 
ATOM      5  O   UNL     1      -3.502   0.023   0.000  0.00  0.00    -0.350 OA
ATOM      6  C   UNL     1      -2.687   0.146   0.000  0.00  0.00    +0.160 C 
ATOM      7  C   UNL     1      -2.082  -0.415   0.000  0.00  0.00    +0.105 C 
ATOM      8  N   UNL     1      -2.143  -1.238   0.000  0.00  0.00    -0.265 NA
ATOM     20  C   UNL     1      -2.825  -1.702   0.000  0.00  0.00    +0.105 C 
BRANCH   3   2
ATOM      1  C   UNL     1      -4.979  -1.880   0.000  0.00  0.00    +0.174 C 
ATOM      2  O   UNL     1      -4.175  -2.064   0.000  0.00  0.00    -0.350 OA
ENDBRANCH   3   2
ENDBRANCH   9   8
TORSDOF 3
