REMARK  Name = 
REMARK  4 active torsions:
REMARK  status: ('A' for Active; 'I' for Inactive)
REMARK    1  A    between atoms: C_2  and  N_4
REMARK    2  A    between atoms: N_4  and  C_5
REMARK    3  A    between atoms: C_8  and  C_9
REMARK    4  A    between atoms: C_9  and  N_10
REMARK                            x       y       z     vdW  Elec       q    Type
REMARK                         _______ _______ _______ _____ _____    ______ ____
ROOT
ATOM      5  C   UNL     1       0.568   1.114   0.000  0.00  0.00    +0.135 C 
ATOM      6  C   UNL     1       1.235   0.629   0.000  0.00  0.00    +0.162 C 
ATOM      7  O   UNL     1       0.980  -0.155   0.000  0.00  0.00    -0.350 OA
ATOM      8  C   UNL     1       0.155  -0.155   0.000  0.00  0.00    +0.169 C 
ATOM     14  C   UNL     1      -0.100   0.629   0.000  0.00  0.00    +0.199 C 
ATOM     15  O   UNL     1      -0.884   0.884   0.000  0.00  0.00    -0.219 OA
ENDROOT
BRANCH   5   4
ATOM      4  N   UNL     1       0.568   1.939   0.000  0.00  0.00    -0.216 NA
BRANCH   4   2
ATOM      1  C   UNL     1       1.282   3.177   0.000  0.00  0.00    +0.019 C 
ATOM      2  C   UNL     1       1.282   2.352   0.000  0.00  0.00    +0.073 C 
ATOM      3  C   UNL     1       1.997   1.939   0.000  0.00  0.00    +0.019 C 
ENDBRANCH   4   2
ENDBRANCH   5   4
BRANCH   8   9
ATOM      9  C   UNL     1      -0.330  -0.823   0.000  0.00  0.00    +0.147 C 
BRANCH   9  10
ATOM     10  N   UNL     1       0.006  -1.576   0.000  0.00  0.00    -0.203 NA
ATOM     11  C   UNL     1      -0.479  -2.244   0.000  0.00  0.00    +0.242 C 
ATOM     12  C   UNL     1      -0.143  -2.998   0.000  0.00  0.00    +0.096 C 
ATOM     13  O   UNL     1      -1.300  -2.158   0.000  0.00  0.00    -0.273 OA
ENDBRANCH   9  10
ENDBRANCH   8   9
TORSDOF 4
