REMARK  Name = 
REMARK  4 active torsions:
REMARK  status: ('A' for Active; 'I' for Inactive)
REMARK    1  A    between atoms: O_2  and  C_3
REMARK    2  A    between atoms: C_5  and  C_9
REMARK    3  A    between atoms: C_16  and  O_18
REMARK    4  A    between atoms: O_18  and  C_19
REMARK                            x       y       z     vdW  Elec       q    Type
REMARK                         _______ _______ _______ _____ _____    ______ ____
ROOT
ATOM      9  C   UNL     1       0.314  -2.630   0.000  0.00  0.00    +0.249 C 
ATOM     10  O   UNL     1       0.314  -3.455   0.000  0.00  0.00    -0.270 OA
ATOM     11  N   UNL     1       1.028  -2.217   0.000  0.00  0.00    -0.270 N 
ATOM     12  C   UNL     1       0.967  -1.395   0.000  0.00  0.00    +0.126 C 
ATOM     13  C   UNL     1       1.571  -0.834   0.000  0.00  0.00    +0.164 C 
ATOM     14  O   UNL     1       2.387  -0.957   0.000  0.00  0.00    -0.348 OA
ATOM     15  C   UNL     1       2.800  -1.671   0.000  0.00  0.00    +0.187 C 
ATOM     16  C   UNL     1       2.498  -2.439   0.000  0.00  0.00    +0.217 C 
ATOM     17  C   UNL     1       1.710  -2.682   0.000  0.00  0.00    +0.140 C 
ENDROOT
BRANCH   9   5
ATOM      3  C   UNL     1      -1.115  -0.980   0.000  0.00  0.00    +0.139 A 
ATOM      4  C   UNL     1      -0.401  -1.393   0.000  0.00  0.00    +0.041 A 
ATOM      5  C   UNL     1      -0.401  -2.217   0.000  0.00  0.00    +0.057 A 
ATOM      6  C   UNL     1      -1.115  -2.630   0.000  0.00  0.00    +0.005 A 
ATOM      7  C   UNL     1      -1.830  -2.217   0.000  0.00  0.00    +0.003 A 
ATOM      8  C   UNL     1      -1.830  -1.393   0.000  0.00  0.00    +0.037 A 
BRANCH   3   2
ATOM      1  C   UNL     1      -1.830   0.258   0.000  0.00  0.00    +0.252 C 
ATOM      2  O   UNL     1      -1.115  -0.155   0.000  0.00  0.00    -0.471 OA
ENDBRANCH   3   2
ENDBRANCH   9   5
BRANCH  16  18
ATOM     18  O   UNL     1       3.059  -3.044   0.000  0.00  0.00    -0.459 OA
BRANCH  18  19
ATOM     19  C   UNL     1       2.816  -3.832   0.000  0.00  0.00    +0.245 A 
ATOM     20  C   UNL     1       3.377  -4.437   0.000  0.00  0.00    +0.156 A 
ATOM     21  N   UNL     1       3.134  -5.225   0.000  0.00  0.00    -0.236 NA
ATOM     22  C   UNL     1       2.330  -5.409   0.000  0.00  0.00    +0.120 A 
ATOM     23  C   UNL     1       1.769  -4.804   0.000  0.00  0.00    +0.123 A 
ATOM     24  N   UNL     1       2.012  -4.016   0.000  0.00  0.00    -0.207 NA
ENDBRANCH  18  19
ENDBRANCH  16  18
TORSDOF 4
