REMARK  Name = 
REMARK  5 active torsions:
REMARK  status: ('A' for Active; 'I' for Inactive)
REMARK    1  A    between atoms: C_2  and  N_4
REMARK    2  A    between atoms: C_5  and  C_7
REMARK    3  A    between atoms: C_7  and  C_9
REMARK    4  A    between atoms: C_16  and  N_17
REMARK    5  A    between atoms: C_18  and  C_20
REMARK                            x       y       z     vdW  Elec       q    Type
REMARK                         _______ _______ _______ _____ _____    ______ ____
ROOT
ATOM      9  C   UNL     1       5.716  -2.475   0.000  0.00  0.00    +0.039 C 
ATOM     10  C   UNL     1       5.716  -1.650   0.000  0.00  0.00    +0.003 C 
ATOM     11  C   UNL     1       6.430  -1.238   0.000  0.00  0.00    +0.000 C 
ATOM     12  C   UNL     1       7.145  -1.650   0.000  0.00  0.00    +0.002 C 
ATOM     13  C   UNL     1       7.145  -0.825   0.000  0.00  0.00    +0.000 C 
ATOM     14  C   UNL     1       7.859  -1.238   0.000  0.00  0.00    +0.002 C 
ATOM     15  C   UNL     1       8.574  -1.650   0.000  0.00  0.00    +0.022 C 
ATOM     16  C   UNL     1       8.574  -2.475   0.000  0.00  0.00    +0.095 C 
ATOM     26  C   UNL     1       7.859  -2.888   0.000  0.00  0.00    +0.022 C 
ATOM     27  C   UNL     1       7.859  -3.712   0.000  0.00  0.00    +0.002 C 
ATOM     28  C   UNL     1       7.145  -2.475   0.000  0.00  0.00    +0.032 C 
ATOM     29  C   UNL     1       6.430  -2.888   0.000  0.00  0.00    +0.152 C 
ATOM     30  O   UNL     1       6.430  -3.712   0.000  0.00  0.00    -0.223 OA
ENDROOT
BRANCH  16  17
ATOM     17  N   UNL     1       9.288  -2.888   0.000  0.00  0.00    -0.207 NA
ATOM     18  C   UNL     1      10.003  -2.475   0.000  0.00  0.00    +0.241 C 
ATOM     19  O   UNL     1      10.003  -1.650   0.000  0.00  0.00    -0.273 OA
BRANCH  18  20
ATOM     20  C   UNL     1      10.717  -2.888   0.000  0.00  0.00    +0.078 C 
ATOM     21  C   UNL     1      11.431  -2.475   0.000  0.00  0.00    +0.009 C 
ATOM     22  C   UNL     1      12.146  -2.888   0.000  0.00  0.00    +0.000 C 
ATOM     23  C   UNL     1      12.146  -3.712   0.000  0.00  0.00    +0.000 C 
ATOM     24  C   UNL     1      11.431  -4.125   0.000  0.00  0.00    +0.000 C 
ATOM     25  C   UNL     1      10.717  -3.712   0.000  0.00  0.00    +0.009 C 
ENDBRANCH  18  20
ENDBRANCH  16  17
BRANCH   9   7
ATOM      7  C   UNL     1       5.001  -2.888   0.000  0.00  0.00    +0.081 C 
ATOM      8  C   UNL     1       5.001  -3.712   0.000  0.00  0.00    +0.010 C 
BRANCH   7   5
ATOM      4  N   UNL     1       3.572  -2.888   0.000  0.00  0.00    -0.207 NA
ATOM      5  C   UNL     1       4.287  -2.475   0.000  0.00  0.00    +0.241 C 
ATOM      6  O   UNL     1       4.287  -1.650   0.000  0.00  0.00    -0.273 OA
BRANCH   4   2
ATOM      1  C   UNL     1       2.143  -2.888   0.000  0.00  0.00    +0.023 C 
ATOM      2  C   UNL     1       2.858  -2.475   0.000  0.00  0.00    +0.095 C 
ATOM      3  C   UNL     1       2.858  -1.650   0.000  0.00  0.00    +0.023 C 
ENDBRANCH   4   2
ENDBRANCH   7   5
ENDBRANCH   9   7
TORSDOF 5
