REMARK  Name = 
REMARK  6 active torsions:
REMARK  status: ('A' for Active; 'I' for Inactive)
REMARK    1  A    between atoms: C_2  and  C_4
REMARK    2  A    between atoms: C_4  and  C_5
REMARK    3  A    between atoms: C_4  and  N_12
REMARK    4  A    between atoms: C_5  and  C_6
REMARK    5  A    between atoms: C_13  and  C_15
REMARK    6  A    between atoms: C_21  and  C_23
REMARK                            x       y       z     vdW  Elec       q    Type
REMARK                         _______ _______ _______ _____ _____    ______ ____
ROOT
ATOM     12  N   UNL     1       2.143  -3.712   0.000  0.00  0.00    -0.196 NA
ATOM     13  C   UNL     1       2.858  -4.125   0.000  0.00  0.00    +0.261 C 
ATOM     14  O   UNL     1       2.858  -4.950   0.000  0.00  0.00    -0.271 OA
ENDROOT
BRANCH  13  15
ATOM     15  C   UNL     1       3.572  -3.712   0.000  0.00  0.00    +0.171 C 
ATOM     16  C   UNL     1       3.572  -2.888   0.000  0.00  0.00    +0.118 C 
ATOM     17  N   UNL     1       4.287  -2.475   0.000  0.00  0.00    -0.214 NA
ATOM     18  C   UNL     1       5.001  -2.888   0.000  0.00  0.00    +0.110 C 
ATOM     19  C   UNL     1       5.001  -3.712   0.000  0.00  0.00    +0.113 C 
ATOM     20  N   UNL     1       4.287  -4.125   0.000  0.00  0.00    -0.270 N 
ATOM     21  C   UNL     1       4.287  -4.950   0.000  0.00  0.00    +0.226 C 
ATOM     22  O   UNL     1       3.572  -5.362   0.000  0.00  0.00    -0.275 OA
BRANCH  21  23
ATOM     23  C   UNL     1       5.001  -5.362   0.000  0.00  0.00    +0.077 C 
ATOM     24  C   UNL     1       5.716  -4.950   0.000  0.00  0.00    +0.009 C 
ATOM     25  C   UNL     1       6.430  -5.362   0.000  0.00  0.00    +0.000 C 
ATOM     26  C   UNL     1       6.430  -6.188   0.000  0.00  0.00    +0.000 C 
ATOM     27  C   UNL     1       5.716  -6.600   0.000  0.00  0.00    +0.000 C 
ATOM     28  C   UNL     1       5.001  -6.188   0.000  0.00  0.00    +0.009 C 
ENDBRANCH  21  23
ENDBRANCH  13  15
BRANCH  12   4
ATOM      4  C   UNL     1       1.429  -4.125   0.000  0.00  0.00    +0.174 C 
BRANCH   4   2
ATOM      1  N   UNL     1       2.143  -5.362   0.000  0.00  0.00    -0.086 NA
ATOM      2  C   UNL     1       1.429  -4.950   0.000  0.00  0.00    +0.281 C 
ATOM      3  O   UNL     1       0.715  -5.362   0.000  0.00  0.00    -0.270 OA
ENDBRANCH   4   2
BRANCH   4   5
ATOM      5  C   UNL     1       0.715  -3.712   0.000  0.00  0.00    +0.031 C 
BRANCH   5   6
ATOM      6  C   UNL     1       0.000  -4.125   0.000  0.00  0.00    +0.002 C 
ATOM      7  C   UNL     1       0.000  -4.950   0.000  0.00  0.00    +0.000 C 
ATOM      8  C   UNL     1      -0.715  -5.362   0.000  0.00  0.00    +0.000 C 
ATOM      9  C   UNL     1      -1.429  -4.950   0.000  0.00  0.00    +0.000 C 
ATOM     10  C   UNL     1      -1.429  -4.125   0.000  0.00  0.00    +0.000 C 
ATOM     11  C   UNL     1      -0.715  -3.712   0.000  0.00  0.00    +0.000 C 
ENDBRANCH   5   6
ENDBRANCH   4   5
ENDBRANCH  12   4
TORSDOF 6
