REMARK  Name = 
REMARK  5 active torsions:
REMARK  status: ('A' for Active; 'I' for Inactive)
REMARK    1  A    between atoms: C_5  and  N_8
REMARK    2  A    between atoms: N_8  and  C_9
REMARK    3  A    between atoms: C_9  and  C_10
REMARK    4  A    between atoms: C_12  and  C_13
REMARK    5  A    between atoms: C_17  and  N_18
REMARK                            x       y       z     vdW  Elec       q    Type
REMARK                         _______ _______ _______ _____ _____    ______ ____
ROOT
ATOM     10  C   UNL     1       0.000   4.704   0.000  0.00  0.00    +0.150 C 
ATOM     11  O   UNL     1       0.667   4.219   0.000  0.00  0.00    -0.350 OA
ATOM     12  C   UNL     1       0.412   3.434   0.000  0.00  0.00    +0.180 C 
ATOM     15  C   UNL     1      -0.412   3.434   0.000  0.00  0.00    +0.198 C 
ATOM     16  O   UNL     1      -0.897   2.767   0.000  0.00  0.00    -0.219 OA
ATOM     17  C   UNL     1      -0.667   4.219   0.000  0.00  0.00    +0.120 C 
ENDROOT
BRANCH  17  18
ATOM     18  N   UNL     1      -1.452   4.474   0.000  0.00  0.00    -0.270 NA
ATOM     19  C   UNL     1      -2.119   3.989   0.000  0.00  0.00    +0.072 C 
ATOM     20  C   UNL     1      -2.787   4.474   0.000  0.00  0.00    +0.019 C 
ATOM     21  C   UNL     1      -2.532   5.258   0.000  0.00  0.00    +0.019 C 
ATOM     22  C   UNL     1      -1.707   5.258   0.000  0.00  0.00    +0.072 C 
ENDBRANCH  17  18
BRANCH  12  13
ATOM     13  C   UNL     1       0.897   2.767   0.000  0.00  0.00    +0.214 C 
ATOM     14  O   UNL     1       1.718   2.853   0.000  0.00  0.00    -0.218 OA
ENDBRANCH  12  13
BRANCH  10   9
ATOM      9  C   UNL     1       0.000   5.529   0.000  0.00  0.00    +0.120 C 
BRANCH   9   8
ATOM      8  N   UNL     1      -0.715   5.941   0.000  0.00  0.00    -0.217 NA
BRANCH   8   5
ATOM      1  C   UNL     1      -0.715   9.241   0.000  0.00  0.00    +0.090 C 
ATOM      2  N   UNL     1      -0.715   8.416   0.000  0.00  0.00    -0.271 NA
ATOM      3  C   UNL     1       0.000   8.004   0.000  0.00  0.00    +0.074 C 
ATOM      4  C   UNL     1       0.000   7.179   0.000  0.00  0.00    +0.035 C 
ATOM      5  C   UNL     1      -0.715   6.766   0.000  0.00  0.00    +0.076 C 
ATOM      6  C   UNL     1      -1.429   7.179   0.000  0.00  0.00    +0.035 C 
ATOM      7  C   UNL     1      -1.429   8.004   0.000  0.00  0.00    +0.074 C 
ENDBRANCH   8   5
ENDBRANCH   9   8
ENDBRANCH  10   9
TORSDOF 5
