REMARK  Name = 
REMARK  9 active torsions:
REMARK  status: ('A' for Active; 'I' for Inactive)
REMARK    1  A    between atoms: C_2  and  C_3
REMARK    2  A    between atoms: C_11  and  C_12
REMARK    3  A    between atoms: C_12  and  C_13
REMARK    4  A    between atoms: N_15  and  C_16
REMARK    5  A    between atoms: C_16  and  C_17
REMARK    6  A    between atoms: C_17  and  N_18
REMARK    7  A    between atoms: C_31  and  O_33
REMARK    8  A    between atoms: O_33  and  C_34
REMARK    9  A    between atoms: C_34  and  C_35
REMARK                            x       y       z     vdW  Elec       q    Type
REMARK                         _______ _______ _______ _____ _____    ______ ____
ROOT
ATOM      1  C   UNL     1      -5.548   3.967   0.000  0.00  0.00    +0.005 C 
ATOM      2  C   UNL     1      -4.773   4.250   0.000  0.00  0.00    +0.059 C 
ATOM      5  C   UNL     1      -5.185   4.964   0.000  0.00  0.00    +0.154 C 
ATOM      6  O   UNL     1      -6.010   4.964   0.000  0.00  0.00    -0.223 OA
ATOM      7  C   UNL     1      -4.773   5.679   0.000  0.00  0.00    +0.033 C 
ATOM      8  C   UNL     1      -3.948   5.679   0.000  0.00  0.00    +0.003 C 
ATOM      9  C   UNL     1      -3.535   4.964   0.000  0.00  0.00    +0.006 C 
ATOM     10  C   UNL     1      -3.123   5.679   0.000  0.00  0.00    +0.000 C 
ATOM     11  C   UNL     1      -2.710   4.964   0.000  0.00  0.00    +0.050 C 
ATOM     24  C   UNL     1      -2.298   4.250   0.000  0.00  0.00    +0.063 A 
ATOM     25  C   UNL     1      -2.710   3.535   0.000  0.00  0.00    +0.023 A 
ATOM     26  C   UNL     1      -3.535   3.535   0.000  0.00  0.00    +0.034 C 
ATOM     27  C   UNL     1      -3.948   4.250   0.000  0.00  0.00    +0.010 C 
ATOM     28  S   UNL     1      -2.158   2.922   0.000  0.00  0.00    -0.054 S 
ATOM     29  C   UNL     1      -1.405   3.258   0.000  0.00  0.00    +0.188 A 
ATOM     30  N   UNL     1      -0.690   2.845   0.000  0.00  0.00    -0.117 NA
ATOM     31  C   UNL     1       0.024   3.258   0.000  0.00  0.00    +0.427 C 
ATOM     32  O   UNL     1       0.024   4.083   0.000  0.00  0.00    -0.224 OA
ATOM     37  N   UNL     1      -1.491   4.078   0.000  0.00  0.00    -0.227 NA
ENDROOT
BRANCH   2   3
ATOM      3  C   UNL     1      -4.630   3.437   0.000  0.00  0.00    +0.184 C 
ATOM      4  O   UNL     1      -3.854   3.155   0.000  0.00  0.00    -0.220 OA
ENDBRANCH   2   3
BRANCH  11  12
ATOM     12  C   UNL     1      -2.298   5.679   0.000  0.00  0.00    +0.093 C 
BRANCH  12  13
ATOM     13  C   UNL     1      -2.710   6.393   0.000  0.00  0.00    +0.242 C 
ATOM     14  O   UNL     1      -3.535   6.393   0.000  0.00  0.00    -0.273 OA
ATOM     15  N   UNL     1      -2.298   7.108   0.000  0.00  0.00    -0.204 NA
BRANCH  15  16
ATOM     16  C   UNL     1      -2.710   7.822   0.000  0.00  0.00    +0.132 C 
BRANCH  16  17
ATOM     17  C   UNL     1      -2.298   8.537   0.000  0.00  0.00    +0.096 C 
BRANCH  17  18
ATOM     18  N   UNL     1      -2.710   9.251   0.000  0.00  0.00    -0.267 NA
ATOM     19  C   UNL     1      -3.535   9.251   0.000  0.00  0.00    +0.105 C 
ATOM     20  C   UNL     1      -3.948   9.966   0.000  0.00  0.00    +0.159 C 
ATOM     21  O   UNL     1      -3.535  10.680   0.000  0.00  0.00    -0.351 OA
ATOM     22  C   UNL     1      -2.710  10.680   0.000  0.00  0.00    +0.159 C 
ATOM     23  C   UNL     1      -2.298   9.966   0.000  0.00  0.00    +0.105 C 
ENDBRANCH  17  18
ENDBRANCH  16  17
ENDBRANCH  15  16
ENDBRANCH  12  13
ENDBRANCH  11  12
BRANCH  31  33
ATOM     33  O   UNL     1       0.739   2.845   0.000  0.00  0.00    -0.428 OA
BRANCH  33  34
ATOM     34  C   UNL     1       1.453   3.258   0.000  0.00  0.00    +0.237 C 
BRANCH  34  35
ATOM     35  C   UNL     1       2.168   2.845   0.000  0.00  0.00    +0.021 C 
ATOM     36  C   UNL     1       2.882   3.258   0.000  0.00  0.00    -0.001 C 
ENDBRANCH  34  35
ENDBRANCH  33  34
ENDBRANCH  31  33
TORSDOF 9
