REMARK  Name = 
REMARK  5 active torsions:
REMARK  status: ('A' for Active; 'I' for Inactive)
REMARK    1  A    between atoms: C_3  and  N_4
REMARK    2  A    between atoms: N_7  and  C_8
REMARK    3  A    between atoms: C_8  and  C_9
REMARK    4  A    between atoms: C_16  and  S_17
REMARK    5  A    between atoms: S_17  and  C_18
REMARK                            x       y       z     vdW  Elec       q    Type
REMARK                         _______ _______ _______ _____ _____    ______ ____
ROOT
ATOM      1  O   UNL     1       2.740  -1.912   0.000  0.00  0.00    -0.220 OA
ATOM      2  C   UNL     1       2.127  -1.359   0.000  0.00  0.00    +0.189 C 
ATOM      3  C   UNL     1       1.989  -0.542   0.000  0.00  0.00    +0.158 C 
ATOM     11  C   UNL     1       1.060  -0.557   0.000  0.00  0.00    +0.170 C 
ATOM     12  C   UNL     1       0.740  -1.266   0.000  0.00  0.00    +0.176 C 
ATOM     13  O   UNL     1       0.120  -1.643   0.000  0.00  0.00    -0.327 OA
ATOM     14  C   UNL     1       0.640  -0.930   0.000  0.00  0.00    +0.248 C 
ATOM     15  O   UNL     1       0.500  -0.117   0.000  0.00  0.00    -0.328 OA
ATOM     16  C   UNL     1       1.611  -0.930   0.000  0.00  0.00    +0.140 C 
ENDROOT
BRANCH   3   4
ATOM      4  N   UNL     1       2.517   0.093   0.000  0.00  0.00    -0.184 NA
ATOM      5  C   UNL     1       2.231   0.867   0.000  0.00  0.00    +0.340 C 
ATOM      6  O   UNL     1       1.417   1.006   0.000  0.00  0.00    -0.249 OA
ATOM      7  N   UNL     1       2.758   1.501   0.000  0.00  0.00    -0.182 NA
BRANCH   7   8
ATOM      8  C   UNL     1       2.472   2.275   0.000  0.00  0.00    +0.143 C 
BRANCH   8   9
ATOM      9  C   UNL     1       2.999   2.910   0.000  0.00  0.00    -0.003 C 
ATOM     10  C   UNL     1       2.713   3.683   0.000  0.00  0.00    -0.003 C 
ENDBRANCH   8   9
ENDBRANCH   7   8
ENDBRANCH   3   4
BRANCH  16  17
ATOM     17  S   UNL     1       1.331  -1.706   0.000  0.00  0.00    -0.107 S 
BRANCH  17  18
ATOM     18  C   UNL     1       1.863  -2.337   0.000  0.00  0.00    +0.025 A 
ATOM     19  C   UNL     1       2.675  -2.192   0.000  0.00  0.00    +0.006 A 
ATOM     20  C   UNL     1       3.207  -2.822   0.000  0.00  0.00    +0.001 A 
ATOM     21  C   UNL     1       2.927  -3.598   0.000  0.00  0.00    +0.000 A 
ATOM     22  C   UNL     1       2.115  -3.744   0.000  0.00  0.00    +0.001 A 
ATOM     23  C   UNL     1       1.583  -3.113   0.000  0.00  0.00    +0.006 A 
ENDBRANCH  17  18
ENDBRANCH  16  17
TORSDOF 5
