REMARK  Name = 
REMARK  10 active torsions:
REMARK  status: ('A' for Active; 'I' for Inactive)
REMARK    1  A    between atoms: N_2  and  C_3
REMARK    2  A    between atoms: C_3  and  C_4
REMARK    3  A    between atoms: C_3  and  C_8
REMARK    4  A    between atoms: C_4  and  C_5
REMARK    5  A    between atoms: N_10  and  C_11
REMARK    6  A    between atoms: C_13  and  C_20
REMARK    7  A    between atoms: N_22  and  C_23
REMARK    8  A    between atoms: C_23  and  C_24
REMARK    9  A    between atoms: C_23  and  C_34
REMARK   10  A    between atoms: C_24  and  C_25
REMARK                            x       y       z     vdW  Elec       q    Type
REMARK                         _______ _______ _______ _____ _____    ______ ____
ROOT
ATOM     11  C   UNL     1      -5.550  -1.089   0.000  0.00  0.00    +0.131 C 
ATOM     12  C   UNL     1      -4.835  -0.677   0.000  0.00  0.00    +0.064 C 
ATOM     13  C   UNL     1      -4.121  -1.089   0.000  0.00  0.00    +0.200 C 
ATOM     14  O   UNL     1      -3.838  -0.314   0.000  0.00  0.00    -0.216 OA
ATOM     15  C   UNL     1      -4.121  -1.914   0.000  0.00  0.00    +0.075 C 
ATOM     16  C   UNL     1      -4.835  -2.327   0.000  0.00  0.00    +0.187 C 
ATOM     17  O   UNL     1      -4.835  -3.152   0.000  0.00  0.00    -0.220 OA
ATOM     18  C   UNL     1      -5.550  -1.914   0.000  0.00  0.00    +0.202 C 
ATOM     19  O   UNL     1      -6.264  -2.327   0.000  0.00  0.00    -0.219 OA
ENDROOT
BRANCH  11  10
ATOM      8  C   UNL     1      -6.979  -1.089   0.000  0.00  0.00    +0.257 C 
ATOM      9  O   UNL     1      -6.979  -1.914   0.000  0.00  0.00    -0.272 OA
ATOM     10  N   UNL     1      -6.264  -0.677   0.000  0.00  0.00    -0.203 NA
BRANCH   8   3
ATOM      3  C   UNL     1      -7.693  -0.677   0.000  0.00  0.00    +0.150 C 
BRANCH   3   2
ATOM      1  C   UNL     1      -6.979   0.561   0.000  0.00  0.00    +0.108 C 
ATOM      2  N   UNL     1      -7.693   0.148   0.000  0.00  0.00    -0.209 NA
ENDBRANCH   3   2
BRANCH   3   4
ATOM      4  C   UNL     1      -8.408  -1.089   0.000  0.00  0.00    +0.027 C 
BRANCH   4   5
ATOM      5  C   UNL     1      -9.122  -0.677   0.000  0.00  0.00    +0.002 C 
ATOM      6  C   UNL     1      -9.836  -1.089   0.000  0.00  0.00    +0.000 C 
ATOM      7  C   UNL     1      -9.122   0.148   0.000  0.00  0.00    +0.000 C 
ENDBRANCH   4   5
ENDBRANCH   3   4
ENDBRANCH   8   3
ENDBRANCH  11  10
BRANCH  13  20
ATOM     20  C   UNL     1      -3.308  -1.233   0.000  0.00  0.00    +0.269 C 
ATOM     21  O   UNL     1      -3.026  -2.008   0.000  0.00  0.00    -0.271 OA
ATOM     22  N   UNL     1      -2.778  -0.601   0.000  0.00  0.00    -0.195 NA
BRANCH  22  23
ATOM     23  C   UNL     1      -1.965  -0.744   0.000  0.00  0.00    +0.179 C 
BRANCH  23  34
ATOM     34  C   UNL     1      -1.683  -1.519   0.000  0.00  0.00    +0.281 C 
ATOM     35  N   UNL     1      -0.871  -1.662   0.000  0.00  0.00    -0.086 NA
ATOM     36  O   UNL     1      -2.213  -2.151   0.000  0.00  0.00    -0.270 OA
ENDBRANCH  23  34
BRANCH  23  24
ATOM     24  C   UNL     1      -1.435  -0.112   0.000  0.00  0.00    +0.059 C 
BRANCH  24  25
ATOM     25  C   UNL     1      -0.623  -0.255   0.000  0.00  0.00    +0.001 A 
ATOM     26  C   UNL     1      -0.261  -0.997   0.000  0.00  0.00    +0.095 A 
ATOM     27  N   UNL     1       0.556  -0.882   0.000  0.00  0.00    -0.244 NA
ATOM     28  C   UNL     1       0.699  -0.069   0.000  0.00  0.00    +0.081 A 
ATOM     29  C   UNL     1      -0.029   0.318   0.000  0.00  0.00    +0.015 A 
ATOM     30  C   UNL     1      -0.058   1.142   0.000  0.00  0.00    +0.001 A 
ATOM     31  C   UNL     1       0.642   1.580   0.000  0.00  0.00    +0.000 A 
ATOM     32  C   UNL     1       1.370   1.192   0.000  0.00  0.00    +0.002 A 
ATOM     33  C   UNL     1       1.399   0.368   0.000  0.00  0.00    +0.019 A 
ENDBRANCH  24  25
ENDBRANCH  23  24
ENDBRANCH  22  23
ENDBRANCH  13  20
TORSDOF 10
