REMARK  Name = 
REMARK  8 active torsions:
REMARK  status: ('A' for Active; 'I' for Inactive)
REMARK    1  A    between atoms: N_2  and  C_3
REMARK    2  A    between atoms: C_3  and  C_4
REMARK    3  A    between atoms: C_10  and  C_12
REMARK    4  A    between atoms: C_12  and  C_13
REMARK    5  A    between atoms: C_18  and  C_19
REMARK    6  A    between atoms: C_19  and  C_20
REMARK    7  A    between atoms: C_23  and  C_24
REMARK    8  A    between atoms: C_24  and  C_25
REMARK                            x       y       z     vdW  Elec       q    Type
REMARK                         _______ _______ _______ _____ _____    ______ ____
ROOT
ATOM     13  C   UNL     1       0.107   0.763   0.000  0.00  0.00    +0.012 C 
ATOM     14  C   UNL     1       0.821   1.176   0.000  0.00  0.00    +0.019 C 
ATOM     15  C   UNL     1       1.536   0.763   0.000  0.00  0.00    +0.089 C 
ATOM     16  N   UNL     1       1.536  -0.062   0.000  0.00  0.00    -0.218 NA
ATOM     17  C   UNL     1       0.821  -0.474   0.000  0.00  0.00    +0.089 C 
ATOM     18  C   UNL     1       0.107  -0.062   0.000  0.00  0.00    +0.024 C 
ENDROOT
BRANCH  13  12
ATOM     12  C   UNL     1      -0.608   1.176   0.000  0.00  0.00    +0.085 C 
BRANCH  12  10
ATOM      1  C   UNL     1      -2.037   2.001   0.000  0.00  0.00    +0.115 C 
ATOM      2  N   UNL     1      -1.322   2.413   0.000  0.00  0.00    -0.274 N 
ATOM     10  C   UNL     1      -0.608   2.001   0.000  0.00  0.00    +0.226 C 
ATOM     11  O   UNL     1       0.107   2.413   0.000  0.00  0.00    -0.275 OA
BRANCH   2   3
ATOM      3  C   UNL     1      -1.322   3.238   0.000  0.00  0.00    +0.120 C 
BRANCH   3   4
ATOM      4  C   UNL     1      -2.037   3.651   0.000  0.00  0.00    -0.002 A 
ATOM      5  C   UNL     1      -2.751   3.238   0.000  0.00  0.00    -0.003 A 
ATOM      6  C   UNL     1      -3.466   3.651   0.000  0.00  0.00    -0.000 A 
ATOM      7  C   UNL     1      -3.466   4.476   0.000  0.00  0.00    -0.000 A 
ATOM      8  C   UNL     1      -2.751   4.888   0.000  0.00  0.00    -0.000 A 
ATOM      9  C   UNL     1      -2.037   4.476   0.000  0.00  0.00    -0.003 A 
ENDBRANCH   3   4
ENDBRANCH   2   3
ENDBRANCH  12  10
ENDBRANCH  13  12
BRANCH  18  19
ATOM     19  C   UNL     1      -0.608  -0.474   0.000  0.00  0.00    +0.051 C 
BRANCH  19  20
ATOM     20  C   UNL     1      -0.608  -1.299   0.000  0.00  0.00    +0.100 A 
ATOM     21  N   UNL     1       0.060  -1.784   0.000  0.00  0.00    -0.082 NA
ATOM     22  O   UNL     1      -0.195  -2.569   0.000  0.00  0.00    -0.358 OA
ATOM     23  C   UNL     1      -1.020  -2.569   0.000  0.00  0.00    +0.154 A 
ATOM     31  C   UNL     1      -1.275  -1.784   0.000  0.00  0.00    +0.054 A 
BRANCH  23  24
ATOM     24  C   UNL     1      -1.505  -3.236   0.000  0.00  0.00    +0.067 C 
BRANCH  24  25
ATOM     25  C   UNL     1      -1.170  -3.990   0.000  0.00  0.00    +0.008 C 
ATOM     26  C   UNL     1      -0.349  -4.076   0.000  0.00  0.00    +0.000 C 
ATOM     27  C   UNL     1      -0.014  -4.830   0.000  0.00  0.00    +0.000 C 
ATOM     28  C   UNL     1      -0.498  -5.497   0.000  0.00  0.00    +0.000 C 
ATOM     29  C   UNL     1      -1.319  -5.411   0.000  0.00  0.00    +0.000 C 
ATOM     30  C   UNL     1      -1.655  -4.657   0.000  0.00  0.00    +0.000 C 
ENDBRANCH  24  25
ENDBRANCH  23  24
ENDBRANCH  19  20
ENDBRANCH  18  19
TORSDOF 8
