REMARK  Name = 
REMARK  8 active torsions:
REMARK  status: ('A' for Active; 'I' for Inactive)
REMARK    1  A    between atoms: O_2  and  C_3
REMARK    2  A    between atoms: C_7  and  C_8
REMARK    3  A    between atoms: C_8  and  N_9
REMARK    4  A    between atoms: N_9  and  C_10
REMARK    5  A    between atoms: C_10  and  C_11
REMARK    6  A    between atoms: C_13  and  C_14
REMARK    7  A    between atoms: C_14  and  C_15
REMARK    8  A    between atoms: C_18  and  C_20
REMARK                            x       y       z     vdW  Elec       q    Type
REMARK                         _______ _______ _______ _____ _____    ______ ____
ROOT
ATOM     11  C   UNL     1       2.858   0.000   0.000  0.00  0.00    +0.163 C 
ATOM     12  O   UNL     1       2.143  -0.412   0.000  0.00  0.00    -0.354 OA
ATOM     13  C   UNL     1       1.429   0.000   0.000  0.00  0.00    +0.121 C 
ATOM     26  C   UNL     1       1.429   0.825   0.000  0.00  0.00    +0.033 C 
ATOM     27  C   UNL     1       2.143   1.238   0.000  0.00  0.00    +0.038 C 
ATOM     28  C   UNL     1       2.858   0.825   0.000  0.00  0.00    +0.180 C 
ATOM     29  O   UNL     1       3.572   1.238   0.000  0.00  0.00    -0.220 OA
ENDROOT
BRANCH  11  10
ATOM     10  C   UNL     1       3.572  -0.412   0.000  0.00  0.00    +0.121 C 
BRANCH  10   9
ATOM      9  N   UNL     1       4.287   0.000   0.000  0.00  0.00    -0.211 NA
BRANCH   9   8
ATOM      8  C   UNL     1       5.001  -0.412   0.000  0.00  0.00    +0.115 C 
BRANCH   8   7
ATOM      3  C   UNL     1       6.430   1.238   0.000  0.00  0.00    +0.138 A 
ATOM      4  C   UNL     1       7.145   0.825   0.000  0.00  0.00    +0.037 A 
ATOM      5  C   UNL     1       7.145   0.000   0.000  0.00  0.00    +0.003 A 
ATOM      6  C   UNL     1       6.430  -0.412   0.000  0.00  0.00    -0.003 A 
ATOM      7  C   UNL     1       5.716   0.000   0.000  0.00  0.00    -0.002 A 
ATOM     30  C   UNL     1       5.716   0.825   0.000  0.00  0.00    +0.034 A 
BRANCH   3   2
ATOM      1  C   UNL     1       7.145   2.475   0.000  0.00  0.00    +0.252 C 
ATOM      2  O   UNL     1       6.430   2.062   0.000  0.00  0.00    -0.471 OA
ENDBRANCH   3   2
ENDBRANCH   8   7
ENDBRANCH   9   8
ENDBRANCH  10   9
ENDBRANCH  11  10
BRANCH  13  14
ATOM     14  C   UNL     1       0.715  -0.412   0.000  0.00  0.00    +0.079 C 
BRANCH  14  15
ATOM     15  C   UNL     1       0.715  -1.238   0.000  0.00  0.00    +0.103 A 
ATOM     16  N   UNL     1       1.382  -1.722   0.000  0.00  0.00    -0.081 NA
ATOM     17  O   UNL     1       1.127  -2.507   0.000  0.00  0.00    -0.354 OA
ATOM     18  C   UNL     1       0.302  -2.507   0.000  0.00  0.00    +0.177 A 
ATOM     19  C   UNL     1       0.047  -1.722   0.000  0.00  0.00    +0.058 A 
BRANCH  18  20
ATOM     20  C   UNL     1      -0.183  -3.175   0.000  0.00  0.00    +0.037 A 
ATOM     21  C   UNL     1       0.153  -3.928   0.000  0.00  0.00    +0.003 A 
ATOM     22  C   UNL     1      -0.332  -4.596   0.000  0.00  0.00    +0.000 A 
ATOM     23  C   UNL     1      -1.153  -4.509   0.000  0.00  0.00    +0.000 A 
ATOM     24  C   UNL     1      -1.488  -3.756   0.000  0.00  0.00    +0.000 A 
ATOM     25  C   UNL     1      -1.003  -3.088   0.000  0.00  0.00    +0.003 A 
ENDBRANCH  18  20
ENDBRANCH  14  15
ENDBRANCH  13  14
TORSDOF 8
