REMARK  Name = 
REMARK  4 active torsions:
REMARK  status: ('A' for Active; 'I' for Inactive)
REMARK    1  A    between atoms: O_2  and  C_3
REMARK    2  A    between atoms: C_8  and  N_9
REMARK    3  A    between atoms: C_15  and  C_17
REMARK    4  A    between atoms: C_20  and  C_22
REMARK                            x       y       z     vdW  Elec       q    Type
REMARK                         _______ _______ _______ _____ _____    ______ ____
ROOT
ATOM      9  N   UNL     1       2.739  -1.803   0.000  0.00  0.00    -0.159 NA
ATOM     10  C   UNL     1       2.024  -2.216   0.000  0.00  0.00    +0.328 C 
ATOM     11  O   UNL     1       1.310  -1.803   0.000  0.00  0.00    -0.250 OA
ATOM     12  N   UNL     1       2.024  -3.041   0.000  0.00  0.00    -0.262 N 
ATOM     13  C   UNL     1       2.692  -3.525   0.000  0.00  0.00    +0.096 C 
ATOM     14  C   UNL     1       2.437  -4.310   0.000  0.00  0.00    +0.033 C 
ATOM     15  C   UNL     1       1.612  -4.310   0.000  0.00  0.00    +0.100 C 
ATOM     16  C   UNL     1       1.357  -3.525   0.000  0.00  0.00    +0.104 C 
ENDROOT
BRANCH   9   8
ATOM      3  C   UNL     1       2.024  -0.566   0.000  0.00  0.00    +0.154 A 
ATOM      4  C   UNL     1       2.024   0.260   0.000  0.00  0.00    +0.038 A 
ATOM      5  C   UNL     1       2.739   0.672   0.000  0.00  0.00    +0.003 A 
ATOM      6  C   UNL     1       3.453   0.260   0.000  0.00  0.00    +0.002 A 
ATOM      7  C   UNL     1       3.453  -0.566   0.000  0.00  0.00    +0.020 A 
ATOM      8  C   UNL     1       2.739  -0.978   0.000  0.00  0.00    +0.109 A 
BRANCH   3   2
ATOM      1  C   UNL     1       0.596  -0.566   0.000  0.00  0.00    +0.253 C 
ATOM      2  O   UNL     1       1.310  -0.978   0.000  0.00  0.00    -0.470 OA
ENDBRANCH   3   2
ENDBRANCH   9   8
BRANCH  15  17
ATOM     17  C   UNL     1       1.127  -4.977   0.000  0.00  0.00    +0.228 A 
ATOM     18  N   UNL     1       1.382  -5.762   0.000  0.00  0.00    -0.111 NA
ATOM     19  N   UNL     1       0.715  -6.247   0.000  0.00  0.00    -0.107 NA
ATOM     20  C   UNL     1       0.047  -5.762   0.000  0.00  0.00    +0.250 A 
ATOM     21  O   UNL     1       0.302  -4.977   0.000  0.00  0.00    -0.419 OA
BRANCH  20  22
ATOM     22  C   UNL     1      -0.738  -6.017   0.000  0.00  0.00    +0.055 A 
ATOM     23  C   UNL     1      -0.909  -6.824   0.000  0.00  0.00    +0.004 A 
ATOM     24  C   UNL     1      -1.694  -7.079   0.000  0.00  0.00    -0.004 A 
ATOM     25  C   UNL     1      -2.307  -6.527   0.000  0.00  0.00    -0.022 A 
ATOM     26  C   UNL     1      -3.091  -6.782   0.000  0.00  0.00    +0.031 C 
ATOM     27  C   UNL     1      -2.135  -5.720   0.000  0.00  0.00    -0.004 A 
ATOM     28  C   UNL     1      -1.351  -5.465   0.000  0.00  0.00    +0.004 A 
ENDBRANCH  20  22
ENDBRANCH  15  17
TORSDOF 4
