REMARK  Name = 
REMARK  8 active torsions:
REMARK  status: ('A' for Active; 'I' for Inactive)
REMARK    1  A    between atoms: N_2  and  C_4
REMARK    2  A    between atoms: C_7  and  C_10
REMARK    3  A    between atoms: C_16  and  C_18
REMARK    4  A    between atoms: N_20  and  C_21
REMARK    5  A    between atoms: C_21  and  C_22
REMARK    6  A    between atoms: C_21  and  C_29
REMARK    7  A    between atoms: C_22  and  C_23
REMARK    8  A    between atoms: C_32  and  C_34
REMARK                            x       y       z     vdW  Elec       q    Type
REMARK                         _______ _______ _______ _____ _____    ______ ____
ROOT
ATOM     10  C   UNL     1       2.250  -1.299   0.000  0.00  0.00    +0.249 C 
ATOM     11  O   UNL     1       2.250  -0.474   0.000  0.00  0.00    -0.270 OA
ATOM     12  N   UNL     1       1.536  -1.712   0.000  0.00  0.00    -0.272 N 
ATOM     13  C   UNL     1       1.536  -2.537   0.000  0.00  0.00    +0.115 C 
ATOM     14  C   UNL     1       0.821  -2.949   0.000  0.00  0.00    +0.116 C 
ATOM     15  N   UNL     1       0.107  -2.537   0.000  0.00  0.00    -0.266 N 
ATOM     16  C   UNL     1       0.107  -1.712   0.000  0.00  0.00    +0.174 C 
ATOM     17  C   UNL     1       0.821  -1.299   0.000  0.00  0.00    +0.123 C 
ATOM     32  C   UNL     1      -0.608  -2.949   0.000  0.00  0.00    +0.255 C 
ATOM     33  O   UNL     1      -1.322  -2.537   0.000  0.00  0.00    -0.269 OA
ENDROOT
BRANCH  10   7
ATOM      4  C   UNL     1       4.394  -2.537   0.000  0.00  0.00    +0.048 A 
ATOM      5  C   UNL     1       3.679  -2.949   0.000  0.00  0.00    +0.015 A 
ATOM      6  C   UNL     1       2.965  -2.537   0.000  0.00  0.00    +0.006 A 
ATOM      7  C   UNL     1       2.965  -1.712   0.000  0.00  0.00    +0.054 A 
ATOM      8  C   UNL     1       3.679  -1.299   0.000  0.00  0.00    +0.006 A 
ATOM      9  C   UNL     1       4.394  -1.712   0.000  0.00  0.00    +0.015 A 
BRANCH   4   2
ATOM      1  C   UNL     1       5.822  -2.537   0.000  0.00  0.00    +0.112 C 
ATOM      2  N   UNL     1       5.108  -2.949   0.000  0.00  0.00    -0.304 N 
ATOM      3  C   UNL     1       5.108  -3.774   0.000  0.00  0.00    +0.112 C 
ENDBRANCH   4   2
ENDBRANCH  10   7
BRANCH  32  34
ATOM     34  C   UNL     1      -0.608  -3.774   0.000  0.00  0.00    +0.083 A 
ATOM     35  C   UNL     1       0.060  -4.259   0.000  0.00  0.00    +0.012 A 
ATOM     36  C   UNL     1      -0.195  -5.044   0.000  0.00  0.00    +0.008 A 
ATOM     37  C   UNL     1      -1.020  -5.044   0.000  0.00  0.00    +0.036 A 
ATOM     38  S   UNL     1      -1.275  -4.259   0.000  0.00  0.00    -0.082 S 
ENDBRANCH  32  34
BRANCH  16  18
ATOM     18  C   UNL     1      -0.608  -1.299   0.000  0.00  0.00    +0.262 C 
ATOM     19  O   UNL     1      -0.608  -0.474   0.000  0.00  0.00    -0.271 OA
ATOM     20  N   UNL     1      -1.322  -1.712   0.000  0.00  0.00    -0.196 NA
BRANCH  20  21
ATOM     21  C   UNL     1      -2.037  -1.299   0.000  0.00  0.00    +0.174 C 
BRANCH  21  29
ATOM     29  C   UNL     1      -2.037  -0.474   0.000  0.00  0.00    +0.281 C 
ATOM     30  N   UNL     1      -2.751  -0.062   0.000  0.00  0.00    -0.086 NA
ATOM     31  O   UNL     1      -1.322  -0.062   0.000  0.00  0.00    -0.270 OA
ENDBRANCH  21  29
BRANCH  21  22
ATOM     22  C   UNL     1      -2.751  -1.712   0.000  0.00  0.00    +0.031 C 
BRANCH  22  23
ATOM     23  C   UNL     1      -3.466  -1.299   0.000  0.00  0.00    +0.002 C 
ATOM     24  C   UNL     1      -4.180  -1.712   0.000  0.00  0.00    +0.000 C 
ATOM     25  C   UNL     1      -4.895  -1.299   0.000  0.00  0.00    +0.000 C 
ATOM     26  C   UNL     1      -4.895  -0.474   0.000  0.00  0.00    +0.000 C 
ATOM     27  C   UNL     1      -4.180  -0.062   0.000  0.00  0.00    +0.000 C 
ATOM     28  C   UNL     1      -3.466  -0.474   0.000  0.00  0.00    +0.000 C 
ENDBRANCH  22  23
ENDBRANCH  21  22
ENDBRANCH  20  21
ENDBRANCH  16  18
TORSDOF 8
