REMARK  Name = 
REMARK  7 active torsions:
REMARK  status: ('A' for Active; 'I' for Inactive)
REMARK    1  A    between atoms: C_2  and  C_4
REMARK    2  A    between atoms: C_7  and  C_8
REMARK    3  A    between atoms: C_8  and  N_9
REMARK    4  A    between atoms: C_13  and  C_14
REMARK    5  A    between atoms: C_16  and  C_19
REMARK    6  A    between atoms: C_22  and  O_23
REMARK    7  A    between atoms: O_23  and  C_24
REMARK                            x       y       z     vdW  Elec       q    Type
REMARK                         _______ _______ _______ _____ _____    ______ ____
ROOT
ATOM     14  C   UNL     1       3.635  -4.803   0.000  0.00  0.00    +0.251 A 
ATOM     15  N   UNL     1       2.967  -5.287   0.000  0.00  0.00    -0.190 NA
ATOM     16  C   UNL     1       2.300  -4.803   0.000  0.00  0.00    +0.205 A 
ATOM     17  N   UNL     1       2.555  -4.018   0.000  0.00  0.00    -0.056 NA
ATOM     18  O   UNL     1       3.380  -4.018   0.000  0.00  0.00    -0.336 OA
ENDROOT
BRANCH  16  19
ATOM     19  C   UNL     1       1.515  -5.057   0.000  0.00  0.00    +0.058 A 
ATOM     20  C   UNL     1       1.343  -5.864   0.000  0.00  0.00    +0.010 A 
ATOM     21  C   UNL     1       0.559  -6.119   0.000  0.00  0.00    +0.058 A 
ATOM     22  C   UNL     1      -0.054  -5.567   0.000  0.00  0.00    +0.225 A 
ATOM     30  N   UNL     1       0.117  -4.760   0.000  0.00  0.00    -0.210 NA
ATOM     31  C   UNL     1       0.902  -4.505   0.000  0.00  0.00    +0.105 A 
BRANCH  22  23
ATOM     23  O   UNL     1      -0.839  -5.822   0.000  0.00  0.00    -0.464 OA
BRANCH  23  24
ATOM     24  C   UNL     1      -1.452  -5.270   0.000  0.00  0.00    +0.168 C 
ATOM     25  C   UNL     1      -2.237  -5.525   0.000  0.00  0.00    +0.044 C 
ATOM     26  C   UNL     1      -2.850  -4.973   0.000  0.00  0.00    +0.004 C 
ATOM     27  C   UNL     1      -2.678  -4.166   0.000  0.00  0.00    +0.000 C 
ATOM     28  C   UNL     1      -1.893  -3.911   0.000  0.00  0.00    +0.004 C 
ATOM     29  C   UNL     1      -1.280  -4.463   0.000  0.00  0.00    +0.044 C 
ENDBRANCH  23  24
ENDBRANCH  22  23
ENDBRANCH  16  19
BRANCH  14  13
ATOM      9  N   UNL     1       5.087  -4.572   0.000  0.00  0.00    -0.263 NA
ATOM     10  C   UNL     1       5.754  -5.057   0.000  0.00  0.00    +0.073 C 
ATOM     11  C   UNL     1       5.499  -5.842   0.000  0.00  0.00    +0.019 C 
ATOM     12  C   UNL     1       4.674  -5.842   0.000  0.00  0.00    +0.027 C 
ATOM     13  C   UNL     1       4.419  -5.057   0.000  0.00  0.00    +0.138 C 
BRANCH   9   8
ATOM      8  C   UNL     1       5.087  -3.748   0.000  0.00  0.00    +0.099 C 
BRANCH   8   7
ATOM      4  C   UNL     1       7.230  -2.510   0.000  0.00  0.00    +0.080 A 
ATOM      5  C   UNL     1       7.230  -3.335   0.000  0.00  0.00    +0.006 A 
ATOM      6  C   UNL     1       6.516  -3.748   0.000  0.00  0.00    -0.003 A 
ATOM      7  C   UNL     1       5.801  -3.335   0.000  0.00  0.00    -0.006 A 
ATOM     32  C   UNL     1       5.801  -2.510   0.000  0.00  0.00    -0.003 A 
ATOM     33  C   UNL     1       6.516  -2.098   0.000  0.00  0.00    +0.006 A 
BRANCH   4   2
ATOM      1  O   UNL     1       7.944  -1.272   0.000  0.00  0.00    -0.241 OA
ATOM      2  C   UNL     1       7.944  -2.098   0.000  0.00  0.00    +0.388 C 
ATOM      3  O   UNL     1       8.659  -2.510   0.000  0.00  0.00    -0.241 OA
ENDBRANCH   4   2
ENDBRANCH   8   7
ENDBRANCH   9   8
ENDBRANCH  14  13
TORSDOF 7
