REMARK  Name = 
REMARK  6 active torsions:
REMARK  status: ('A' for Active; 'I' for Inactive)
REMARK    1  A    between atoms: O_2  and  C_3
REMARK    2  A    between atoms: C_6  and  C_7
REMARK    3  A    between atoms: C_7  and  N_8
REMARK    4  A    between atoms: N_8  and  C_9
REMARK    5  A    between atoms: C_11  and  C_14
REMARK    6  A    between atoms: N_17  and  C_21
REMARK                            x       y       z     vdW  Elec       q    Type
REMARK                         _______ _______ _______ _____ _____    ______ ____
ROOT
ATOM      9  C   UNL     1      -0.596  -3.041   0.000  0.00  0.00    +0.095 C 
ATOM     10  C   UNL     1       0.072  -3.525   0.000  0.00  0.00    +0.031 C 
ATOM     11  C   UNL     1      -0.183  -4.310   0.000  0.00  0.00    +0.048 C 
ATOM     12  C   UNL     1      -1.008  -4.310   0.000  0.00  0.00    -0.025 C 
ATOM     13  C   UNL     1      -1.263  -3.525   0.000  0.00  0.00    -0.013 C 
ENDROOT
BRANCH  11  14
ATOM     14  C   UNL     1       0.302  -4.977   0.000  0.00  0.00    +0.010 A 
ATOM     15  C   UNL     1       1.127  -4.977   0.000  0.00  0.00    +0.058 A 
ATOM     16  C   UNL     1       1.612  -4.310   0.000  0.00  0.00    +0.052 C 
ATOM     17  N   UNL     1       1.382  -5.762   0.000  0.00  0.00    -0.234 N 
ATOM     18  N   UNL     1       0.715  -6.247   0.000  0.00  0.00    -0.170 NA
ATOM     19  C   UNL     1       0.047  -5.762   0.000  0.00  0.00    +0.077 A 
ATOM     20  C   UNL     1      -0.738  -6.017   0.000  0.00  0.00    +0.054 C 
BRANCH  17  21
ATOM     21  C   UNL     1       2.167  -6.017   0.000  0.00  0.00    +0.083 A 
ATOM     22  C   UNL     1       2.780  -5.465   0.000  0.00  0.00    +0.026 A 
ATOM     23  C   UNL     1       3.564  -5.720   0.000  0.00  0.00    +0.036 A 
ATOM     24 BR   UNL     1       4.177  -5.168   0.000  0.00  0.00    -0.049 Br
ATOM     25  C   UNL     1       3.736  -6.527   0.000  0.00  0.00    +0.007 A 
ATOM     26  C   UNL     1       3.123  -7.079   0.000  0.00  0.00    +0.002 A 
ATOM     27  C   UNL     1       2.338  -6.824   0.000  0.00  0.00    +0.019 A 
ENDBRANCH  17  21
ENDBRANCH  11  14
BRANCH   9   8
ATOM      8  N   UNL     1      -0.596  -2.216   0.000  0.00  0.00    -0.210 NA
BRANCH   8   7
ATOM      7  C   UNL     1      -1.310  -1.803   0.000  0.00  0.00    +0.115 C 
BRANCH   7   6
ATOM      3  C   UNL     1      -1.310   0.672   0.000  0.00  0.00    +0.139 A 
ATOM      4  C   UNL     1      -0.596   0.260   0.000  0.00  0.00    +0.037 A 
ATOM      5  C   UNL     1      -0.596  -0.566   0.000  0.00  0.00    +0.000 A 
ATOM      6  C   UNL     1      -1.310  -0.978   0.000  0.00  0.00    -0.005 A 
ATOM     28  C   UNL     1      -2.024  -0.566   0.000  0.00  0.00    +0.000 A 
ATOM     29  C   UNL     1      -2.024   0.260   0.000  0.00  0.00    +0.037 A 
BRANCH   3   2
ATOM      1  C   UNL     1      -2.024   1.909   0.000  0.00  0.00    +0.252 C 
ATOM      2  O   UNL     1      -1.310   1.497   0.000  0.00  0.00    -0.471 OA
ENDBRANCH   3   2
ENDBRANCH   7   6
ENDBRANCH   8   7
ENDBRANCH   9   8
TORSDOF 6
