REMARK  Name = 
REMARK  8 active torsions:
REMARK  status: ('A' for Active; 'I' for Inactive)
REMARK    1  A    between atoms: O_2  and  C_3
REMARK    2  A    between atoms: C_6  and  C_9
REMARK    3  A    between atoms: C_12  and  C_13
REMARK    4  A    between atoms: C_13  and  C_14
REMARK    5  A    between atoms: C_16  and  C_17
REMARK    6  A    between atoms: C_20  and  C_21
REMARK    7  A    between atoms: C_21  and  N_22
REMARK    8  A    between atoms: N_22  and  C_23
REMARK                            x       y       z     vdW  Elec       q    Type
REMARK                         _______ _______ _______ _____ _____    ______ ____
ROOT
ATOM     14  C   UNL     1      -1.170  -3.990   0.000  0.00  0.00    +0.027 C 
ATOM     15  C   UNL     1      -0.349  -4.076   0.000  0.00  0.00    +0.005 C 
ATOM     16  C   UNL     1      -0.014  -4.830   0.000  0.00  0.00    +0.006 C 
ATOM     20  C   UNL     1      -0.498  -5.497   0.000  0.00  0.00    +0.039 C 
ATOM     26  C   UNL     1      -1.319  -5.411   0.000  0.00  0.00    -0.033 C 
ATOM     27  C   UNL     1      -1.655  -4.657   0.000  0.00  0.00    -0.048 C 
ATOM     28  C   UNL     1      -2.475  -4.571   0.000  0.00  0.00    +0.026 C 
ENDROOT
BRANCH  16  17
ATOM     17  C   UNL     1       0.807  -4.916   0.000  0.00  0.00    +0.000 C 
ATOM     18  C   UNL     1       1.142  -5.670   0.000  0.00  0.00    +0.000 C 
ATOM     19  C   UNL     1       1.292  -4.248   0.000  0.00  0.00    +0.000 C 
ENDBRANCH  16  17
BRANCH  14  13
ATOM     13  C   UNL     1      -1.505  -3.236   0.000  0.00  0.00    +0.091 C 
BRANCH  13  12
ATOM      9  C   UNL     1      -0.608  -1.299   0.000  0.00  0.00    +0.250 A 
ATOM     10  N   UNL     1       0.060  -1.784   0.000  0.00  0.00    -0.107 NA
ATOM     11  N   UNL     1      -0.195  -2.569   0.000  0.00  0.00    -0.111 NA
ATOM     12  C   UNL     1      -1.020  -2.569   0.000  0.00  0.00    +0.227 A 
ATOM     29  O   UNL     1      -1.275  -1.784   0.000  0.00  0.00    -0.420 OA
BRANCH   9   6
ATOM      3  C   UNL     1      -0.608   1.176   0.000  0.00  0.00    +0.139 A 
ATOM      4  C   UNL     1       0.107   0.763   0.000  0.00  0.00    +0.037 A 
ATOM      5  C   UNL     1       0.107  -0.062   0.000  0.00  0.00    +0.008 A 
ATOM      6  C   UNL     1      -0.608  -0.474   0.000  0.00  0.00    +0.055 A 
ATOM      7  C   UNL     1      -1.322  -0.062   0.000  0.00  0.00    +0.008 A 
ATOM      8  C   UNL     1      -1.322   0.763   0.000  0.00  0.00    +0.037 A 
BRANCH   3   2
ATOM      1  C   UNL     1      -1.322   2.413   0.000  0.00  0.00    +0.252 C 
ATOM      2  O   UNL     1      -0.608   2.001   0.000  0.00  0.00    -0.471 OA
ENDBRANCH   3   2
ENDBRANCH   9   6
ENDBRANCH  13  12
ENDBRANCH  14  13
BRANCH  20  21
ATOM     21  C   UNL     1      -0.163  -6.251   0.000  0.00  0.00    +0.093 C 
BRANCH  21  22
ATOM     22  N   UNL     1       0.657  -6.337   0.000  0.00  0.00    -0.219 NA
BRANCH  22  23
ATOM     23  C   UNL     1       0.993  -7.091   0.000  0.00  0.00    +0.073 C 
ATOM     24  C   UNL     1       1.814  -7.177   0.000  0.00  0.00    +0.019 C 
ATOM     25  C   UNL     1       0.508  -7.758   0.000  0.00  0.00    +0.019 C 
ENDBRANCH  22  23
ENDBRANCH  21  22
ENDBRANCH  20  21
TORSDOF 8
