REMARK  Name = 
REMARK  7 active torsions:
REMARK  status: ('A' for Active; 'I' for Inactive)
REMARK    1  A    between atoms: C_2  and  C_5
REMARK    2  A    between atoms: N_10  and  C_11
REMARK    3  A    between atoms: C_15  and  N_19
REMARK    4  A    between atoms: C_20  and  C_22
REMARK    5  A    between atoms: C_22  and  C_23
REMARK    6  A    between atoms: C_23  and  C_24
REMARK    7  A    between atoms: C_24  and  C_25
REMARK                            x       y       z     vdW  Elec       q    Type
REMARK                         _______ _______ _______ _____ _____    ______ ____
ROOT
ATOM     11  C   UNL     1       1.270  -0.922   0.000  0.00  0.00    +0.154 C 
ATOM     12  C   UNL     1       0.785  -0.255   0.000  0.00  0.00    +0.166 C 
ATOM     13  O   UNL     1       1.270   0.412   0.000  0.00  0.00    -0.350 OA
ATOM     14  C   UNL     1       2.054   0.158   0.000  0.00  0.00    +0.166 C 
ATOM     15  C   UNL     1       2.839   0.412   0.000  0.00  0.00    +0.154 C 
ATOM     16  C   UNL     1       3.324  -0.255   0.000  0.00  0.00    +0.166 C 
ATOM     17  O   UNL     1       2.839  -0.922   0.000  0.00  0.00    -0.350 OA
ATOM     18  C   UNL     1       2.054  -0.667   0.000  0.00  0.00    +0.166 C 
ENDROOT
BRANCH  11  10
ATOM      5  C   UNL     1      -0.854  -2.835   0.000  0.00  0.00    +0.063 A 
ATOM      6  C   UNL     1      -1.406  -2.222   0.000  0.00  0.00    +0.035 A 
ATOM      7  C   UNL     1      -1.151  -1.437   0.000  0.00  0.00    +0.103 A 
ATOM      8  N   UNL     1      -0.344  -1.265   0.000  0.00  0.00    -0.211 NA
ATOM      9  C   UNL     1       0.208  -1.879   0.000  0.00  0.00    +0.236 A 
ATOM     10  N   UNL     1       1.015  -1.707   0.000  0.00  0.00    -0.200 NA
ATOM     32  N   UNL     1      -0.047  -2.663   0.000  0.00  0.00    -0.217 NA
BRANCH   5   2
ATOM      1  C   UNL     1      -1.364  -4.404   0.000  0.00  0.00    +0.006 C 
ATOM      2  C   UNL     1      -1.109  -3.619   0.000  0.00  0.00    +0.036 C 
ATOM      3  C   UNL     1      -0.325  -3.874   0.000  0.00  0.00    +0.006 C 
ATOM      4  C   UNL     1      -1.894  -3.364   0.000  0.00  0.00    +0.006 C 
ENDBRANCH   5   2
ENDBRANCH  11  10
BRANCH  15  19
ATOM     19  N   UNL     1       3.094   1.197   0.000  0.00  0.00    -0.202 NA
ATOM     20  C   UNL     1       2.542   1.810   0.000  0.00  0.00    +0.241 C 
ATOM     21  O   UNL     1       1.735   1.639   0.000  0.00  0.00    -0.273 OA
BRANCH  20  22
ATOM     22  C   UNL     1       2.797   2.595   0.000  0.00  0.00    +0.087 C 
BRANCH  22  23
ATOM     23  C   UNL     1       2.245   3.208   0.000  0.00  0.00    +0.019 C 
ATOM     28  C   UNL     1       1.693   2.595   0.000  0.00  0.00    +0.001 C 
ATOM     29  C   UNL     1       0.939   2.930   0.000  0.00  0.00    +0.000 C 
ATOM     30  C   UNL     1       1.025   3.751   0.000  0.00  0.00    +0.000 C 
ATOM     31  C   UNL     1       1.832   3.922   0.000  0.00  0.00    +0.001 C 
BRANCH  23  24
ATOM     24  C   UNL     1       2.912   3.693   0.000  0.00  0.00    +0.115 C 
BRANCH  24  25
ATOM     25  C   UNL     1       3.666   3.357   0.000  0.00  0.00    +0.365 C 
ATOM     26  O   UNL     1       4.333   3.842   0.000  0.00  0.00    -0.246 OA
ATOM     27  O   UNL     1       3.752   2.537   0.000  0.00  0.00    -0.246 OA
ENDBRANCH  24  25
ENDBRANCH  23  24
ENDBRANCH  22  23
ENDBRANCH  20  22
ENDBRANCH  15  19
TORSDOF 7
