REMARK  Name = 
REMARK  5 active torsions:
REMARK  status: ('A' for Active; 'I' for Inactive)
REMARK    1  A    between atoms: C_5  and  C_6
REMARK    2  A    between atoms: C_6  and  N_7
REMARK    3  A    between atoms: C_12  and  O_14
REMARK    4  A    between atoms: O_14  and  C_15
REMARK    5  A    between atoms: C_18  and  C_21
REMARK                            x       y       z     vdW  Elec       q    Type
REMARK                         _______ _______ _______ _____ _____    ______ ____
ROOT
ATOM      7  N   UNL     1      -1.559  -3.758   0.000  0.00  0.00    -0.261 NA
ATOM      8  C   UNL     1      -0.735  -3.782   0.000  0.00  0.00    +0.105 C 
ATOM      9  C   UNL     1      -0.240  -4.442   0.000  0.00  0.00    +0.160 C 
ATOM     10  O   UNL     1      -0.448  -5.241   0.000  0.00  0.00    -0.348 OA
ATOM     11  C   UNL     1      -1.201  -5.576   0.000  0.00  0.00    +0.187 C 
ATOM     12  C   UNL     1      -1.933  -5.196   0.000  0.00  0.00    +0.213 C 
ATOM     13  C   UNL     1      -2.093  -4.387   0.000  0.00  0.00    +0.119 C 
ENDROOT
BRANCH   7   6
ATOM      6  C   UNL     1      -1.895  -3.004   0.000  0.00  0.00    +0.138 C 
BRANCH   6   5
ATOM      1  C   UNL     1      -0.998  -0.242   0.000  0.00  0.00    +0.072 C 
ATOM      2  C   UNL     1      -0.998  -1.067   0.000  0.00  0.00    +0.123 A 
ATOM      3  C   UNL     1      -0.330  -1.552   0.000  0.00  0.00    +0.036 A 
ATOM      4  C   UNL     1      -0.585  -2.337   0.000  0.00  0.00    +0.037 A 
ATOM      5  C   UNL     1      -1.410  -2.337   0.000  0.00  0.00    +0.139 A 
ATOM     25  O   UNL     1      -1.665  -1.552   0.000  0.00  0.00    -0.461 OA
ENDBRANCH   6   5
ENDBRANCH   7   6
BRANCH  12  14
ATOM     14  O   UNL     1      -2.594  -5.691   0.000  0.00  0.00    -0.460 OA
BRANCH  14  15
ATOM     15  C   UNL     1      -3.352  -5.367   0.000  0.00  0.00    +0.225 A 
ATOM     16  C   UNL     1      -4.012  -5.862   0.000  0.00  0.00    +0.058 A 
ATOM     17  C   UNL     1      -4.771  -5.538   0.000  0.00  0.00    +0.010 A 
ATOM     18  C   UNL     1      -4.869  -4.718   0.000  0.00  0.00    +0.091 A 
ATOM     19  C   UNL     1      -4.209  -4.224   0.000  0.00  0.00    +0.106 A 
ATOM     20  N   UNL     1      -3.451  -4.548   0.000  0.00  0.00    -0.210 NA
BRANCH  18  21
ATOM     21  C   UNL     1      -5.628  -4.394   0.000  0.00  0.00    +0.420 C 
ATOM     22  F   UNL     1      -6.387  -4.070   0.000  0.00  0.00    -0.166 F 
ATOM     23  F   UNL     1      -5.304  -3.636   0.000  0.00  0.00    -0.166 F 
ATOM     24  F   UNL     1      -5.952  -5.153   0.000  0.00  0.00    -0.166 F 
ENDBRANCH  18  21
ENDBRANCH  14  15
ENDBRANCH  12  14
TORSDOF 5
