REMARK  Name = 
REMARK  7 active torsions:
REMARK  status: ('A' for Active; 'I' for Inactive)
REMARK    1  A    between atoms: O_2  and  C_3
REMARK    2  A    between atoms: C_5  and  N_6
REMARK    3  A    between atoms: N_9  and  C_10
REMARK    4  A    between atoms: C_16  and  N_19
REMARK    5  A    between atoms: N_19  and  C_21
REMARK    6  A    between atoms: C_21  and  C_22
REMARK    7  A    between atoms: C_22  and  N_23
REMARK                            x       y       z     vdW  Elec       q    Type
REMARK                         _______ _______ _______ _____ _____    ______ ____
ROOT
ATOM     10  C   UNL     1       1.989  -0.542   0.000  0.00  0.00    +0.158 C 
ATOM     11  C   UNL     1       1.060  -0.557   0.000  0.00  0.00    +0.170 C 
ATOM     12  C   UNL     1       0.740  -1.266   0.000  0.00  0.00    +0.176 C 
ATOM     13  O   UNL     1       0.120  -1.643   0.000  0.00  0.00    -0.327 OA
ATOM     14  C   UNL     1       0.640  -0.930   0.000  0.00  0.00    +0.253 C 
ATOM     15  O   UNL     1       0.500  -0.117   0.000  0.00  0.00    -0.327 OA
ATOM     16  C   UNL     1       1.611  -0.930   0.000  0.00  0.00    +0.147 C 
ATOM     17  C   UNL     1       2.127  -1.359   0.000  0.00  0.00    +0.194 C 
ATOM     18  O   UNL     1       2.539  -2.074   0.000  0.00  0.00    -0.220 OA
ENDROOT
BRANCH  10   9
ATOM      6  N   UNL     1       3.616  -0.820   0.000  0.00  0.00    -0.161 NA
ATOM      7  C   UNL     1       3.330  -0.046   0.000  0.00  0.00    +0.344 C 
ATOM      8  O   UNL     1       3.857   0.588   0.000  0.00  0.00    -0.249 OA
ATOM      9  N   UNL     1       2.517   0.093   0.000  0.00  0.00    -0.183 NA
BRANCH   6   5
ATOM      3  C   UNL     1       5.528  -1.873   0.000  0.00  0.00    +0.140 A 
ATOM      4  C   UNL     1       4.715  -1.734   0.000  0.00  0.00    +0.054 A 
ATOM      5  C   UNL     1       4.429  -0.960   0.000  0.00  0.00    +0.078 A 
ATOM     26  C   UNL     1       4.956  -0.325   0.000  0.00  0.00    +0.017 A 
ATOM     27  C   UNL     1       5.769  -0.465   0.000  0.00  0.00    +0.004 A 
ATOM     28  C   UNL     1       6.055  -1.238   0.000  0.00  0.00    +0.037 A 
BRANCH   3   2
ATOM      1  C   UNL     1       6.627  -2.786   0.000  0.00  0.00    +0.252 C 
ATOM      2  O   UNL     1       5.814  -2.647   0.000  0.00  0.00    -0.471 OA
ENDBRANCH   3   2
ENDBRANCH   6   5
ENDBRANCH  10   9
BRANCH  16  19
ATOM     19  N   UNL     1       1.331  -1.706   0.000  0.00  0.00    -0.265 NA
ATOM     20  C   UNL     1       1.863  -2.337   0.000  0.00  0.00    +0.090 C 
BRANCH  19  21
ATOM     21  C   UNL     1       0.519  -1.852   0.000  0.00  0.00    +0.090 C 
BRANCH  21  22
ATOM     22  C   UNL     1       0.239  -2.628   0.000  0.00  0.00    +0.090 C 
BRANCH  22  23
ATOM     23  N   UNL     1      -0.573  -2.773   0.000  0.00  0.00    -0.269 NA
ATOM     24  C   UNL     1      -0.854  -3.549   0.000  0.00  0.00    +0.090 C 
ATOM     25  C   UNL     1      -1.105  -2.142   0.000  0.00  0.00    +0.090 C 
ENDBRANCH  22  23
ENDBRANCH  21  22
ENDBRANCH  19  21
ENDBRANCH  16  19
TORSDOF 7
