REMARK  Name = 
REMARK  6 active torsions:
REMARK  status: ('A' for Active; 'I' for Inactive)
REMARK    1  A    between atoms: O_2  and  C_3
REMARK    2  A    between atoms: C_8  and  C_9
REMARK    3  A    between atoms: C_9  and  C_10
REMARK    4  A    between atoms: C_21  and  N_27
REMARK    5  A    between atoms: C_28  and  C_30
REMARK    6  A    between atoms: C_30  and  S_31
REMARK                            x       y       z     vdW  Elec       q    Type
REMARK                         _______ _______ _______ _____ _____    ______ ____
ROOT
ATOM     10  C   UNL     1       1.037  -2.497   0.000  0.00  0.00    +0.231 C 
ATOM     11  O   UNL     1       1.711  -2.972   0.000  0.00  0.00    -0.274 OA
ATOM     12  N   UNL     1       1.111  -1.675   0.000  0.00  0.00    -0.271 N 
ATOM     13  C   UNL     1       0.489  -1.132   0.000  0.00  0.00    +0.096 C 
ATOM     14  C   UNL     1       0.814  -0.374   0.000  0.00  0.00    +0.045 C 
ATOM     15  C   UNL     1       1.635  -0.448   0.000  0.00  0.00    +0.124 C 
ATOM     16  N   UNL     1       2.150   0.197   0.000  0.00  0.00    -0.204 NA
ATOM     17  C   UNL     1       2.975   0.197   0.000  0.00  0.00    +0.260 C 
ATOM     18  O   UNL     1       3.333   0.941   0.000  0.00  0.00    -0.272 OA
ATOM     19  C   UNL     1       3.489  -0.448   0.000  0.00  0.00    +0.155 C 
ATOM     20  C   UNL     1       4.311  -0.374   0.000  0.00  0.00    +0.053 C 
ATOM     21  C   UNL     1       4.635  -1.132   0.000  0.00  0.00    +0.117 C 
ATOM     22  C   UNL     1       4.014  -1.675   0.000  0.00  0.00    +0.115 C 
ATOM     23  N   UNL     1       3.305  -1.252   0.000  0.00  0.00    -0.270 N 
ATOM     24  C   UNL     1       2.562  -1.610   0.000  0.00  0.00    +0.246 C 
ATOM     25  O   UNL     1       2.562  -2.435   0.000  0.00  0.00    -0.273 OA
ATOM     26  C   UNL     1       1.819  -1.252   0.000  0.00  0.00    +0.172 C 
ENDROOT
BRANCH  21  27
ATOM     27  N   UNL     1       5.439  -1.316   0.000  0.00  0.00    -0.205 NA
ATOM     28  C   UNL     1       5.682  -2.104   0.000  0.00  0.00    +0.252 C 
ATOM     29  O   UNL     1       5.121  -2.709   0.000  0.00  0.00    -0.272 OA
BRANCH  28  30
ATOM     30  C   UNL     1       6.487  -2.288   0.000  0.00  0.00    +0.144 C 
BRANCH  30  31
ATOM     31  S   UNL     1       6.730  -3.076   0.000  0.00  0.00    -0.130 S 
ATOM     32  C   UNL     1       7.534  -3.260   0.000  0.00  0.00    +0.070 C 
ENDBRANCH  30  31
ENDBRANCH  28  30
ENDBRANCH  21  27
BRANCH  10   9
ATOM      9  C   UNL     1       0.288  -2.844   0.000  0.00  0.00    +0.115 C 
BRANCH   9   8
ATOM      3  C   UNL     1       0.889  -4.140   0.000  0.00  0.00    +0.135 A 
ATOM      4  C   UNL     1       0.815  -4.962   0.000  0.00  0.00    +0.037 A 
ATOM      5  C   UNL     1       0.066  -5.309   0.000  0.00  0.00    +0.003 A 
ATOM      6  C   UNL     1      -0.608  -4.834   0.000  0.00  0.00    -0.000 A 
ATOM      7  C   UNL     1      -0.534  -4.012   0.000  0.00  0.00    -0.001 A 
ATOM      8  C   UNL     1       0.214  -3.665   0.000  0.00  0.00    +0.021 A 
BRANCH   3   2
ATOM      1  C   UNL     1       2.312  -4.268   0.000  0.00  0.00    +0.252 C 
ATOM      2  O   UNL     1       1.637  -3.793   0.000  0.00  0.00    -0.472 OA
ENDBRANCH   3   2
ENDBRANCH   9   8
ENDBRANCH  10   9
TORSDOF 6
