REMARK  Name = 
REMARK  4 active torsions:
REMARK  status: ('A' for Active; 'I' for Inactive)
REMARK    1  A    between atoms: C_2  and  N_3
REMARK    2  A    between atoms: C_4  and  C_6
REMARK    3  A    between atoms: C_6  and  C_7
REMARK    4  A    between atoms: C_20  and  N_28
REMARK                            x       y       z     vdW  Elec       q    Type
REMARK                         _______ _______ _______ _____ _____    ______ ____
ROOT
ATOM      7  C   UNL     1       7.934  -0.162   0.000  0.00  0.00    +0.017 C 
ATOM      8  C   UNL     1       8.157   0.632   0.000  0.00  0.00    +0.022 C 
ATOM      9  C   UNL     1       7.580   1.222   0.000  0.00  0.00    +0.093 C 
ATOM     10  N   UNL     1       6.802   1.092   0.000  0.00  0.00    -0.278 N 
ATOM     11  C   UNL     1       6.558   0.223   0.000  0.00  0.00    +0.098 C 
ATOM     12  C   UNL     1       6.893  -0.532   0.000  0.00  0.00    +0.042 C 
ATOM     13  C   UNL     1       6.278  -1.083   0.000  0.00  0.00    -0.026 C 
ATOM     14  C   UNL     1       5.565  -0.668   0.000  0.00  0.00    +0.016 C 
ATOM     15  C   UNL     1       4.674  -0.816   0.000  0.00  0.00    +0.231 C 
ATOM     16  O   UNL     1       4.435  -0.043   0.000  0.00  0.00    -0.471 OA
ATOM     17  C   UNL     1       4.380   0.582   0.000  0.00  0.00    +0.136 A 
ATOM     18  C   UNL     1       4.123  -0.202   0.000  0.00  0.00    +0.038 A 
ATOM     19  C   UNL     1       3.316  -0.372   0.000  0.00  0.00    +0.018 A 
ATOM     20  C   UNL     1       2.765   0.243   0.000  0.00  0.00    +0.048 A 
ATOM     21  C   UNL     1       3.022   1.027   0.000  0.00  0.00    +0.015 A 
ATOM     22  C   UNL     1       3.829   1.197   0.000  0.00  0.00    +0.030 A 
ATOM     23  C   UNL     1       4.085   1.981   0.000  0.00  0.00    +0.119 C 
ATOM     24  N   UNL     1       4.893   2.151   0.000  0.00  0.00    -0.204 NA
ATOM     25  C   UNL     1       5.444   1.536   0.000  0.00  0.00    +0.174 C 
ATOM     26  C   UNL     1       6.251   1.706   0.000  0.00  0.00    +0.243 C 
ATOM     27  O   UNL     1       6.507   2.490   0.000  0.00  0.00    -0.273 OA
ENDROOT
BRANCH  20  28
ATOM     28  N   UNL     1       1.958   0.073   0.000  0.00  0.00    -0.303 N 
ATOM     29  C   UNL     1       1.701  -0.711   0.000  0.00  0.00    +0.123 C 
ATOM     30  C   UNL     1       0.894  -0.881   0.000  0.00  0.00    +0.164 C 
ATOM     31  O   UNL     1       0.343  -0.267   0.000  0.00  0.00    -0.350 OA
ATOM     32  C   UNL     1       0.600   0.517   0.000  0.00  0.00    +0.164 C 
ATOM     33  C   UNL     1       1.407   0.687   0.000  0.00  0.00    +0.123 C 
ENDBRANCH  20  28
BRANCH   7   6
ATOM      6  C   UNL     1       8.537  -0.726   0.000  0.00  0.00    +0.087 C 
BRANCH   6   4
ATOM      3  N   UNL     1       9.929  -1.048   0.000  0.00  0.00    -0.205 NA
ATOM      4  C   UNL     1       9.327  -0.485   0.000  0.00  0.00    +0.241 C 
ATOM      5  O   UNL     1       9.513   0.319   0.000  0.00  0.00    -0.273 OA
BRANCH   3   2
ATOM      1  C   UNL     1      11.321  -1.371   0.000  0.00  0.00    +0.025 C 
ATOM      2  C   UNL     1      10.719  -0.808   0.000  0.00  0.00    +0.115 C 
ENDBRANCH   3   2
ENDBRANCH   6   4
ENDBRANCH   7   6
TORSDOF 4
