REMARK  Name = 
REMARK  5 active torsions:
REMARK  status: ('A' for Active; 'I' for Inactive)
REMARK    1  A    between atoms: C_5  and  S_8
REMARK    2  A    between atoms: S_8  and  N_11
REMARK    3  A    between atoms: C_16  and  C_17
REMARK    4  A    between atoms: N_19  and  C_20
REMARK    5  A    between atoms: C_27  and  C_29
REMARK                            x       y       z     vdW  Elec       q    Type
REMARK                         _______ _______ _______ _____ _____    ______ ____
ROOT
ATOM     11  N   UNL     1       5.001  -6.188   0.000  0.00  0.00    -0.145 NA
ATOM     12  C   UNL     1       5.716  -6.600   0.000  0.00  0.00    +0.118 C 
ATOM     13  C   UNL     1       5.716  -7.425   0.000  0.00  0.00    +0.113 C 
ATOM     14  N   UNL     1       5.001  -7.838   0.000  0.00  0.00    -0.273 N 
ATOM     15  C   UNL     1       4.287  -7.425   0.000  0.00  0.00    +0.121 C 
ATOM     16  C   UNL     1       4.287  -6.600   0.000  0.00  0.00    +0.177 C 
ATOM     27  C   UNL     1       5.001  -8.662   0.000  0.00  0.00    +0.249 C 
ATOM     28  O   UNL     1       5.716  -9.075   0.000  0.00  0.00    -0.270 OA
ENDROOT
BRANCH  27  29
ATOM     29  C   UNL     1       4.287  -9.075   0.000  0.00  0.00    +0.056 A 
ATOM     30  C   UNL     1       4.287  -9.900   0.000  0.00  0.00    +0.005 A 
ATOM     31  C   UNL     1       3.572 -10.312   0.000  0.00  0.00    +0.002 A 
ATOM     32  C   UNL     1       2.858  -9.900   0.000  0.00  0.00    +0.030 A 
ATOM     33  C   UNL     1       2.858  -9.075   0.000  0.00  0.00    +0.140 A 
ATOM     34  F   UNL     1       2.143  -8.662   0.000  0.00  0.00    -0.204 F 
ATOM     35  C   UNL     1       3.572  -8.662   0.000  0.00  0.00    +0.034 A 
ENDBRANCH  27  29
BRANCH  11   8
ATOM      8  S   UNL     1       5.001  -5.362   0.000  0.00  0.00    +0.064 S 
ATOM      9  O   UNL     1       4.176  -5.362   0.000  0.00  0.00    -0.153 OA
ATOM     10  O   UNL     1       5.826  -5.362   0.000  0.00  0.00    -0.153 OA
BRANCH   8   5
ATOM      1  F   UNL     1       5.001  -2.062   0.000  0.00  0.00    -0.204 F 
ATOM      2  C   UNL     1       5.001  -2.888   0.000  0.00  0.00    +0.140 A 
ATOM      3  C   UNL     1       5.716  -3.300   0.000  0.00  0.00    +0.031 A 
ATOM      4  C   UNL     1       5.716  -4.125   0.000  0.00  0.00    +0.022 A 
ATOM      5  C   UNL     1       5.001  -4.537   0.000  0.00  0.00    +0.122 A 
ATOM      6  C   UNL     1       4.287  -4.125   0.000  0.00  0.00    +0.022 A 
ATOM      7  C   UNL     1       4.287  -3.300   0.000  0.00  0.00    +0.031 A 
ENDBRANCH   8   5
ENDBRANCH  11   8
BRANCH  16  17
ATOM     17  C   UNL     1       3.572  -6.188   0.000  0.00  0.00    +0.260 C 
ATOM     18  O   UNL     1       3.572  -5.362   0.000  0.00  0.00    -0.272 OA
ATOM     19  N   UNL     1       2.858  -6.600   0.000  0.00  0.00    -0.197 NA
BRANCH  19  20
ATOM     20  C   UNL     1       2.143  -6.188   0.000  0.00  0.00    +0.173 C 
ATOM     21  C   UNL     1       1.429  -6.600   0.000  0.00  0.00    +0.033 C 
ATOM     22  C   UNL     1       0.715  -6.188   0.000  0.00  0.00    +0.026 C 
ATOM     23  C   UNL     1       0.715  -5.362   0.000  0.00  0.00    +0.115 C 
ATOM     24  N   UNL     1       1.429  -4.950   0.000  0.00  0.00    -0.204 NA
ATOM     25  C   UNL     1       2.143  -5.362   0.000  0.00  0.00    +0.261 C 
ATOM     26  O   UNL     1       2.858  -4.950   0.000  0.00  0.00    -0.271 OA
ENDBRANCH  19  20
ENDBRANCH  16  17
TORSDOF 5
