REMARK  Name = 
REMARK  6 active torsions:
REMARK  status: ('A' for Active; 'I' for Inactive)
REMARK    1  A    between atoms: N_2  and  C_4
REMARK    2  A    between atoms: C_4  and  C_5
REMARK    3  A    between atoms: C_5  and  N_6
REMARK    4  A    between atoms: N_6  and  C_8
REMARK    5  A    between atoms: C_21  and  C_22
REMARK    6  A    between atoms: C_22  and  C_23
REMARK                            x       y       z     vdW  Elec       q    Type
REMARK                         _______ _______ _______ _____ _____    ______ ____
ROOT
ATOM      8  C   UNL     1      -0.693  -1.392   0.000  0.00  0.00    +0.048 A 
ATOM      9  C   UNL     1       0.021  -1.805   0.000  0.00  0.00    +0.015 A 
ATOM     10  C   UNL     1       0.736  -1.392   0.000  0.00  0.00    +0.030 A 
ATOM     11  C   UNL     1       0.736  -0.567   0.000  0.00  0.00    +0.136 A 
ATOM     12  O   UNL     1       0.211   0.147   0.000  0.00  0.00    -0.476 OA
ATOM     13  C   UNL     1       0.654   0.843   0.000  0.00  0.00    +0.205 C 
ATOM     14  C   UNL     1       1.453   0.637   0.000  0.00  0.00    +0.047 C 
ATOM     15  C   UNL     1       2.271   1.018   0.000  0.00  0.00    +0.006 C 
ATOM     16  C   UNL     1       2.967   0.575   0.000  0.00  0.00    +0.021 C 
ATOM     17  C   UNL     1       2.931  -0.249   0.000  0.00  0.00    +0.093 C 
ATOM     18  N   UNL     1       3.627  -0.692   0.000  0.00  0.00    -0.278 N 
ATOM     19  C   UNL     1       4.359  -0.311   0.000  0.00  0.00    +0.093 C 
ATOM     20  C   UNL     1       4.394   0.513   0.000  0.00  0.00    +0.022 C 
ATOM     21  C   UNL     1       3.698   0.956   0.000  0.00  0.00    +0.015 C 
ATOM     26  C   UNL     1       3.591  -1.516   0.000  0.00  0.00    +0.243 C 
ATOM     27  O   UNL     1       4.287  -1.959   0.000  0.00  0.00    -0.273 OA
ATOM     28  C   UNL     1       2.859  -1.897   0.000  0.00  0.00    +0.174 C 
ATOM     29  N   UNL     1       2.163  -1.454   0.000  0.00  0.00    -0.204 NA
ATOM     30  C   UNL     1       1.432  -1.835   0.000  0.00  0.00    +0.119 C 
ATOM     31  C   UNL     1       0.021  -0.155   0.000  0.00  0.00    +0.038 A 
ATOM     32  C   UNL     1      -0.693  -0.567   0.000  0.00  0.00    +0.018 A 
ENDROOT
BRANCH   8   6
ATOM      6  N   UNL     1      -1.408  -1.805   0.000  0.00  0.00    -0.304 N 
ATOM      7  C   UNL     1      -1.408  -2.630   0.000  0.00  0.00    +0.112 C 
BRANCH   6   5
ATOM      5  C   UNL     1      -2.122  -1.392   0.000  0.00  0.00    +0.108 C 
BRANCH   5   4
ATOM      4  C   UNL     1      -2.837  -1.805   0.000  0.00  0.00    +0.094 C 
BRANCH   4   2
ATOM      1  C   UNL     1      -4.266  -1.805   0.000  0.00  0.00    +0.090 C 
ATOM      2  N   UNL     1      -3.551  -1.392   0.000  0.00  0.00    -0.269 NA
ATOM      3  C   UNL     1      -3.551  -0.567   0.000  0.00  0.00    +0.090 C 
ENDBRANCH   4   2
ENDBRANCH   5   4
ENDBRANCH   6   5
ENDBRANCH   8   6
BRANCH  21  22
ATOM     22  C   UNL     1       3.734   1.781   0.000  0.00  0.00    +0.114 C 
BRANCH  22  23
ATOM     23  C   UNL     1       4.466   2.162   0.000  0.00  0.00    +0.365 C 
ATOM     24  O   UNL     1       5.162   1.719   0.000  0.00  0.00    -0.246 OA
ATOM     25  O   UNL     1       4.502   2.986   0.000  0.00  0.00    -0.246 OA
ENDBRANCH  22  23
ENDBRANCH  21  22
TORSDOF 6
