REMARK  Name = 
REMARK  9 active torsions:
REMARK  status: ('A' for Active; 'I' for Inactive)
REMARK    1  A    between atoms: C_2  and  C_3
REMARK    2  A    between atoms: C_3  and  C_4
REMARK    3  A    between atoms: C_3  and  C_6
REMARK    4  A    between atoms: N_8  and  C_9
REMARK    5  A    between atoms: C_9  and  C_10
REMARK    6  A    between atoms: C_12  and  C_13
REMARK    7  A    between atoms: C_13  and  C_14
REMARK    8  A    between atoms: N_16  and  C_17
REMARK    9  A    between atoms: C_17  and  C_18
REMARK                            x       y       z     vdW  Elec       q    Type
REMARK                         _______ _______ _______ _____ _____    ______ ____
ROOT
ATOM     10  C   UNL     1       5.140  -8.625   0.000  0.00  0.00    +0.170 C 
ATOM     11  O   UNL     1       5.961  -8.711   0.000  0.00  0.00    -0.351 OA
ATOM     12  C   UNL     1       6.132  -9.518   0.000  0.00  0.00    +0.157 C 
ATOM     25  C   UNL     1       5.418  -9.931   0.000  0.00  0.00    +0.212 C 
ATOM     26  O   UNL     1       5.332 -10.751   0.000  0.00  0.00    -0.218 OA
ATOM     27  C   UNL     1       4.805  -9.379   0.000  0.00  0.00    +0.213 C 
ATOM     28  O   UNL     1       3.998  -9.550   0.000  0.00  0.00    -0.218 OA
ENDROOT
BRANCH  10   9
ATOM      9  C   UNL     1       4.728  -7.910   0.000  0.00  0.00    +0.147 C 
BRANCH   9   8
ATOM      6  C   UNL     1       3.490  -7.196   0.000  0.00  0.00    +0.241 C 
ATOM      7  O   UNL     1       3.903  -6.482   0.000  0.00  0.00    -0.273 OA
ATOM      8  N   UNL     1       3.903  -7.910   0.000  0.00  0.00    -0.203 NA
BRANCH   6   3
ATOM      3  C   UNL     1       2.665  -7.196   0.000  0.00  0.00    +0.078 C 
BRANCH   3   2
ATOM      1  C   UNL     1       1.428  -6.482   0.000  0.00  0.00    +0.001 C 
ATOM      2  C   UNL     1       2.253  -6.482   0.000  0.00  0.00    +0.009 C 
ENDBRANCH   3   2
BRANCH   3   4
ATOM      4  C   UNL     1       2.253  -7.910   0.000  0.00  0.00    +0.009 C 
ATOM      5  C   UNL     1       1.428  -7.910   0.000  0.00  0.00    +0.001 C 
ENDBRANCH   3   4
ENDBRANCH   6   3
ENDBRANCH   9   8
ENDBRANCH  10   9
BRANCH  12  13
ATOM     13  C   UNL     1       6.886  -9.854   0.000  0.00  0.00    +0.119 C 
BRANCH  13  14
ATOM     14  C   UNL     1       7.553  -9.369   0.000  0.00  0.00    +0.244 C 
ATOM     15  O   UNL     1       7.467  -8.548   0.000  0.00  0.00    -0.273 OA
ATOM     16  N   UNL     1       8.307  -9.704   0.000  0.00  0.00    -0.200 NA
BRANCH  16  17
ATOM     17  C   UNL     1       8.974  -9.220   0.000  0.00  0.00    +0.141 C 
BRANCH  17  18
ATOM     18  C   UNL     1       9.728  -9.555   0.000  0.00  0.00    -0.000 A 
ATOM     19  C   UNL     1      10.396  -9.070   0.000  0.00  0.00    -0.000 A 
ATOM     20  C   UNL     1      11.149  -9.406   0.000  0.00  0.00    +0.029 A 
ATOM     21  C   UNL     1      11.235 -10.226   0.000  0.00  0.00    +0.140 A 
ATOM     22  F   UNL     1      11.989 -10.562   0.000  0.00  0.00    -0.204 F 
ATOM     23  C   UNL     1      10.568 -10.711   0.000  0.00  0.00    +0.029 A 
ATOM     24  C   UNL     1       9.814 -10.376   0.000  0.00  0.00    -0.000 A 
ENDBRANCH  17  18
ENDBRANCH  16  17
ENDBRANCH  13  14
ENDBRANCH  12  13
TORSDOF 9
