REMARK  Name = 
REMARK  4 active torsions:
REMARK  status: ('A' for Active; 'I' for Inactive)
REMARK    1  A    between atoms: C_2  and  N_3
REMARK    2  A    between atoms: C_8  and  C_9
REMARK    3  A    between atoms: C_16  and  O_18
REMARK    4  A    between atoms: O_18  and  C_19
REMARK                            x       y       z     vdW  Elec       q    Type
REMARK                         _______ _______ _______ _____ _____    ______ ____
ROOT
ATOM      9  C   UNL     1      -2.450  -1.297   0.000  0.00  0.00    +0.267 C 
ATOM     10  O   UNL     1      -2.621  -0.490   0.000  0.00  0.00    -0.268 OA
ATOM     11  N   UNL     1      -3.063  -1.849   0.000  0.00  0.00    -0.268 N 
ATOM     12  C   UNL     1      -2.831  -2.641   0.000  0.00  0.00    +0.126 C 
ATOM     13  C   UNL     1      -3.306  -3.316   0.000  0.00  0.00    +0.164 C 
ATOM     14  O   UNL     1      -4.130  -3.365   0.000  0.00  0.00    -0.348 OA
ATOM     15  C   UNL     1      -4.682  -2.752   0.000  0.00  0.00    +0.187 C 
ATOM     16  C   UNL     1      -4.547  -1.938   0.000  0.00  0.00    +0.215 C 
ATOM     17  C   UNL     1      -3.826  -1.536   0.000  0.00  0.00    +0.140 C 
ENDROOT
BRANCH   9   8
ATOM      3  N   UNL     1      -0.998  -1.067   0.000  0.00  0.00    -0.247 N 
ATOM      4  N   UNL     1      -0.330  -1.552   0.000  0.00  0.00    -0.174 NA
ATOM      5  C   UNL     1      -0.585  -2.337   0.000  0.00  0.00    +0.081 A 
ATOM      6  C   UNL     1      -0.100  -3.004   0.000  0.00  0.00    +0.054 C 
ATOM      7  C   UNL     1      -1.410  -2.337   0.000  0.00  0.00    +0.040 A 
ATOM      8  C   UNL     1      -1.665  -1.552   0.000  0.00  0.00    +0.132 A 
BRANCH   3   2
ATOM      1  C   UNL     1      -0.283   0.171   0.000  0.00  0.00    +0.028 C 
ATOM      2  C   UNL     1      -0.998  -0.242   0.000  0.00  0.00    +0.128 C 
ENDBRANCH   3   2
ENDBRANCH   9   8
BRANCH  16  18
ATOM     18  O   UNL     1      -5.221  -1.463   0.000  0.00  0.00    -0.473 OA
BRANCH  18  19
ATOM     19  C   UNL     1      -5.147  -0.641   0.000  0.00  0.00    +0.158 A 
ATOM     20  C   UNL     1      -5.822  -0.166   0.000  0.00  0.00    +0.040 A 
ATOM     21  C   UNL     1      -5.748   0.655   0.000  0.00  0.00    +0.024 A 
ATOM     22  C   UNL     1      -4.999   1.002   0.000  0.00  0.00    +0.099 A 
ATOM     23  N   UNL     1      -4.325   0.527   0.000  0.00  0.00    -0.239 NA
ATOM     24  C   UNL     1      -4.399  -0.294   0.000  0.00  0.00    +0.136 A 
ENDBRANCH  18  19
ENDBRANCH  16  18
TORSDOF 4
