REMARK  Name = 
REMARK  9 active torsions:
REMARK  status: ('A' for Active; 'I' for Inactive)
REMARK    1  A    between atoms: C_2  and  C_4
REMARK    2  A    between atoms: C_6  and  C_7
REMARK    3  A    between atoms: C_7  and  C_8
REMARK    4  A    between atoms: C_11  and  C_13
REMARK    5  A    between atoms: C_16  and  N_19
REMARK    6  A    between atoms: C_25  and  C_26
REMARK    7  A    between atoms: C_26  and  N_27
REMARK    8  A    between atoms: N_27  and  C_28
REMARK    9  A    between atoms: C_28  and  C_29
REMARK                            x       y       z     vdW  Elec       q    Type
REMARK                         _______ _______ _______ _____ _____    ______ ____
ROOT
ATOM      4  C   UNL     1       7.753  -1.422   0.000  0.00  0.00    +0.006 C 
ATOM      5  C   UNL     1       7.038  -1.835   0.000  0.00  0.00    +0.005 C 
ATOM      6  C   UNL     1       6.324  -1.422   0.000  0.00  0.00    +0.027 C 
ATOM     22  C   UNL     1       6.324  -0.597   0.000  0.00  0.00    -0.048 C 
ATOM     23  C   UNL     1       5.609  -0.185   0.000  0.00  0.00    +0.026 C 
ATOM     24  C   UNL     1       7.038  -0.185   0.000  0.00  0.00    -0.033 C 
ATOM     25  C   UNL     1       7.753  -0.597   0.000  0.00  0.00    +0.039 C 
ENDROOT
BRANCH   4   2
ATOM      1  C   UNL     1       9.181  -1.422   0.000  0.00  0.00    +0.000 C 
ATOM      2  C   UNL     1       8.467  -1.835   0.000  0.00  0.00    +0.000 C 
ATOM      3  C   UNL     1       8.467  -2.660   0.000  0.00  0.00    +0.000 C 
ENDBRANCH   4   2
BRANCH   6   7
ATOM      7  C   UNL     1       5.609  -1.835   0.000  0.00  0.00    +0.091 C 
BRANCH   7   8
ATOM      8  C   UNL     1       5.609  -2.660   0.000  0.00  0.00    +0.227 A 
ATOM      9  N   UNL     1       6.277  -3.145   0.000  0.00  0.00    -0.111 NA
ATOM     10  N   UNL     1       6.022  -3.929   0.000  0.00  0.00    -0.107 NA
ATOM     11  C   UNL     1       5.197  -3.929   0.000  0.00  0.00    +0.250 A 
ATOM     12  O   UNL     1       4.942  -3.145   0.000  0.00  0.00    -0.420 OA
BRANCH  11  13
ATOM     13  C   UNL     1       4.712  -4.597   0.000  0.00  0.00    +0.055 A 
ATOM     14  C   UNL     1       5.047  -5.351   0.000  0.00  0.00    +0.006 A 
ATOM     15  C   UNL     1       4.562  -6.018   0.000  0.00  0.00    +0.015 A 
ATOM     16  C   UNL     1       3.742  -5.932   0.000  0.00  0.00    +0.048 A 
ATOM     17  C   UNL     1       3.406  -5.178   0.000  0.00  0.00    +0.015 A 
ATOM     18  C   UNL     1       3.891  -4.511   0.000  0.00  0.00    +0.006 A 
BRANCH  16  19
ATOM     19  N   UNL     1       3.257  -6.599   0.000  0.00  0.00    -0.304 N 
ATOM     20  C   UNL     1       2.436  -6.513   0.000  0.00  0.00    +0.112 C 
ATOM     21  C   UNL     1       3.592  -7.353   0.000  0.00  0.00    +0.112 C 
ENDBRANCH  16  19
ENDBRANCH  11  13
ENDBRANCH   7   8
ENDBRANCH   6   7
BRANCH  25  26
ATOM     26  C   UNL     1       8.467  -0.185   0.000  0.00  0.00    +0.093 C 
BRANCH  26  27
ATOM     27  N   UNL     1       9.181  -0.597   0.000  0.00  0.00    -0.213 NA
BRANCH  27  28
ATOM     28  C   UNL     1       9.896  -0.185   0.000  0.00  0.00    +0.117 C 
BRANCH  28  29
ATOM     29  C   UNL     1      10.610  -0.597   0.000  0.00  0.00    +0.014 A 
ATOM     30  C   UNL     1      11.325  -0.185   0.000  0.00  0.00    +0.000 A 
ATOM     31  C   UNL     1      12.039  -0.597   0.000  0.00  0.00    +0.020 A 
ATOM     32  C   UNL     1      12.039  -1.422   0.000  0.00  0.00    +0.099 A 
ATOM     33  N   UNL     1      11.325  -1.835   0.000  0.00  0.00    -0.243 NA
ATOM     34  C   UNL     1      10.610  -1.422   0.000  0.00  0.00    +0.096 A 
ENDBRANCH  28  29
ENDBRANCH  27  28
ENDBRANCH  26  27
ENDBRANCH  25  26
TORSDOF 9
