REMARK  Name = 
REMARK  6 active torsions:
REMARK  status: ('A' for Active; 'I' for Inactive)
REMARK    1  A    between atoms: C_2  and  C_3
REMARK    2  A    between atoms: C_4  and  C_16
REMARK    3  A    between atoms: N_9  and  C_10
REMARK    4  A    between atoms: C_19  and  N_20
REMARK    5  A    between atoms: C_21  and  C_23
REMARK    6  A    between atoms: C_26  and  C_29
REMARK                            x       y       z     vdW  Elec       q    Type
REMARK                         _______ _______ _______ _____ _____    ______ ____
ROOT
ATOM     16  C   UNL     1       2.858  -4.950   0.000  0.00  0.00    +0.006 A 
ATOM     17  C   UNL     1       2.858  -4.125   0.000  0.00  0.00    -0.001 A 
ATOM     18  C   UNL     1       3.572  -3.712   0.000  0.00  0.00    +0.016 A 
ATOM     19  C   UNL     1       4.287  -4.125   0.000  0.00  0.00    +0.074 A 
ATOM     31  C   UNL     1       4.287  -4.950   0.000  0.00  0.00    +0.016 A 
ATOM     32  C   UNL     1       3.572  -5.362   0.000  0.00  0.00    -0.001 A 
ENDROOT
BRANCH  16   4
ATOM      3  C   UNL     1       1.429  -4.950   0.000  0.00  0.00    +0.139 C 
ATOM      4  C   UNL     1       2.143  -5.362   0.000  0.00  0.00    +0.159 C 
ATOM      5  O   UNL     1       2.143  -6.188   0.000  0.00  0.00    -0.341 OA
ATOM      6  C   UNL     1       1.429  -6.600   0.000  0.00  0.00    +0.227 C 
ATOM      7  C   UNL     1       0.715  -6.188   0.000  0.00  0.00    +0.256 C 
ATOM      8  O   UNL     1       0.000  -6.600   0.000  0.00  0.00    -0.272 OA
ATOM      9  N   UNL     1       0.715  -5.362   0.000  0.00  0.00    -0.275 N 
BRANCH   9  10
ATOM     10  C   UNL     1       0.000  -4.950   0.000  0.00  0.00    +0.081 C 
ATOM     11  C   UNL     1      -0.715  -5.362   0.000  0.00  0.00    +0.052 C 
ATOM     12  C   UNL     1      -1.429  -4.950   0.000  0.00  0.00    +0.144 C 
ATOM     13  O   UNL     1      -1.429  -4.125   0.000  0.00  0.00    -0.354 OA
ATOM     14  C   UNL     1      -0.715  -3.712   0.000  0.00  0.00    +0.144 C 
ATOM     15  C   UNL     1       0.000  -4.125   0.000  0.00  0.00    +0.052 C 
ENDBRANCH   9  10
BRANCH   3   2
ATOM      1  O   UNL     1       0.715  -3.712   0.000  0.00  0.00    -0.218 OA
ATOM      2  C   UNL     1       1.429  -4.125   0.000  0.00  0.00    +0.205 C 
ENDBRANCH   3   2
ENDBRANCH  16   4
BRANCH  19  20
ATOM     20  N   UNL     1       5.001  -3.712   0.000  0.00  0.00    -0.175 NA
ATOM     21  C   UNL     1       5.001  -2.888   0.000  0.00  0.00    +0.269 C 
ATOM     22  O   UNL     1       4.287  -2.475   0.000  0.00  0.00    -0.268 OA
BRANCH  21  23
ATOM     23  C   UNL     1       5.716  -2.475   0.000  0.00  0.00    +0.055 A 
ATOM     24  C   UNL     1       5.716  -1.650   0.000  0.00  0.00    +0.005 A 
ATOM     25  C   UNL     1       6.430  -1.238   0.000  0.00  0.00    +0.010 A 
ATOM     26  C   UNL     1       7.145  -1.650   0.000  0.00  0.00    +0.068 A 
ATOM     27  C   UNL     1       7.145  -2.475   0.000  0.00  0.00    +0.010 A 
ATOM     28  C   UNL     1       6.430  -2.888   0.000  0.00  0.00    +0.005 A 
BRANCH  26  29
ATOM     29  C   UNL     1       7.859  -1.238   0.000  0.00  0.00    +0.100 C 
ATOM     30  N   UNL     1       8.574  -0.825   0.000  0.00  0.00    -0.191 NA
ENDBRANCH  26  29
ENDBRANCH  21  23
ENDBRANCH  19  20
TORSDOF 6
