REMARK  Name = 
REMARK  6 active torsions:
REMARK  status: ('A' for Active; 'I' for Inactive)
REMARK    1  A    between atoms: C_2  and  C_4
REMARK    2  A    between atoms: C_4  and  N_5
REMARK    3  A    between atoms: C_6  and  C_12
REMARK    4  A    between atoms: C_12  and  C_14
REMARK    5  A    between atoms: C_17  and  N_18
REMARK    6  A    between atoms: C_19  and  C_21
REMARK                            x       y       z     vdW  Elec       q    Type
REMARK                         _______ _______ _______ _____ _____    ______ ____
ROOT
ATOM     14  C   UNL     1      -0.715   8.416   0.000  0.00  0.00    +0.010 A 
ATOM     15  C   UNL     1       0.000   8.004   0.000  0.00  0.00    -0.000 A 
ATOM     16  C   UNL     1       0.000   7.179   0.000  0.00  0.00    +0.016 A 
ATOM     17  C   UNL     1      -0.715   6.766   0.000  0.00  0.00    +0.074 A 
ATOM     26  C   UNL     1      -1.429   7.179   0.000  0.00  0.00    +0.016 A 
ATOM     27  C   UNL     1      -1.429   8.004   0.000  0.00  0.00    -0.000 A 
ENDROOT
BRANCH  17  18
ATOM     18  N   UNL     1      -0.715   5.941   0.000  0.00  0.00    -0.175 NA
ATOM     19  C   UNL     1       0.000   5.529   0.000  0.00  0.00    +0.275 C 
ATOM     20  O   UNL     1       0.715   5.941   0.000  0.00  0.00    -0.267 OA
BRANCH  19  21
ATOM     21  C   UNL     1       0.000   4.704   0.000  0.00  0.00    +0.085 A 
ATOM     22  C   UNL     1       0.667   4.219   0.000  0.00  0.00    +0.012 A 
ATOM     23  C   UNL     1       0.412   3.434   0.000  0.00  0.00    +0.008 A 
ATOM     24  C   UNL     1      -0.412   3.434   0.000  0.00  0.00    +0.036 A 
ATOM     25  S   UNL     1      -0.667   4.219   0.000  0.00  0.00    -0.082 S 
ENDBRANCH  19  21
ENDBRANCH  17  18
BRANCH  14  12
ATOM     12  C   UNL     1      -0.715   9.241   0.000  0.00  0.00    +0.195 C 
ATOM     13  O   UNL     1       0.000   9.654   0.000  0.00  0.00    -0.216 OA
BRANCH  12   6
ATOM      5  N   UNL     1      -1.429  10.479   0.000  0.00  0.00    -0.274 N 
ATOM      6  C   UNL     1      -1.429   9.654   0.000  0.00  0.00    +0.139 C 
ATOM      7  C   UNL     1      -2.143   9.241   0.000  0.00  0.00    +0.165 C 
ATOM      8  O   UNL     1      -2.858   9.654   0.000  0.00  0.00    -0.343 OA
ATOM      9  C   UNL     1      -2.858  10.479   0.000  0.00  0.00    +0.227 C 
ATOM     10  C   UNL     1      -2.143  10.891   0.000  0.00  0.00    +0.256 C 
ATOM     11  O   UNL     1      -2.143  11.716   0.000  0.00  0.00    -0.272 OA
BRANCH   5   4
ATOM      4  C   UNL     1      -0.715  10.891   0.000  0.00  0.00    +0.094 C 
BRANCH   4   2
ATOM      1  C   UNL     1       0.000  12.129   0.000  0.00  0.00    +0.002 C 
ATOM      2  C   UNL     1      -0.715  11.716   0.000  0.00  0.00    +0.020 C 
ATOM      3  C   UNL     1      -1.429  12.129   0.000  0.00  0.00    +0.002 C 
ENDBRANCH   4   2
ENDBRANCH   5   4
ENDBRANCH  12   6
ENDBRANCH  14  12
TORSDOF 6
