REMARK  Name = 
REMARK  5 active torsions:
REMARK  status: ('A' for Active; 'I' for Inactive)
REMARK    1  A    between atoms: C_2  and  C_5
REMARK    2  A    between atoms: C_8  and  C_11
REMARK    3  A    between atoms: C_14  and  C_16
REMARK    4  A    between atoms: N_21  and  C_22
REMARK    5  A    between atoms: C_22  and  C_23
REMARK                            x       y       z     vdW  Elec       q    Type
REMARK                         _______ _______ _______ _____ _____    ______ ____
ROOT
ATOM     11  C   UNL     1       0.715  -1.238   0.000  0.00  0.00    +0.102 A 
ATOM     12  C   UNL     1       0.047  -1.722   0.000  0.00  0.00    +0.119 A 
ATOM     13  N   UNL     1       0.302  -2.507   0.000  0.00  0.00    -0.226 NA
ATOM     14  C   UNL     1       1.127  -2.507   0.000  0.00  0.00    +0.156 A 
ATOM     15  N   UNL     1       1.382  -1.722   0.000  0.00  0.00    -0.228 NA
ENDROOT
BRANCH  11   8
ATOM      5  C   UNL     1       0.715   1.238   0.000  0.00  0.00    +0.071 A 
ATOM      6  C   UNL     1       1.429   0.825   0.000  0.00  0.00    +0.004 A 
ATOM      7  C   UNL     1       1.429   0.000   0.000  0.00  0.00    +0.001 A 
ATOM      8  C   UNL     1       0.715  -0.412   0.000  0.00  0.00    +0.019 A 
ATOM      9  C   UNL     1       0.000   0.000   0.000  0.00  0.00    +0.001 A 
ATOM     10  C   UNL     1       0.000   0.825   0.000  0.00  0.00    +0.004 A 
BRANCH   5   2
ATOM      1  F   UNL     1       0.715   2.888   0.000  0.00  0.00    -0.166 F 
ATOM      2  C   UNL     1       0.715   2.062   0.000  0.00  0.00    +0.419 C 
ATOM      3  F   UNL     1      -0.111   2.062   0.000  0.00  0.00    -0.166 F 
ATOM      4  F   UNL     1       1.540   2.062   0.000  0.00  0.00    -0.166 F 
ENDBRANCH   5   2
ENDBRANCH  11   8
BRANCH  14  16
ATOM     16  C   UNL     1       1.612  -3.175   0.000  0.00  0.00    +0.147 C 
ATOM     17  C   UNL     1       2.432  -3.088   0.000  0.00  0.00    +0.166 C 
ATOM     18  O   UNL     1       2.917  -3.756   0.000  0.00  0.00    -0.350 OA
ATOM     19  C   UNL     1       2.582  -4.509   0.000  0.00  0.00    +0.160 C 
ATOM     20  C   UNL     1       1.761  -4.596   0.000  0.00  0.00    +0.105 C 
ATOM     21  N   UNL     1       1.276  -3.928   0.000  0.00  0.00    -0.258 NA
BRANCH  21  22
ATOM     22  C   UNL     1       0.456  -4.014   0.000  0.00  0.00    +0.122 C 
BRANCH  22  23
ATOM     23  C   UNL     1       0.120  -4.768   0.000  0.00  0.00    +0.105 A 
ATOM     24  C   UNL     1       0.533  -5.482   0.000  0.00  0.00    +0.074 A 
ATOM     25  S   UNL     1      -0.019  -6.096   0.000  0.00  0.00    +0.038 S 
ATOM     26  N   UNL     1      -0.773  -5.760   0.000  0.00  0.00    -0.110 NA
ATOM     27  N   UNL     1      -0.687  -4.940   0.000  0.00  0.00    -0.143 NA
ENDBRANCH  22  23
ENDBRANCH  21  22
ENDBRANCH  14  16
TORSDOF 5
