REMARK  Name = 
REMARK  10 active torsions:
REMARK  status: ('A' for Active; 'I' for Inactive)
REMARK    1  A    between atoms: O_2  and  C_3
REMARK    2  A    between atoms: C_6  and  C_9
REMARK    3  A    between atoms: C_12  and  C_13
REMARK    4  A    between atoms: C_13  and  C_14
REMARK    5  A    between atoms: C_16  and  C_17
REMARK    6  A    between atoms: C_20  and  C_21
REMARK    7  A    between atoms: C_21  and  N_22
REMARK    8  A    between atoms: N_22  and  C_24
REMARK    9  A    between atoms: C_24  and  C_25
REMARK   10  A    between atoms: C_25  and  C_26
REMARK                            x       y       z     vdW  Elec       q    Type
REMARK                         _______ _______ _______ _____ _____    ______ ____
ROOT
ATOM     14  C   UNL     1      -1.429   0.825   0.000  0.00  0.00    +0.027 C 
ATOM     15  C   UNL     1      -1.429   1.650   0.000  0.00  0.00    +0.005 C 
ATOM     16  C   UNL     1      -0.715   2.062   0.000  0.00  0.00    +0.006 C 
ATOM     20  C   UNL     1       0.000   1.650   0.000  0.00  0.00    +0.037 C 
ATOM     28  C   UNL     1       0.000   0.825   0.000  0.00  0.00    -0.034 C 
ATOM     29  C   UNL     1      -0.715   0.412   0.000  0.00  0.00    -0.048 C 
ATOM     30  C   UNL     1      -0.715  -0.412   0.000  0.00  0.00    +0.026 C 
ENDROOT
BRANCH  16  17
ATOM     17  C   UNL     1      -0.715   2.888   0.000  0.00  0.00    +0.000 C 
ATOM     18  C   UNL     1       0.000   3.300   0.000  0.00  0.00    +0.000 C 
ATOM     19  C   UNL     1      -1.429   3.300   0.000  0.00  0.00    +0.000 C 
ENDBRANCH  16  17
BRANCH  14  13
ATOM     13  C   UNL     1      -2.143   0.412   0.000  0.00  0.00    +0.091 C 
BRANCH  13  12
ATOM      9  C   UNL     1      -4.164   1.103   0.000  0.00  0.00    +0.250 A 
ATOM     10  N   UNL     1      -3.751   1.817   0.000  0.00  0.00    -0.107 NA
ATOM     11  N   UNL     1      -2.944   1.645   0.000  0.00  0.00    -0.111 NA
ATOM     12  C   UNL     1      -2.858   0.825   0.000  0.00  0.00    +0.227 A 
ATOM     31  O   UNL     1      -3.612   0.489   0.000  0.00  0.00    -0.420 OA
BRANCH   9   6
ATOM      3  C   UNL     1      -6.625   0.844   0.000  0.00  0.00    +0.139 A 
ATOM      4  C   UNL     1      -6.290   1.597   0.000  0.00  0.00    +0.037 A 
ATOM      5  C   UNL     1      -5.469   1.684   0.000  0.00  0.00    +0.008 A 
ATOM      6  C   UNL     1      -4.984   1.016   0.000  0.00  0.00    +0.055 A 
ATOM      7  C   UNL     1      -5.320   0.263   0.000  0.00  0.00    +0.008 A 
ATOM      8  C   UNL     1      -6.140   0.176   0.000  0.00  0.00    +0.037 A 
BRANCH   3   2
ATOM      1  C   UNL     1      -7.781   0.004   0.000  0.00  0.00    +0.252 C 
ATOM      2  O   UNL     1      -7.446   0.758   0.000  0.00  0.00    -0.471 OA
ENDBRANCH   3   2
ENDBRANCH   9   6
ENDBRANCH  13  12
ENDBRANCH  14  13
BRANCH  20  21
ATOM     21  C   UNL     1       0.715   2.062   0.000  0.00  0.00    +0.076 C 
BRANCH  21  22
ATOM     22  N   UNL     1       1.429   1.650   0.000  0.00  0.00    -0.270 NA
ATOM     23  C   UNL     1       1.429   0.825   0.000  0.00  0.00    +0.090 C 
BRANCH  22  24
ATOM     24  C   UNL     1       2.143   2.062   0.000  0.00  0.00    +0.088 C 
BRANCH  24  25
ATOM     25  C   UNL     1       2.858   1.650   0.000  0.00  0.00    +0.123 C 
BRANCH  25  26
ATOM     26  C   UNL     1       3.572   2.062   0.000  0.00  0.00    +0.075 C 
ATOM     27  N   UNL     1       4.287   2.475   0.000  0.00  0.00    -0.196 NA
ENDBRANCH  25  26
ENDBRANCH  24  25
ENDBRANCH  22  24
ENDBRANCH  21  22
ENDBRANCH  20  21
TORSDOF 10
