REMARK  Name = 
REMARK  7 active torsions:
REMARK  status: ('A' for Active; 'I' for Inactive)
REMARK    1  A    between atoms: O_2  and  C_3
REMARK    2  A    between atoms: C_8  and  N_9
REMARK    3  A    between atoms: N_12  and  C_13
REMARK    4  A    between atoms: C_13  and  C_14
REMARK    5  A    between atoms: C_21  and  C_22
REMARK    6  A    between atoms: C_22  and  N_23
REMARK    7  A    between atoms: C_24  and  C_26
REMARK                            x       y       z     vdW  Elec       q    Type
REMARK                         _______ _______ _______ _____ _____    ______ ____
ROOT
ATOM     14  C   UNL     1      -3.059  -1.586   0.000  0.00  0.00    +0.032 C 
ATOM     15  C   UNL     1      -2.801  -0.852   0.000  0.00  0.00    +0.073 C 
ATOM     16  N   UNL     1      -2.334  -1.531   0.000  0.00  0.00    -0.272 NA
ATOM     17  C   UNL     1      -2.983  -2.354   0.000  0.00  0.00    +0.072 C 
ATOM     18  C   UNL     1      -3.081  -3.000   0.000  0.00  0.00    +0.017 C 
ATOM     19  C   UNL     1      -2.592  -2.248   0.000  0.00  0.00    +0.005 C 
ATOM     20  C   UNL     1      -1.721  -2.355   0.000  0.00  0.00    +0.018 C 
ATOM     21  C   UNL     1      -1.429  -1.650   0.000  0.00  0.00    +0.079 C 
ENDROOT
BRANCH  14  13
ATOM     13  C   UNL     1      -3.876  -1.700   0.000  0.00  0.00    +0.074 C 
BRANCH  13  12
ATOM      9  N   UNL     1      -4.806  -3.994   0.000  0.00  0.00    -0.302 N 
ATOM     10  C   UNL     1      -5.313  -3.343   0.000  0.00  0.00    +0.108 C 
ATOM     11  C   UNL     1      -5.003  -2.578   0.000  0.00  0.00    +0.094 C 
ATOM     12  N   UNL     1      -4.186  -2.464   0.000  0.00  0.00    -0.270 NA
ATOM     35  C   UNL     1      -3.679  -3.115   0.000  0.00  0.00    +0.094 C 
ATOM     36  C   UNL     1      -3.989  -3.880   0.000  0.00  0.00    +0.108 C 
BRANCH   9   8
ATOM      3  C   UNL     1      -4.609  -5.409   0.000  0.00  0.00    +0.152 A 
ATOM      4  C   UNL     1      -4.919  -6.173   0.000  0.00  0.00    +0.038 A 
ATOM      5  C   UNL     1      -5.736  -6.287   0.000  0.00  0.00    +0.003 A 
ATOM      6  C   UNL     1      -6.243  -5.636   0.000  0.00  0.00    +0.001 A 
ATOM      7  C   UNL     1      -5.933  -4.872   0.000  0.00  0.00    +0.018 A 
ATOM      8  C   UNL     1      -5.116  -4.758   0.000  0.00  0.00    +0.082 A 
BRANCH   3   2
ATOM      1  C   UNL     1      -3.285  -5.946   0.000  0.00  0.00    +0.253 C 
ATOM      2  O   UNL     1      -3.792  -5.295   0.000  0.00  0.00    -0.470 OA
ENDBRANCH   3   2
ENDBRANCH   9   8
ENDBRANCH  13  12
ENDBRANCH  14  13
BRANCH  21  22
ATOM     22  C   UNL     1      -0.715  -1.238   0.000  0.00  0.00    +0.131 C 
BRANCH  22  23
ATOM     23  N   UNL     1       0.000  -1.650   0.000  0.00  0.00    -0.200 NA
ATOM     24  C   UNL     1       0.715  -1.238   0.000  0.00  0.00    +0.265 C 
ATOM     25  O   UNL     1       1.429  -1.650   0.000  0.00  0.00    -0.268 OA
BRANCH  24  26
ATOM     26  C   UNL     1       0.715  -0.412   0.000  0.00  0.00    +0.058 A 
ATOM     27  C   UNL     1       0.000   0.000   0.000  0.00  0.00    +0.008 A 
ATOM     28  C   UNL     1       0.000   0.825   0.000  0.00  0.00    +0.040 A 
ATOM     29  C   UNL     1       0.715   1.238   0.000  0.00  0.00    +0.176 A 
ATOM     30  O   UNL     1       0.886   2.045   0.000  0.00  0.00    -0.435 OA
ATOM     31  C   UNL     1       1.706   2.131   0.000  0.00  0.00    +0.429 C 
ATOM     32  O   UNL     1       2.042   1.377   0.000  0.00  0.00    -0.435 OA
ATOM     33  C   UNL     1       1.429   0.825   0.000  0.00  0.00    +0.177 A 
ATOM     34  C   UNL     1       1.429   0.000   0.000  0.00  0.00    +0.045 A 
ENDBRANCH  24  26
ENDBRANCH  22  23
ENDBRANCH  21  22
TORSDOF 7
