REMARK  Name = 
REMARK  5 active torsions:
REMARK  status: ('A' for Active; 'I' for Inactive)
REMARK    1  A    between atoms: O_2  and  C_3
REMARK    2  A    between atoms: C_8  and  C_9
REMARK    3  A    between atoms: C_9  and  N_10
REMARK    4  A    between atoms: C_15  and  C_16
REMARK    5  A    between atoms: C_18  and  C_21
REMARK                            x       y       z     vdW  Elec       q    Type
REMARK                         _______ _______ _______ _____ _____    ______ ____
ROOT
ATOM     10  N   UNL     1       6.060   0.854   0.000  0.00  0.00    -0.260 NA
ATOM     11  C   UNL     1       6.728   1.339   0.000  0.00  0.00    +0.106 C 
ATOM     12  C   UNL     1       7.395   0.854   0.000  0.00  0.00    +0.170 C 
ATOM     13  O   UNL     1       8.180   1.109   0.000  0.00  0.00    -0.222 OA
ATOM     14  C   UNL     1       7.140   0.069   0.000  0.00  0.00    +0.060 C 
ATOM     15  C   UNL     1       6.315   0.069   0.000  0.00  0.00    +0.140 C 
ENDROOT
BRANCH  15  16
ATOM     16  C   UNL     1       5.830  -0.599   0.000  0.00  0.00    +0.251 A 
ATOM     17  N   UNL     1       6.085  -1.383   0.000  0.00  0.00    -0.194 NA
ATOM     18  C   UNL     1       5.418  -1.868   0.000  0.00  0.00    +0.180 A 
ATOM     19  N   UNL     1       4.750  -1.383   0.000  0.00  0.00    -0.061 NA
ATOM     20  O   UNL     1       5.005  -0.599   0.000  0.00  0.00    -0.336 OA
BRANCH  18  21
ATOM     21  C   UNL     1       5.418  -2.693   0.000  0.00  0.00    +0.062 C 
ATOM     22  C   UNL     1       5.830  -3.408   0.000  0.00  0.00    +0.008 C 
ATOM     23  C   UNL     1       5.005  -3.408   0.000  0.00  0.00    +0.008 C 
ENDBRANCH  18  21
ENDBRANCH  15  16
BRANCH  10   9
ATOM      9  C   UNL     1       5.276   1.109   0.000  0.00  0.00    +0.103 C 
BRANCH   9   8
ATOM      3  C   UNL     1       4.319   2.171   0.000  0.00  0.00    +0.136 A 
ATOM      4  C   UNL     1       4.148   2.977   0.000  0.00  0.00    +0.037 A 
ATOM      5  C   UNL     1       4.761   3.530   0.000  0.00  0.00    +0.003 A 
ATOM      6  C   UNL     1       5.545   3.275   0.000  0.00  0.00    -0.000 A 
ATOM      7  C   UNL     1       5.717   2.467   0.000  0.00  0.00    +0.000 A 
ATOM      8  C   UNL     1       5.104   1.915   0.000  0.00  0.00    +0.028 A 
BRANCH   3   2
ATOM      1  C   UNL     1       2.922   1.873   0.000  0.00  0.00    +0.252 C 
ATOM      2  O   UNL     1       3.706   1.618   0.000  0.00  0.00    -0.472 OA
ENDBRANCH   3   2
ENDBRANCH   9   8
ENDBRANCH  10   9
TORSDOF 5
