REMARK  Name = 
REMARK  7 active torsions:
REMARK  status: ('A' for Active; 'I' for Inactive)
REMARK    1  A    between atoms: N_6  and  C_7
REMARK    2  A    between atoms: C_7  and  C_8
REMARK    3  A    between atoms: C_12  and  O_13
REMARK    4  A    between atoms: O_13  and  C_14
REMARK    5  A    between atoms: C_24  and  C_25
REMARK    6  A    between atoms: C_25  and  C_26
REMARK    7  A    between atoms: C_26  and  C_27
REMARK                            x       y       z     vdW  Elec       q    Type
REMARK                         _______ _______ _______ _____ _____    ______ ____
ROOT
ATOM      1  C   UNL     1       0.461  -1.319   0.000  0.00  0.00    +0.090 C 
ATOM      2  N   UNL     1       0.645  -0.514   0.000  0.00  0.00    -0.271 NA
ATOM      3  C   UNL     1       0.000   0.000   0.000  0.00  0.00    +0.083 C 
ATOM      4  C   UNL     1      -0.785  -0.255   0.000  0.00  0.00    +0.035 C 
ATOM      5  C   UNL     1      -1.270   0.412   0.000  0.00  0.00    +0.074 C 
ATOM      6  N   UNL     1      -0.785   1.080   0.000  0.00  0.00    -0.262 NA
ATOM     19  C   UNL     1       0.000   0.825   0.000  0.00  0.00    +0.151 C 
ATOM     20  C   UNL     1       0.645   1.339   0.000  0.00  0.00    +0.257 C 
ATOM     21  O   UNL     1       0.461   2.144   0.000  0.00  0.00    -0.272 OA
ATOM     22  N   UNL     1       1.449   1.156   0.000  0.00  0.00    -0.203 NA
ATOM     23  C   UNL     1       1.807   0.412   0.000  0.00  0.00    +0.131 C 
ATOM     24  C   UNL     1       1.449  -0.331   0.000  0.00  0.00    +0.080 C 
ENDROOT
BRANCH   6   7
ATOM      7  C   UNL     1      -1.040   1.865   0.000  0.00  0.00    +0.100 C 
BRANCH   7   8
ATOM      8  C   UNL     1      -1.847   2.036   0.000  0.00  0.00    -0.003 A 
ATOM      9  C   UNL     1      -2.399   1.423   0.000  0.00  0.00    -0.003 A 
ATOM     10  C   UNL     1      -3.205   1.595   0.000  0.00  0.00    +0.003 A 
ATOM     11  C   UNL     1      -3.461   2.379   0.000  0.00  0.00    +0.037 A 
ATOM     12  C   UNL     1      -2.908   2.992   0.000  0.00  0.00    +0.147 A 
ATOM     18  C   UNL     1      -2.102   2.821   0.000  0.00  0.00    +0.034 A 
BRANCH  12  13
ATOM     13  O   UNL     1      -3.163   3.777   0.000  0.00  0.00    -0.404 OA
BRANCH  13  14
ATOM     14  C   UNL     1      -3.970   3.948   0.000  0.00  0.00    +0.575 C 
ATOM     15  F   UNL     1      -4.777   4.120   0.000  0.00  0.00    -0.133 F 
ATOM     16  F   UNL     1      -4.142   3.141   0.000  0.00  0.00    -0.133 F 
ATOM     17  F   UNL     1      -3.799   4.755   0.000  0.00  0.00    -0.133 F 
ENDBRANCH  13  14
ENDBRANCH  12  13
ENDBRANCH   7   8
ENDBRANCH   6   7
BRANCH  24  25
ATOM     25  C   UNL     1       1.964  -0.976   0.000  0.00  0.00    +0.027 C 
BRANCH  25  26
ATOM     26  C   UNL     1       1.662  -1.744   0.000  0.00  0.00    +0.087 C 
BRANCH  26  27
ATOM     27  C   UNL     1       2.177  -2.389   0.000  0.00  0.00    +0.226 C 
ATOM     28  O   UNL     1       2.993  -2.266   0.000  0.00  0.00    -0.275 OA
ATOM     29  N   UNL     1       1.875  -3.157   0.000  0.00  0.00    -0.280 N 
ATOM     30  C   UNL     1       2.319  -3.852   0.000  0.00  0.00    +0.093 C 
ATOM     31  C   UNL     1       1.795  -4.489   0.000  0.00  0.00    +0.023 C 
ATOM     32  C   UNL     1       1.028  -4.188   0.000  0.00  0.00    +0.023 C 
ATOM     33  C   UNL     1       1.077  -3.364   0.000  0.00  0.00    +0.093 C 
ENDBRANCH  26  27
ENDBRANCH  25  26
ENDBRANCH  24  25
TORSDOF 7
