REMARK  Name = 
REMARK  6 active torsions:
REMARK  status: ('A' for Active; 'I' for Inactive)
REMARK    1  A    between atoms: O_2  and  C_3
REMARK    2  A    between atoms: C_6  and  C_7
REMARK    3  A    between atoms: C_7  and  N_8
REMARK    4  A    between atoms: C_17  and  C_18
REMARK    5  A    between atoms: C_18  and  C_19
REMARK    6  A    between atoms: C_19  and  C_20
REMARK                            x       y       z     vdW  Elec       q    Type
REMARK                         _______ _______ _______ _____ _____    ______ ____
ROOT
ATOM      8  N   UNL     1      -0.248  -0.034   0.000  0.00  0.00    -0.262 NA
ATOM      9  C   UNL     1      -0.733  -0.701   0.000  0.00  0.00    +0.074 C 
ATOM     10  C   UNL     1      -0.248  -1.369   0.000  0.00  0.00    +0.035 C 
ATOM     11  C   UNL     1       0.536  -1.114   0.000  0.00  0.00    +0.083 C 
ATOM     12  C   UNL     1       0.536  -0.289   0.000  0.00  0.00    +0.151 C 
ATOM     13  C   UNL     1       1.181   0.226   0.000  0.00  0.00    +0.257 C 
ATOM     14  O   UNL     1       0.998   1.030   0.000  0.00  0.00    -0.272 OA
ATOM     15  N   UNL     1       1.986   0.042   0.000  0.00  0.00    -0.203 NA
ATOM     16  C   UNL     1       2.344  -0.701   0.000  0.00  0.00    +0.131 C 
ATOM     17  C   UNL     1       1.986  -1.444   0.000  0.00  0.00    +0.080 C 
ATOM     28  N   UNL     1       1.181  -1.628   0.000  0.00  0.00    -0.271 NA
ATOM     29  C   UNL     1       0.998  -2.432   0.000  0.00  0.00    +0.090 C 
ENDROOT
BRANCH   8   7
ATOM      7  C   UNL     1      -0.503   0.751   0.000  0.00  0.00    +0.100 C 
BRANCH   7   6
ATOM      3  C   UNL     1      -2.924   1.266   0.000  0.00  0.00    +0.139 A 
ATOM      4  C   UNL     1      -2.372   1.879   0.000  0.00  0.00    +0.037 A 
ATOM      5  C   UNL     1      -1.565   1.707   0.000  0.00  0.00    +0.000 A 
ATOM      6  C   UNL     1      -1.310   0.922   0.000  0.00  0.00    -0.006 A 
ATOM     30  C   UNL     1      -1.862   0.309   0.000  0.00  0.00    +0.000 A 
ATOM     31  C   UNL     1      -2.669   0.481   0.000  0.00  0.00    +0.037 A 
BRANCH   3   2
ATOM      1  C   UNL     1      -4.283   0.824   0.000  0.00  0.00    +0.252 C 
ATOM      2  O   UNL     1      -3.731   1.437   0.000  0.00  0.00    -0.471 OA
ENDBRANCH   3   2
ENDBRANCH   7   6
ENDBRANCH   8   7
BRANCH  17  18
ATOM     18  C   UNL     1       2.500  -2.089   0.000  0.00  0.00    +0.027 C 
BRANCH  18  19
ATOM     19  C   UNL     1       2.199  -2.857   0.000  0.00  0.00    +0.087 C 
BRANCH  19  20
ATOM     20  C   UNL     1       2.713  -3.502   0.000  0.00  0.00    +0.226 C 
ATOM     21  O   UNL     1       2.412  -4.270   0.000  0.00  0.00    -0.275 OA
ATOM     22  N   UNL     1       3.529  -3.379   0.000  0.00  0.00    -0.274 N 
ATOM     23  C   UNL     1       3.830  -2.611   0.000  0.00  0.00    +0.125 C 
ATOM     24  C   UNL     1       4.646  -2.489   0.000  0.00  0.00    +0.164 C 
ATOM     25  O   UNL     1       5.160  -3.134   0.000  0.00  0.00    -0.350 OA
ATOM     26  C   UNL     1       4.859  -3.901   0.000  0.00  0.00    +0.164 C 
ATOM     27  C   UNL     1       4.043  -4.024   0.000  0.00  0.00    +0.125 C 
ENDBRANCH  19  20
ENDBRANCH  18  19
ENDBRANCH  17  18
TORSDOF 6
