REMARK  Name = 
REMARK  6 active torsions:
REMARK  status: ('A' for Active; 'I' for Inactive)
REMARK    1  A    between atoms: N_2  and  C_4
REMARK    2  A    between atoms: C_7  and  C_10
REMARK    3  A    between atoms: N_12  and  C_13
REMARK    4  A    between atoms: C_15  and  C_19
REMARK    5  A    between atoms: C_21  and  C_22
REMARK    6  A    between atoms: C_22  and  C_23
REMARK                            x       y       z     vdW  Elec       q    Type
REMARK                         _______ _______ _______ _____ _____    ______ ____
ROOT
ATOM     13  C   UNL     1       2.943  -3.335   0.000  0.00  0.00    +0.113 C 
ATOM     14  C   UNL     1       3.611  -3.820   0.000  0.00  0.00    +0.049 C 
ATOM     15  C   UNL     1       3.356  -4.605   0.000  0.00  0.00    +0.139 C 
ATOM     16  N   UNL     1       2.531  -4.605   0.000  0.00  0.00    -0.264 NA
ATOM     17  C   UNL     1       2.046  -5.272   0.000  0.00  0.00    +0.090 C 
ATOM     18  C   UNL     1       2.276  -3.820   0.000  0.00  0.00    +0.094 C 
ENDROOT
BRANCH  15  19
ATOM     19  C   UNL     1       3.841  -5.272   0.000  0.00  0.00    +0.251 A 
ATOM     20  N   UNL     1       4.666  -5.272   0.000  0.00  0.00    -0.193 NA
ATOM     21  C   UNL     1       4.920  -6.057   0.000  0.00  0.00    +0.185 A 
ATOM     29  N   UNL     1       4.253  -6.542   0.000  0.00  0.00    -0.060 NA
ATOM     30  O   UNL     1       3.586  -6.057   0.000  0.00  0.00    -0.336 OA
BRANCH  21  22
ATOM     22  C   UNL     1       5.705  -6.312   0.000  0.00  0.00    +0.095 C 
BRANCH  22  23
ATOM     23  C   UNL     1       5.877  -7.119   0.000  0.00  0.00    -0.014 A 
ATOM     24  C   UNL     1       6.661  -7.373   0.000  0.00  0.00    -0.004 A 
ATOM     25  C   UNL     1       6.833  -8.180   0.000  0.00  0.00    -0.000 A 
ATOM     26  C   UNL     1       6.220  -8.732   0.000  0.00  0.00    -0.000 A 
ATOM     27  C   UNL     1       5.435  -8.477   0.000  0.00  0.00    -0.000 A 
ATOM     28  C   UNL     1       5.264  -7.671   0.000  0.00  0.00    -0.004 A 
ENDBRANCH  22  23
ENDBRANCH  21  22
ENDBRANCH  15  19
BRANCH  13  12
ATOM     10  C   UNL     1       2.229  -2.098   0.000  0.00  0.00    +0.265 C 
ATOM     11  O   UNL     1       1.514  -2.510   0.000  0.00  0.00    -0.268 OA
ATOM     12  N   UNL     1       2.943  -2.510   0.000  0.00  0.00    -0.202 NA
BRANCH  10   7
ATOM      4  C   UNL     1       2.229   0.378   0.000  0.00  0.00    +0.048 A 
ATOM      5  C   UNL     1       2.943  -0.035   0.000  0.00  0.00    +0.015 A 
ATOM      6  C   UNL     1       2.943  -0.860   0.000  0.00  0.00    +0.006 A 
ATOM      7  C   UNL     1       2.229  -1.272   0.000  0.00  0.00    +0.055 A 
ATOM      8  C   UNL     1       1.514  -0.860   0.000  0.00  0.00    +0.006 A 
ATOM      9  C   UNL     1       1.514  -0.035   0.000  0.00  0.00    +0.015 A 
BRANCH   4   2
ATOM      1  C   UNL     1       1.514   1.615   0.000  0.00  0.00    +0.112 C 
ATOM      2  N   UNL     1       2.229   1.202   0.000  0.00  0.00    -0.304 N 
ATOM      3  C   UNL     1       2.943   1.615   0.000  0.00  0.00    +0.112 C 
ENDBRANCH   4   2
ENDBRANCH  10   7
ENDBRANCH  13  12
TORSDOF 6
