REMARK  Name = 
REMARK  13 active torsions:
REMARK  status: ('A' for Active; 'I' for Inactive)
REMARK    1  A    between atoms: O_2  and  C_3
REMARK    2  A    between atoms: C_3  and  C_4
REMARK    3  A    between atoms: C_4  and  N_5
REMARK    4  A    between atoms: N_5  and  C_6
REMARK    5  A    between atoms: N_5  and  C_10
REMARK    6  A    between atoms: C_6  and  C_7
REMARK    7  A    between atoms: C_7  and  O_8
REMARK    8  A    between atoms: C_10  and  C_11
REMARK    9  A    between atoms: C_15  and  C_16
REMARK   10  A    between atoms: C_16  and  C_17
REMARK   11  A    between atoms: C_20  and  C_22
REMARK   12  A    between atoms: C_25  and  N_28
REMARK   13  A    between atoms: C_32  and  C_33
REMARK                            x       y       z     vdW  Elec       q    Type
REMARK                         _______ _______ _______ _____ _____    ______ ____
ROOT
ATOM     11  C   UNL     1      -1.627  -2.139   0.000  0.00  0.00    +0.037 C 
ATOM     12  C   UNL     1      -2.341  -2.552   0.000  0.00  0.00    -0.034 C 
ATOM     13  C   UNL     1      -3.056  -2.139   0.000  0.00  0.00    -0.048 C 
ATOM     14  C   UNL     1      -3.770  -2.552   0.000  0.00  0.00    +0.026 C 
ATOM     15  C   UNL     1      -3.056  -1.314   0.000  0.00  0.00    +0.027 C 
ATOM     31  C   UNL     1      -2.341  -0.902   0.000  0.00  0.00    +0.005 C 
ATOM     32  C   UNL     1      -1.627  -1.314   0.000  0.00  0.00    +0.006 C 
ENDROOT
BRANCH  32  33
ATOM     33  C   UNL     1      -0.912  -0.902   0.000  0.00  0.00    +0.000 C 
ATOM     34  C   UNL     1      -0.198  -1.314   0.000  0.00  0.00    +0.000 C 
ATOM     35  C   UNL     1      -0.912  -0.077   0.000  0.00  0.00    +0.000 C 
ENDBRANCH  32  33
BRANCH  11  10
ATOM     10  C   UNL     1      -0.912  -2.552   0.000  0.00  0.00    +0.077 C 
BRANCH  10   5
ATOM      5  N   UNL     1      -0.912  -3.377   0.000  0.00  0.00    -0.268 NA
BRANCH   5   4
ATOM      4  C   UNL     1      -1.627  -3.789   0.000  0.00  0.00    +0.105 C 
BRANCH   4   3
ATOM      3  C   UNL     1      -1.627  -4.614   0.000  0.00  0.00    +0.160 C 
BRANCH   3   2
ATOM      1  C   UNL     1      -2.341  -5.852   0.000  0.00  0.00    +0.174 C 
ATOM      2  O   UNL     1      -2.341  -5.027   0.000  0.00  0.00    -0.350 OA
ENDBRANCH   3   2
ENDBRANCH   4   3
ENDBRANCH   5   4
BRANCH   5   6
ATOM      6  C   UNL     1      -0.198  -3.789   0.000  0.00  0.00    +0.105 C 
BRANCH   6   7
ATOM      7  C   UNL     1      -0.198  -4.614   0.000  0.00  0.00    +0.160 C 
BRANCH   7   8
ATOM      8  O   UNL     1       0.517  -5.027   0.000  0.00  0.00    -0.350 OA
ATOM      9  C   UNL     1       0.517  -5.852   0.000  0.00  0.00    +0.174 C 
ENDBRANCH   7   8
ENDBRANCH   6   7
ENDBRANCH   5   6
ENDBRANCH  10   5
ENDBRANCH  11  10
BRANCH  15  16
ATOM     16  C   UNL     1      -3.770  -0.902   0.000  0.00  0.00    +0.091 C 
BRANCH  16  17
ATOM     17  C   UNL     1      -4.485  -1.314   0.000  0.00  0.00    +0.227 A 
ATOM     18  N   UNL     1      -4.571  -2.135   0.000  0.00  0.00    -0.111 NA
ATOM     19  N   UNL     1      -5.378  -2.306   0.000  0.00  0.00    -0.107 NA
ATOM     20  C   UNL     1      -5.790  -1.592   0.000  0.00  0.00    +0.250 A 
ATOM     21  O   UNL     1      -5.238  -0.979   0.000  0.00  0.00    -0.420 OA
BRANCH  20  22
ATOM     22  C   UNL     1      -6.611  -1.506   0.000  0.00  0.00    +0.055 A 
ATOM     23  C   UNL     1      -7.096  -2.173   0.000  0.00  0.00    +0.006 A 
ATOM     24  C   UNL     1      -7.916  -2.087   0.000  0.00  0.00    +0.024 A 
ATOM     25  C   UNL     1      -8.252  -1.333   0.000  0.00  0.00    +0.143 A 
ATOM     26  C   UNL     1      -7.767  -0.666   0.000  0.00  0.00    +0.024 A 
ATOM     27  C   UNL     1      -6.946  -0.752   0.000  0.00  0.00    +0.006 A 
BRANCH  25  28
ATOM     28  N   UNL     1      -9.072  -1.247   0.000  0.00  0.00    +0.058 N 
ATOM     29  O   UNL     1      -9.557  -1.914   0.000  0.00  0.00    -0.126 OA
ATOM     30  O   UNL     1      -9.408  -0.493   0.000  0.00  0.00    -0.126 OA
ENDBRANCH  25  28
ENDBRANCH  20  22
ENDBRANCH  16  17
ENDBRANCH  15  16
TORSDOF 13
