REMARK  Name = 
REMARK  4 active torsions:
REMARK  status: ('A' for Active; 'I' for Inactive)
REMARK    1  A    between atoms: C_4  and  C_8
REMARK    2  A    between atoms: C_11  and  C_13
REMARK    3  A    between atoms: N_18  and  C_19
REMARK    4  A    between atoms: C_19  and  C_20
REMARK                            x       y       z     vdW  Elec       q    Type
REMARK                         _______ _______ _______ _____ _____    ______ ____
ROOT
ATOM     13  C   UNL     1      -1.819   0.374   0.000  0.00  0.00    +0.140 C 
ATOM     14  C   UNL     1      -2.533   0.786   0.000  0.00  0.00    +0.060 C 
ATOM     15  C   UNL     1      -2.361   1.593   0.000  0.00  0.00    +0.170 C 
ATOM     16  O   UNL     1      -2.913   2.206   0.000  0.00  0.00    -0.222 OA
ATOM     17  C   UNL     1      -1.541   1.679   0.000  0.00  0.00    +0.106 C 
ATOM     18  N   UNL     1      -1.205   0.926   0.000  0.00  0.00    -0.260 NA
ENDROOT
BRANCH  13  11
ATOM      8  C   UNL     1      -1.189  -1.666   0.000  0.00  0.00    +0.203 A 
ATOM      9  N   UNL     1      -2.010  -1.753   0.000  0.00  0.00    -0.056 NA
ATOM     10  O   UNL     1      -2.345  -0.999   0.000  0.00  0.00    -0.336 OA
ATOM     11  C   UNL     1      -1.732  -0.447   0.000  0.00  0.00    +0.251 A 
ATOM     12  N   UNL     1      -1.018  -0.859   0.000  0.00  0.00    -0.190 NA
BRANCH   8   4
ATOM      1  C   UNL     1      -0.595  -4.462   0.000  0.00  0.00    +0.031 C 
ATOM      2  C   UNL     1      -0.340  -3.677   0.000  0.00  0.00    -0.022 A 
ATOM      3  C   UNL     1      -0.892  -3.064   0.000  0.00  0.00    -0.001 A 
ATOM      4  C   UNL     1      -0.637  -2.279   0.000  0.00  0.00    +0.039 A 
ATOM      5  C   UNL     1       0.170  -2.108   0.000  0.00  0.00    +0.003 A 
ATOM      6  C   UNL     1       0.722  -2.721   0.000  0.00  0.00    -0.000 A 
ATOM      7  C   UNL     1       0.467  -3.506   0.000  0.00  0.00    -0.004 A 
ENDBRANCH   8   4
ENDBRANCH  13  11
BRANCH  18  19
ATOM     19  C   UNL     1      -0.398   0.754   0.000  0.00  0.00    +0.101 C 
BRANCH  19  20
ATOM     20  C   UNL     1      -0.143  -0.030   0.000  0.00  0.00    +0.014 A 
ATOM     21  C   UNL     1      -0.628  -0.698   0.000  0.00  0.00    +0.096 A 
ATOM     22  N   UNL     1      -0.143  -1.365   0.000  0.00  0.00    -0.244 NA
ATOM     23  C   UNL     1       0.641  -1.110   0.000  0.00  0.00    +0.081 A 
ATOM     24  C   UNL     1       0.641  -0.285   0.000  0.00  0.00    +0.016 A 
ATOM     25  C   UNL     1       1.356   0.127   0.000  0.00  0.00    +0.001 A 
ATOM     26  C   UNL     1       2.070  -0.285   0.000  0.00  0.00    +0.000 A 
ATOM     27  C   UNL     1       2.070  -1.110   0.000  0.00  0.00    +0.002 A 
ATOM     28  C   UNL     1       1.356  -1.523   0.000  0.00  0.00    +0.019 A 
ENDBRANCH  19  20
ENDBRANCH  18  19
TORSDOF 4
