REMARK  Name = 
REMARK  8 active torsions:
REMARK  status: ('A' for Active; 'I' for Inactive)
REMARK    1  A    between atoms: C_5  and  C_6
REMARK    2  A    between atoms: C_6  and  C_7
REMARK    3  A    between atoms: C_10  and  C_11
REMARK    4  A    between atoms: C_11  and  O_12
REMARK    5  A    between atoms: O_12  and  C_13
REMARK    6  A    between atoms: C_21  and  C_22
REMARK    7  A    between atoms: C_22  and  N_23
REMARK    8  A    between atoms: C_24  and  C_26
REMARK                            x       y       z     vdW  Elec       q    Type
REMARK                         _______ _______ _______ _____ _____    ______ ____
ROOT
ATOM      1  O   UNL     1       7.038  -2.537   0.000  0.00  0.00    -0.220 OA
ATOM      2  C   UNL     1       6.324  -2.949   0.000  0.00  0.00    +0.181 C 
ATOM      3  C   UNL     1       6.324  -3.774   0.000  0.00  0.00    +0.038 C 
ATOM      4  C   UNL     1       5.609  -4.187   0.000  0.00  0.00    +0.033 C 
ATOM      5  C   UNL     1       4.895  -3.774   0.000  0.00  0.00    +0.121 C 
ATOM     20  O   UNL     1       4.895  -2.949   0.000  0.00  0.00    -0.354 OA
ATOM     21  C   UNL     1       5.609  -2.537   0.000  0.00  0.00    +0.167 C 
ENDROOT
BRANCH   5   6
ATOM      6  C   UNL     1       4.180  -4.187   0.000  0.00  0.00    +0.079 C 
BRANCH   6   7
ATOM      7  C   UNL     1       4.180  -5.012   0.000  0.00  0.00    +0.103 A 
ATOM      8  N   UNL     1       4.848  -5.497   0.000  0.00  0.00    -0.082 NA
ATOM      9  O   UNL     1       4.593  -6.281   0.000  0.00  0.00    -0.354 OA
ATOM     10  C   UNL     1       3.768  -6.281   0.000  0.00  0.00    +0.198 A 
ATOM     19  C   UNL     1       3.513  -5.497   0.000  0.00  0.00    +0.057 A 
BRANCH  10  11
ATOM     11  C   UNL     1       3.283  -6.949   0.000  0.00  0.00    +0.272 C 
BRANCH  11  12
ATOM     12  O   UNL     1       3.618  -7.702   0.000  0.00  0.00    -0.467 OA
BRANCH  12  13
ATOM     13  C   UNL     1       3.133  -8.370   0.000  0.00  0.00    +0.139 A 
ATOM     14  C   UNL     1       3.469  -9.123   0.000  0.00  0.00    +0.037 A 
ATOM     15  C   UNL     1       2.984  -9.791   0.000  0.00  0.00    +0.003 A 
ATOM     16  C   UNL     1       2.163  -9.705   0.000  0.00  0.00    +0.000 A 
ATOM     17  C   UNL     1       1.828  -8.951   0.000  0.00  0.00    +0.003 A 
ATOM     18  C   UNL     1       2.313  -8.284   0.000  0.00  0.00    +0.037 A 
ENDBRANCH  12  13
ENDBRANCH  11  12
ENDBRANCH  10  11
ENDBRANCH   6   7
ENDBRANCH   5   6
BRANCH  21  22
ATOM     22  C   UNL     1       5.609  -1.712   0.000  0.00  0.00    +0.147 C 
BRANCH  22  23
ATOM     23  N   UNL     1       6.324  -1.299   0.000  0.00  0.00    -0.199 NA
ATOM     24  C   UNL     1       6.324  -0.474   0.000  0.00  0.00    +0.265 C 
ATOM     25  O   UNL     1       5.609  -0.062   0.000  0.00  0.00    -0.268 OA
BRANCH  24  26
ATOM     26  C   UNL     1       7.038  -0.062   0.000  0.00  0.00    +0.055 A 
ATOM     27  C   UNL     1       7.038   0.763   0.000  0.00  0.00    +0.005 A 
ATOM     28  C   UNL     1       7.753   1.176   0.000  0.00  0.00    +0.000 A 
ATOM     29  C   UNL     1       8.467   0.763   0.000  0.00  0.00    +0.000 A 
ATOM     30  C   UNL     1       8.467  -0.062   0.000  0.00  0.00    +0.000 A 
ATOM     31  C   UNL     1       7.753  -0.474   0.000  0.00  0.00    +0.005 A 
ENDBRANCH  24  26
ENDBRANCH  22  23
ENDBRANCH  21  22
TORSDOF 8
