REMARK  Name = 
REMARK  5 active torsions:
REMARK  status: ('A' for Active; 'I' for Inactive)
REMARK    1  A    between atoms: O_2  and  C_3
REMARK    2  A    between atoms: C_3  and  C_5
REMARK    3  A    between atoms: C_5  and  C_6
REMARK    4  A    between atoms: C_6  and  C_7
REMARK    5  A    between atoms: N_19  and  C_20
REMARK                            x       y       z     vdW  Elec       q    Type
REMARK                         _______ _______ _______ _____ _____    ______ ____
ROOT
ATOM      7  C   UNL     1       1.633  -1.954   0.000  0.00  0.00    +0.080 C 
ATOM      8  C   UNL     1       1.571  -1.131   0.000  0.00  0.00    +0.131 C 
ATOM      9  N   UNL     1       2.176  -0.570   0.000  0.00  0.00    -0.203 NA
ATOM     10  C   UNL     1       2.992  -0.693   0.000  0.00  0.00    +0.261 C 
ATOM     11  O   UNL     1       3.457  -0.011   0.000  0.00  0.00    -0.272 OA
ATOM     12  C   UNL     1       3.404  -1.407   0.000  0.00  0.00    +0.169 C 
ATOM     13  C   UNL     1       3.103  -2.175   0.000  0.00  0.00    +0.087 C 
ATOM     14  C   UNL     1       3.740  -2.699   0.000  0.00  0.00    +0.040 C 
ATOM     15  C   UNL     1       4.435  -2.255   0.000  0.00  0.00    +0.097 C 
ATOM     16  N   UNL     1       4.228  -1.457   0.000  0.00  0.00    -0.255 N 
ATOM     17  C   UNL     1       4.752  -0.819   0.000  0.00  0.00    +0.324 C 
ATOM     18  O   UNL     1       5.566  -0.955   0.000  0.00  0.00    -0.251 OA
ATOM     19  N   UNL     1       4.462  -0.047   0.000  0.00  0.00    -0.190 NA
ATOM     23  N   UNL     1       2.315  -2.418   0.000  0.00  0.00    -0.270 NA
ATOM     24  C   UNL     1       2.192  -3.234   0.000  0.00  0.00    +0.090 C 
ENDROOT
BRANCH  19  20
ATOM     20  C   UNL     1       4.986   0.590   0.000  0.00  0.00    +0.097 C 
ATOM     21  C   UNL     1       4.696   1.363   0.000  0.00  0.00    +0.023 C 
ATOM     22  C   UNL     1       5.800   0.455   0.000  0.00  0.00    +0.023 C 
ENDBRANCH  19  20
BRANCH   7   6
ATOM      6  C   UNL     1       0.918  -2.366   0.000  0.00  0.00    +0.029 C 
BRANCH   6   5
ATOM      5  C   UNL     1       0.204  -1.954   0.000  0.00  0.00    +0.111 C 
BRANCH   5   3
ATOM      3  C   UNL     1      -0.510  -2.366   0.000  0.00  0.00    +0.317 C 
ATOM      4  O   UNL     1      -0.510  -3.191   0.000  0.00  0.00    -0.250 OA
BRANCH   3   2
ATOM      1  C   UNL     1      -1.939  -2.366   0.000  0.00  0.00    +0.256 C 
ATOM      2  O   UNL     1      -1.225  -1.954   0.000  0.00  0.00    -0.444 OA
ENDBRANCH   3   2
ENDBRANCH   5   3
ENDBRANCH   6   5
ENDBRANCH   7   6
TORSDOF 5
