REMARK  Name = 
REMARK  3 active torsions:
REMARK  status: ('A' for Active; 'I' for Inactive)
REMARK    1  A    between atoms: C_7  and  C_8
REMARK    2  A    between atoms: N_10  and  C_11
REMARK    3  A    between atoms: C_17  and  C_18
REMARK                            x       y       z     vdW  Elec       q    Type
REMARK                         _______ _______ _______ _____ _____    ______ ____
ROOT
ATOM     11  C   UNL     1       1.823  -0.014   0.000  0.00  0.00    +0.133 C 
ATOM     12  C   UNL     1       1.156  -0.499   0.000  0.00  0.00    +0.202 C 
ATOM     13  O   UNL     1       1.156  -1.324   0.000  0.00  0.00    -0.219 OA
ATOM     14  C   UNL     1       0.489  -0.014   0.000  0.00  0.00    +0.184 C 
ATOM     15  O   UNL     1      -0.296  -0.269   0.000  0.00  0.00    -0.220 OA
ATOM     16  C   UNL     1       0.744   0.771   0.000  0.00  0.00    +0.042 C 
ATOM     17  C   UNL     1       1.569   0.771   0.000  0.00  0.00    +0.049 C 
ENDROOT
BRANCH  17  18
ATOM     18  C   UNL     1       2.054   1.438   0.000  0.00  0.00    -0.002 A 
ATOM     19  C   UNL     1       1.718   2.192   0.000  0.00  0.00    -0.001 A 
ATOM     20  C   UNL     1       2.203   2.859   0.000  0.00  0.00    +0.020 A 
ATOM     21  C   UNL     1       3.023   2.773   0.000  0.00  0.00    +0.099 A 
ATOM     22  N   UNL     1       3.359   2.019   0.000  0.00  0.00    -0.243 NA
ATOM     23  C   UNL     1       2.874   1.352   0.000  0.00  0.00    +0.095 A 
ENDBRANCH  17  18
BRANCH  11  10
ATOM      8  C   UNL     1       2.780  -1.076   0.000  0.00  0.00    +0.282 C 
ATOM      9  O   UNL     1       2.167  -1.628   0.000  0.00  0.00    -0.267 OA
ATOM     10  N   UNL     1       2.608  -0.269   0.000  0.00  0.00    -0.199 NA
BRANCH   8   7
ATOM      1  C   UNL     1       4.232  -0.021   0.000  0.00  0.00    +0.154 C 
ATOM      2  N   UNL     1       4.232  -0.846   0.000  0.00  0.00    -0.245 N 
ATOM      3  N   UNL     1       4.899  -1.331   0.000  0.00  0.00    -0.173 NA
ATOM      4  C   UNL     1       4.644  -2.115   0.000  0.00  0.00    +0.081 A 
ATOM      5  C   UNL     1       5.129  -2.783   0.000  0.00  0.00    +0.054 C 
ATOM      6  C   UNL     1       3.819  -2.115   0.000  0.00  0.00    +0.040 A 
ATOM      7  C   UNL     1       3.564  -1.331   0.000  0.00  0.00    +0.134 A 
ENDBRANCH   8   7
ENDBRANCH  11  10
TORSDOF 3
