REMARK  Name = 
REMARK  2 active torsions:
REMARK  status: ('A' for Active; 'I' for Inactive)
REMARK    1  A    between atoms: C_13  and  C_16
REMARK    2  A    between atoms: C_18  and  C_22
REMARK                            x       y       z     vdW  Elec       q    Type
REMARK                         _______ _______ _______ _____ _____    ______ ____
ROOT
ATOM      1  N   UNL     1       5.990  -0.208   0.000  0.00  0.00    -0.131 NA
ATOM      2  C   UNL     1       5.559   0.496   0.000  0.00  0.00    +0.121 C 
ATOM      3  C   UNL     1       5.875   1.258   0.000  0.00  0.00    +0.043 C 
ATOM      4  C   UNL     1       5.248   1.794   0.000  0.00  0.00    +0.096 C 
ATOM      5  N   UNL     1       4.544   1.363   0.000  0.00  0.00    -0.268 N 
ATOM      6  C   UNL     1       4.737   0.560   0.000  0.00  0.00    +0.172 C 
ATOM      7  C   UNL     1       4.229  -0.090   0.000  0.00  0.00    +0.265 C 
ATOM      8  O   UNL     1       4.596  -0.829   0.000  0.00  0.00    -0.271 OA
ATOM      9  N   UNL     1       3.405  -0.099   0.000  0.00  0.00    -0.178 NA
ATOM     10  C   UNL     1       2.883   0.540   0.000  0.00  0.00    +0.078 A 
ATOM     11  C   UNL     1       3.058   1.346   0.000  0.00  0.00    +0.069 A 
ATOM     12  C   UNL     1       2.447   1.901   0.000  0.00  0.00    +0.006 A 
ATOM     13  C   UNL     1       1.661   1.649   0.000  0.00  0.00    +0.000 A 
ATOM     14  C   UNL     1       1.486   0.842   0.000  0.00  0.00    +0.001 A 
ATOM     15  C   UNL     1       2.097   0.288   0.000  0.00  0.00    +0.017 A 
ATOM     26  C   UNL     1       3.797   1.712   0.000  0.00  0.00    +0.251 C 
ATOM     27  O   UNL     1       3.788   2.537   0.000  0.00  0.00    -0.270 OA
ENDROOT
BRANCH  13  16
ATOM     16  C   UNL     1       1.050   2.203   0.000  0.00  0.00    -0.000 A 
ATOM     17  C   UNL     1       0.264   1.951   0.000  0.00  0.00    +0.004 A 
ATOM     18  C   UNL     1      -0.347   2.505   0.000  0.00  0.00    +0.071 A 
ATOM     19  C   UNL     1      -0.172   3.312   0.000  0.00  0.00    +0.004 A 
ATOM     20  C   UNL     1       0.614   3.563   0.000  0.00  0.00    -0.000 A 
ATOM     21  C   UNL     1       1.225   3.009   0.000  0.00  0.00    -0.000 A 
BRANCH  18  22
ATOM     22  C   UNL     1      -1.132   2.253   0.000  0.00  0.00    +0.419 C 
ATOM     23  F   UNL     1      -1.918   2.001   0.000  0.00  0.00    -0.166 F 
ATOM     24  F   UNL     1      -1.384   3.039   0.000  0.00  0.00    -0.166 F 
ATOM     25  F   UNL     1      -0.880   1.468   0.000  0.00  0.00    -0.166 F 
ENDBRANCH  18  22
ENDBRANCH  13  16
TORSDOF 2
