REMARK  Name = 
REMARK  7 active torsions:
REMARK  status: ('A' for Active; 'I' for Inactive)
REMARK    1  A    between atoms: C_2  and  C_5
REMARK    2  A    between atoms: C_8  and  C_11
REMARK    3  A    between atoms: C_13  and  C_14
REMARK    4  A    between atoms: C_14  and  C_15
REMARK    5  A    between atoms: C_20  and  C_21
REMARK    6  A    between atoms: C_21  and  C_22
REMARK    7  A    between atoms: N_27  and  C_30
REMARK                            x       y       z     vdW  Elec       q    Type
REMARK                         _______ _______ _______ _____ _____    ______ ____
ROOT
ATOM     15  C   UNL     1       5.898  -6.862   0.000  0.00  0.00    +0.024 C 
ATOM     16  C   UNL     1       6.234  -6.109   0.000  0.00  0.00    +0.089 C 
ATOM     17  N   UNL     1       7.054  -6.022   0.000  0.00  0.00    -0.218 NA
ATOM     18  C   UNL     1       7.539  -6.690   0.000  0.00  0.00    +0.089 C 
ATOM     19  C   UNL     1       7.203  -7.444   0.000  0.00  0.00    +0.019 C 
ATOM     20  C   UNL     1       6.383  -7.530   0.000  0.00  0.00    +0.012 C 
ENDROOT
BRANCH  15  14
ATOM     14  C   UNL     1       5.077  -6.949   0.000  0.00  0.00    +0.051 C 
BRANCH  14  13
ATOM     11  C   UNL     1       4.180  -5.012   0.000  0.00  0.00    +0.177 A 
ATOM     12  C   UNL     1       4.848  -5.497   0.000  0.00  0.00    +0.058 A 
ATOM     13  C   UNL     1       4.593  -6.281   0.000  0.00  0.00    +0.101 A 
ATOM     36  N   UNL     1       3.768  -6.281   0.000  0.00  0.00    -0.081 NA
ATOM     37  O   UNL     1       3.513  -5.497   0.000  0.00  0.00    -0.354 OA
BRANCH  11   8
ATOM      5  C   UNL     1       4.180  -2.537   0.000  0.00  0.00    -0.023 A 
ATOM      6  C   UNL     1       4.895  -2.949   0.000  0.00  0.00    -0.004 A 
ATOM      7  C   UNL     1       4.895  -3.774   0.000  0.00  0.00    +0.003 A 
ATOM      8  C   UNL     1       4.180  -4.187   0.000  0.00  0.00    +0.037 A 
ATOM      9  C   UNL     1       3.466  -3.774   0.000  0.00  0.00    +0.003 A 
ATOM     10  C   UNL     1       3.466  -2.949   0.000  0.00  0.00    -0.004 A 
BRANCH   5   2
ATOM      1  C   UNL     1       4.180  -0.887   0.000  0.00  0.00    +0.004 C 
ATOM      2  C   UNL     1       4.180  -1.712   0.000  0.00  0.00    +0.019 C 
ATOM      3  C   UNL     1       3.355  -1.712   0.000  0.00  0.00    +0.004 C 
ATOM      4  C   UNL     1       5.005  -1.712   0.000  0.00  0.00    +0.004 C 
ENDBRANCH   5   2
ENDBRANCH  11   8
ENDBRANCH  14  13
ENDBRANCH  15  14
BRANCH  20  21
ATOM     21  C   UNL     1       6.047  -8.284   0.000  0.00  0.00    +0.085 C 
BRANCH  21  22
ATOM     22  C   UNL     1       6.532  -8.951   0.000  0.00  0.00    +0.226 C 
ATOM     23  O   UNL     1       7.353  -8.865   0.000  0.00  0.00    -0.275 OA
ATOM     24  N   UNL     1       6.197  -9.705   0.000  0.00  0.00    -0.276 N 
ATOM     25  C   UNL     1       6.682 -10.372   0.000  0.00  0.00    +0.115 C 
ATOM     26  C   UNL     1       6.346 -11.126   0.000  0.00  0.00    +0.112 C 
ATOM     27  N   UNL     1       5.526 -11.212   0.000  0.00  0.00    -0.304 N 
ATOM     28  C   UNL     1       5.041 -10.544   0.000  0.00  0.00    +0.112 C 
ATOM     29  C   UNL     1       5.376  -9.791   0.000  0.00  0.00    +0.115 C 
BRANCH  27  30
ATOM     30  C   UNL     1       5.190 -11.966   0.000  0.00  0.00    +0.048 A 
ATOM     31  C   UNL     1       5.675 -12.633   0.000  0.00  0.00    +0.015 A 
ATOM     32  C   UNL     1       5.339 -13.387   0.000  0.00  0.00    +0.001 A 
ATOM     33  C   UNL     1       4.519 -13.473   0.000  0.00  0.00    +0.000 A 
ATOM     34  C   UNL     1       4.034 -12.806   0.000  0.00  0.00    +0.001 A 
ATOM     35  C   UNL     1       4.370 -12.052   0.000  0.00  0.00    +0.015 A 
ENDBRANCH  27  30
ENDBRANCH  21  22
ENDBRANCH  20  21
TORSDOF 7
