REMARK  Name = 
REMARK  10 active torsions:
REMARK  status: ('A' for Active; 'I' for Inactive)
REMARK    1  A    between atoms: N_2  and  C_3
REMARK    2  A    between atoms: C_3  and  C_4
REMARK    3  A    between atoms: C_3  and  C_7
REMARK    4  A    between atoms: N_9  and  C_10
REMARK    5  A    between atoms: C_12  and  C_19
REMARK    6  A    between atoms: N_21  and  C_22
REMARK    7  A    between atoms: C_22  and  C_23
REMARK    8  A    between atoms: C_22  and  C_32
REMARK    9  A    between atoms: C_23  and  C_24
REMARK   10  A    between atoms: C_27  and  O_28
REMARK                            x       y       z     vdW  Elec       q    Type
REMARK                         _______ _______ _______ _____ _____    ______ ____
ROOT
ATOM     10  C   UNL     1      -0.380  -4.631   0.000  0.00  0.00    +0.131 C 
ATOM     11  C   UNL     1      -0.098  -3.856   0.000  0.00  0.00    +0.064 C 
ATOM     12  C   UNL     1       0.715  -3.712   0.000  0.00  0.00    +0.200 C 
ATOM     13  O   UNL     1       0.432  -2.937   0.000  0.00  0.00    -0.216 OA
ATOM     14  C   UNL     1       1.245  -4.345   0.000  0.00  0.00    +0.075 C 
ATOM     15  C   UNL     1       0.963  -5.120   0.000  0.00  0.00    +0.187 C 
ATOM     16  O   UNL     1       1.493  -5.752   0.000  0.00  0.00    -0.220 OA
ATOM     17  C   UNL     1       0.150  -5.263   0.000  0.00  0.00    +0.202 C 
ATOM     18  O   UNL     1      -0.132  -6.038   0.000  0.00  0.00    -0.219 OA
ENDROOT
BRANCH  10   9
ATOM      7  C   UNL     1      -1.475  -5.550   0.000  0.00  0.00    +0.257 C 
ATOM      8  O   UNL     1      -0.945  -6.181   0.000  0.00  0.00    -0.272 OA
ATOM      9  N   UNL     1      -1.193  -4.774   0.000  0.00  0.00    -0.203 NA
BRANCH   7   3
ATOM      3  C   UNL     1      -2.287  -5.693   0.000  0.00  0.00    +0.150 C 
BRANCH   3   4
ATOM      4  C   UNL     1      -2.818  -5.061   0.000  0.00  0.00    +0.025 C 
ATOM      5  C   UNL     1      -3.630  -5.204   0.000  0.00  0.00    +0.002 C 
ATOM      6  C   UNL     1      -2.535  -4.285   0.000  0.00  0.00    +0.002 C 
ENDBRANCH   3   4
BRANCH   3   2
ATOM      1  C   UNL     1      -3.382  -6.611   0.000  0.00  0.00    +0.108 C 
ATOM      2  N   UNL     1      -2.569  -6.468   0.000  0.00  0.00    -0.209 NA
ENDBRANCH   3   2
ENDBRANCH   7   3
ENDBRANCH  10   9
BRANCH  12  19
ATOM     19  C   UNL     1       1.429  -3.300   0.000  0.00  0.00    +0.269 C 
ATOM     20  O   UNL     1       2.143  -3.712   0.000  0.00  0.00    -0.271 OA
ATOM     21  N   UNL     1       1.429  -2.475   0.000  0.00  0.00    -0.195 NA
BRANCH  21  22
ATOM     22  C   UNL     1       2.143  -2.062   0.000  0.00  0.00    +0.179 C 
BRANCH  22  32
ATOM     32  C   UNL     1       2.858  -2.475   0.000  0.00  0.00    +0.281 C 
ATOM     33  N   UNL     1       3.572  -2.062   0.000  0.00  0.00    -0.086 NA
ATOM     34  O   UNL     1       2.858  -3.300   0.000  0.00  0.00    -0.270 OA
ENDBRANCH  22  32
BRANCH  22  23
ATOM     23  C   UNL     1       2.143  -1.238   0.000  0.00  0.00    +0.057 C 
BRANCH  23  24
ATOM     24  C   UNL     1       2.858  -0.825   0.000  0.00  0.00    -0.020 A 
ATOM     25  C   UNL     1       2.858   0.000   0.000  0.00  0.00    -0.001 A 
ATOM     26  C   UNL     1       3.572   0.412   0.000  0.00  0.00    +0.037 A 
ATOM     27  C   UNL     1       4.287   0.000   0.000  0.00  0.00    +0.139 A 
ATOM     30  C   UNL     1       4.287  -0.825   0.000  0.00  0.00    +0.037 A 
ATOM     31  C   UNL     1       3.572  -1.238   0.000  0.00  0.00    -0.001 A 
BRANCH  27  28
ATOM     28  O   UNL     1       5.001   0.412   0.000  0.00  0.00    -0.471 OA
ATOM     29  C   UNL     1       5.001   1.238   0.000  0.00  0.00    +0.252 C 
ENDBRANCH  27  28
ENDBRANCH  23  24
ENDBRANCH  22  23
ENDBRANCH  21  22
ENDBRANCH  12  19
TORSDOF 10
