REMARK  Name = 
REMARK  1 active torsions:
REMARK  status: ('A' for Active; 'I' for Inactive)
REMARK    1  A    between atoms: C_2  and  C_13
REMARK                            x       y       z     vdW  Elec       q    Type
REMARK                         _______ _______ _______ _____ _____    ______ ____
ROOT
ATOM      1  O   UNL     1       4.067   3.173   0.000  0.00  0.00    -0.270 OA
ATOM      2  C   UNL     1       4.067   2.348   0.000  0.00  0.00    +0.251 C 
ATOM      3  N   UNL     1       3.352   1.935   0.000  0.00  0.00    -0.273 N 
ATOM      4  C   UNL     1       3.352   1.110   0.000  0.00  0.00    +0.115 C 
ATOM      5  C   UNL     1       2.638   0.698   0.000  0.00  0.00    +0.117 C 
ATOM      6  N   UNL     1       1.923   1.110   0.000  0.00  0.00    -0.259 N 
ATOM      7  C   UNL     1       1.923   1.935   0.000  0.00  0.00    +0.118 C 
ATOM      8  C   UNL     1       1.139   2.190   0.000  0.00  0.00    +0.138 C 
ATOM      9  N   UNL     1       0.654   1.523   0.000  0.00  0.00    -0.187 NA
ATOM     10  C   UNL     1       1.139   0.856   0.000  0.00  0.00    +0.323 C 
ATOM     11  O   UNL     1       0.884   0.071   0.000  0.00  0.00    -0.251 OA
ATOM     12  C   UNL     1       2.638   2.348   0.000  0.00  0.00    +0.115 C 
ENDROOT
BRANCH   2  13
ATOM     13  C   UNL     1       4.781   1.935   0.000  0.00  0.00    +0.073 A 
ATOM     14  C   UNL     1       5.496   2.348   0.000  0.00  0.00    +0.008 A 
ATOM     15  C   UNL     1       6.210   1.935   0.000  0.00  0.00    +0.021 A 
ATOM     16  C   UNL     1       6.210   1.110   0.000  0.00  0.00    +0.099 A 
ATOM     17  N   UNL     1       5.496   0.698   0.000  0.00  0.00    -0.242 NA
ATOM     18  C   UNL     1       4.781   1.110   0.000  0.00  0.00    +0.103 A 
ENDBRANCH   2  13
TORSDOF 1
