REMARK  Name = 
REMARK  7 active torsions:
REMARK  status: ('A' for Active; 'I' for Inactive)
REMARK    1  A    between atoms: C_2  and  N_4
REMARK    2  A    between atoms: C_11  and  C_13
REMARK    3  A    between atoms: N_15  and  C_16
REMARK    4  A    between atoms: C_16  and  C_17
REMARK    5  A    between atoms: C_16  and  C_24
REMARK    6  A    between atoms: C_17  and  C_18
REMARK    7  A    between atoms: C_27  and  C_29
REMARK                            x       y       z     vdW  Elec       q    Type
REMARK                         _______ _______ _______ _____ _____    ______ ____
ROOT
ATOM      4  N   UNL     1      -0.715  -6.188   0.000  0.00  0.00    -0.190 NA
ATOM      5  C   UNL     1       0.000  -5.775   0.000  0.00  0.00    +0.323 C 
ATOM      6  O   UNL     1       0.715  -6.188   0.000  0.00  0.00    -0.251 OA
ATOM      7  N   UNL     1       0.000  -4.950   0.000  0.00  0.00    -0.259 N 
ATOM      8  C   UNL     1      -0.715  -4.537   0.000  0.00  0.00    +0.117 C 
ATOM      9  C   UNL     1      -0.715  -3.712   0.000  0.00  0.00    +0.116 C 
ATOM     10  N   UNL     1       0.000  -3.300   0.000  0.00  0.00    -0.266 N 
ATOM     11  C   UNL     1       0.715  -3.712   0.000  0.00  0.00    +0.174 C 
ATOM     12  C   UNL     1       0.715  -4.537   0.000  0.00  0.00    +0.124 C 
ATOM     27  C   UNL     1       0.000  -2.475   0.000  0.00  0.00    +0.255 C 
ATOM     28  O   UNL     1       0.715  -2.062   0.000  0.00  0.00    -0.269 OA
ENDROOT
BRANCH  27  29
ATOM     29  C   UNL     1      -0.715  -2.062   0.000  0.00  0.00    +0.083 A 
ATOM     30  C   UNL     1      -1.468  -2.398   0.000  0.00  0.00    +0.012 A 
ATOM     31  C   UNL     1      -2.020  -1.785   0.000  0.00  0.00    +0.008 A 
ATOM     32  C   UNL     1      -1.608  -1.071   0.000  0.00  0.00    +0.036 A 
ATOM     33  S   UNL     1      -0.801  -1.242   0.000  0.00  0.00    -0.082 S 
ENDBRANCH  27  29
BRANCH   4   2
ATOM      1  C   UNL     1      -1.429  -7.425   0.000  0.00  0.00    +0.023 C 
ATOM      2  C   UNL     1      -0.715  -7.013   0.000  0.00  0.00    +0.097 C 
ATOM      3  C   UNL     1       0.000  -7.425   0.000  0.00  0.00    +0.023 C 
ENDBRANCH   4   2
BRANCH  11  13
ATOM     13  C   UNL     1       1.429  -3.300   0.000  0.00  0.00    +0.262 C 
ATOM     14  O   UNL     1       2.143  -3.712   0.000  0.00  0.00    -0.271 OA
ATOM     15  N   UNL     1       1.429  -2.475   0.000  0.00  0.00    -0.196 NA
BRANCH  15  16
ATOM     16  C   UNL     1       2.143  -2.062   0.000  0.00  0.00    +0.179 C 
BRANCH  16  24
ATOM     24  C   UNL     1       2.858  -2.475   0.000  0.00  0.00    +0.281 C 
ATOM     25  N   UNL     1       3.572  -2.062   0.000  0.00  0.00    -0.086 NA
ATOM     26  O   UNL     1       2.858  -3.300   0.000  0.00  0.00    -0.270 OA
ENDBRANCH  16  24
BRANCH  16  17
ATOM     17  C   UNL     1       2.143  -1.238   0.000  0.00  0.00    +0.059 C 
BRANCH  17  18
ATOM     18  C   UNL     1       2.858  -0.825   0.000  0.00  0.00    -0.001 A 
ATOM     19  C   UNL     1       2.858   0.000   0.000  0.00  0.00    -0.001 A 
ATOM     20  C   UNL     1       3.572   0.412   0.000  0.00  0.00    +0.020 A 
ATOM     21  C   UNL     1       4.287   0.000   0.000  0.00  0.00    +0.099 A 
ATOM     22  N   UNL     1       4.287  -0.825   0.000  0.00  0.00    -0.243 NA
ATOM     23  C   UNL     1       3.572  -1.238   0.000  0.00  0.00    +0.095 A 
ENDBRANCH  17  18
ENDBRANCH  16  17
ENDBRANCH  15  16
ENDBRANCH  11  13
TORSDOF 7
