REMARK  Name = 
REMARK  2 active torsions:
REMARK  status: ('A' for Active; 'I' for Inactive)
REMARK    1  A    between atoms: N_6  and  C_7
REMARK    2  A    between atoms: C_7  and  C_8
REMARK                            x       y       z     vdW  Elec       q    Type
REMARK                         _______ _______ _______ _____ _____    ______ ____
ROOT
ATOM      1  C   UNL     1       3.401  -1.935   0.000  0.00  0.00    +0.117 C 
ATOM      2  N   UNL     1       4.226  -1.935   0.000  0.00  0.00    -0.261 N 
ATOM      3  C   UNL     1       4.711  -1.268   0.000  0.00  0.00    +0.116 C 
ATOM      4  C   UNL     1       5.496  -1.523   0.000  0.00  0.00    +0.113 C 
ATOM      5  C   UNL     1       6.210  -1.110   0.000  0.00  0.00    +0.094 C 
ATOM      6  N   UNL     1       6.925  -1.523   0.000  0.00  0.00    -0.266 NA
ATOM     18  C   UNL     1       6.925  -2.348   0.000  0.00  0.00    +0.094 C 
ATOM     19  C   UNL     1       6.210  -2.760   0.000  0.00  0.00    +0.112 C 
ATOM     20  N   UNL     1       5.496  -2.348   0.000  0.00  0.00    -0.261 N 
ATOM     21  C   UNL     1       4.711  -2.603   0.000  0.00  0.00    +0.307 C 
ATOM     22  O   UNL     1       4.456  -3.388   0.000  0.00  0.00    -0.252 OA
ENDROOT
BRANCH   6   7
ATOM      7  C   UNL     1       7.639  -1.110   0.000  0.00  0.00    +0.099 C 
BRANCH   7   8
ATOM      8  C   UNL     1       7.639  -0.285   0.000  0.00  0.00    -0.003 A 
ATOM      9  C   UNL     1       6.925   0.127   0.000  0.00  0.00    +0.018 A 
ATOM     10  C   UNL     1       6.925   0.952   0.000  0.00  0.00    +0.099 A 
ATOM     11  N   UNL     1       7.639   1.365   0.000  0.00  0.00    -0.244 NA
ATOM     12  C   UNL     1       8.354   0.952   0.000  0.00  0.00    +0.081 A 
ATOM     13  C   UNL     1       9.068   1.365   0.000  0.00  0.00    +0.019 A 
ATOM     14  C   UNL     1       9.783   0.952   0.000  0.00  0.00    +0.002 A 
ATOM     15  C   UNL     1       9.783   0.127   0.000  0.00  0.00    +0.000 A 
ATOM     16  C   UNL     1       9.068  -0.285   0.000  0.00  0.00    +0.001 A 
ATOM     17  C   UNL     1       8.354   0.127   0.000  0.00  0.00    +0.015 A 
ENDBRANCH   7   8
ENDBRANCH   6   7
TORSDOF 2
