REMARK  Name = 
REMARK  3 active torsions:
REMARK  status: ('A' for Active; 'I' for Inactive)
REMARK    1  A    between atoms: N_6  and  C_7
REMARK    2  A    between atoms: C_7  and  C_8
REMARK    3  A    between atoms: N_17  and  C_18
REMARK                            x       y       z     vdW  Elec       q    Type
REMARK                         _______ _______ _______ _____ _____    ______ ____
ROOT
ATOM      1  O   UNL     1       0.884   0.754   0.000  0.00  0.00    -0.252 OA
ATOM      2  C   UNL     1       1.139  -0.030   0.000  0.00  0.00    +0.311 C 
ATOM      3  N   UNL     1       1.923  -0.285   0.000  0.00  0.00    -0.261 N 
ATOM      4  C   UNL     1       2.638   0.127   0.000  0.00  0.00    +0.112 C 
ATOM      5  C   UNL     1       3.352  -0.285   0.000  0.00  0.00    +0.094 C 
ATOM      6  N   UNL     1       3.352  -1.110   0.000  0.00  0.00    -0.266 NA
ATOM     14  C   UNL     1       2.638  -1.523   0.000  0.00  0.00    +0.094 C 
ATOM     15  C   UNL     1       1.923  -1.110   0.000  0.00  0.00    +0.113 C 
ATOM     16  C   UNL     1       1.139  -1.365   0.000  0.00  0.00    +0.121 C 
ATOM     17  N   UNL     1       0.654  -0.698   0.000  0.00  0.00    -0.241 N 
ENDROOT
BRANCH  17  18
ATOM     18  C   UNL     1      -0.171  -0.698   0.000  0.00  0.00    +0.055 A 
ATOM     19  C   UNL     1      -0.584  -1.412   0.000  0.00  0.00    +0.015 A 
ATOM     20  C   UNL     1      -1.409  -1.412   0.000  0.00  0.00    +0.001 A 
ATOM     21  C   UNL     1      -1.821  -0.698   0.000  0.00  0.00    +0.000 A 
ATOM     22  C   UNL     1      -1.409   0.017   0.000  0.00  0.00    +0.001 A 
ATOM     23  C   UNL     1      -0.584   0.017   0.000  0.00  0.00    +0.015 A 
ENDBRANCH  17  18
BRANCH   6   7
ATOM      7  C   UNL     1       4.067  -1.523   0.000  0.00  0.00    +0.101 C 
BRANCH   7   8
ATOM      8  C   UNL     1       4.781  -1.110   0.000  0.00  0.00    +0.013 A 
ATOM      9  C   UNL     1       4.781  -0.285   0.000  0.00  0.00    +0.000 A 
ATOM     10  C   UNL     1       5.496   0.127   0.000  0.00  0.00    +0.020 A 
ATOM     11  C   UNL     1       6.210  -0.285   0.000  0.00  0.00    +0.099 A 
ATOM     12  N   UNL     1       6.210  -1.110   0.000  0.00  0.00    -0.243 NA
ATOM     13  C   UNL     1       5.496  -1.523   0.000  0.00  0.00    +0.096 A 
ENDBRANCH   7   8
ENDBRANCH   6   7
TORSDOF 3
