REMARK  Name = 
REMARK  6 active torsions:
REMARK  status: ('A' for Active; 'I' for Inactive)
REMARK    1  A    between atoms: C_3  and  N_18
REMARK    2  A    between atoms: C_6  and  C_7
REMARK    3  A    between atoms: C_7  and  N_8
REMARK    4  A    between atoms: N_11  and  C_12
REMARK    5  A    between atoms: N_18  and  C_19
REMARK    6  A    between atoms: C_19  and  C_20
REMARK                            x       y       z     vdW  Elec       q    Type
REMARK                         _______ _______ _______ _____ _____    ______ ____
ROOT
ATOM      1  O   UNL     1      -0.925  -3.618   0.000  0.00  0.00    -0.219 OA
ATOM      2  C   UNL     1      -0.754  -2.811   0.000  0.00  0.00    +0.199 C 
ATOM      3  C   UNL     1      -1.306  -2.197   0.000  0.00  0.00    +0.136 C 
ATOM      4  C   UNL     1      -0.893  -1.483   0.000  0.00  0.00    +0.162 C 
ATOM      5  O   UNL     1      -0.086  -1.655   0.000  0.00  0.00    -0.350 OA
ATOM      6  C   UNL     1       0.000  -2.475   0.000  0.00  0.00    +0.169 C 
ENDROOT
BRANCH   6   7
ATOM      7  C   UNL     1       0.715  -2.888   0.000  0.00  0.00    +0.149 C 
BRANCH   7   8
ATOM      8  N   UNL     1       1.429  -2.475   0.000  0.00  0.00    -0.184 NA
ATOM      9  C   UNL     1       2.143  -2.888   0.000  0.00  0.00    +0.344 C 
ATOM     10  O   UNL     1       2.143  -3.712   0.000  0.00  0.00    -0.249 OA
ATOM     11  N   UNL     1       2.858  -2.475   0.000  0.00  0.00    -0.161 NA
BRANCH  11  12
ATOM     12  C   UNL     1       3.572  -2.888   0.000  0.00  0.00    +0.075 A 
ATOM     13  C   UNL     1       4.287  -2.475   0.000  0.00  0.00    +0.017 A 
ATOM     14  C   UNL     1       5.001  -2.888   0.000  0.00  0.00    +0.001 A 
ATOM     15  C   UNL     1       5.001  -3.712   0.000  0.00  0.00    +0.000 A 
ATOM     16  C   UNL     1       4.287  -4.125   0.000  0.00  0.00    +0.001 A 
ATOM     17  C   UNL     1       3.572  -3.712   0.000  0.00  0.00    +0.017 A 
ENDBRANCH  11  12
ENDBRANCH   7   8
ENDBRANCH   6   7
BRANCH   3  18
ATOM     18  N   UNL     1      -2.126  -2.284   0.000  0.00  0.00    -0.206 NA
BRANCH  18  19
ATOM     19  C   UNL     1      -2.462  -3.037   0.000  0.00  0.00    +0.154 C 
BRANCH  19  20
ATOM     20  C   UNL     1      -3.282  -3.124   0.000  0.00  0.00    +0.157 A 
ATOM     21  N   UNL     1      -3.695  -3.838   0.000  0.00  0.00    -0.226 NA
ATOM     22  C   UNL     1      -4.502  -3.667   0.000  0.00  0.00    +0.121 A 
ATOM     23  C   UNL     1      -4.588  -2.846   0.000  0.00  0.00    +0.121 A 
ATOM     24  N   UNL     1      -3.834  -2.510   0.000  0.00  0.00    -0.226 NA
ENDBRANCH  19  20
ENDBRANCH  18  19
ENDBRANCH   3  18
TORSDOF 6
