REMARK  Name = 
REMARK  7 active torsions:
REMARK  status: ('A' for Active; 'I' for Inactive)
REMARK    1  A    between atoms: C_5  and  C_8
REMARK    2  A    between atoms: C_10  and  C_11
REMARK    3  A    between atoms: C_11  and  C_12
REMARK    4  A    between atoms: C_17  and  C_18
REMARK    5  A    between atoms: C_18  and  C_19
REMARK    6  A    between atoms: N_21  and  C_22
REMARK    7  A    between atoms: C_22  and  C_23
REMARK                            x       y       z     vdW  Elec       q    Type
REMARK                         _______ _______ _______ _____ _____    ______ ____
ROOT
ATOM     12  C   UNL     1       1.110  -3.150   0.000  0.00  0.00    +0.024 C 
ATOM     13  C   UNL     1       1.446  -2.396   0.000  0.00  0.00    +0.089 C 
ATOM     14  N   UNL     1       2.266  -2.310   0.000  0.00  0.00    -0.218 NA
ATOM     15  C   UNL     1       2.751  -2.977   0.000  0.00  0.00    +0.089 C 
ATOM     16  C   UNL     1       2.416  -3.731   0.000  0.00  0.00    +0.019 C 
ATOM     17  C   UNL     1       1.595  -3.817   0.000  0.00  0.00    +0.012 C 
ENDROOT
BRANCH  12  11
ATOM     11  C   UNL     1       0.290  -3.236   0.000  0.00  0.00    +0.051 C 
BRANCH  11  10
ATOM      8  C   UNL     1      -0.608  -1.299   0.000  0.00  0.00    +0.177 A 
ATOM      9  C   UNL     1       0.060  -1.784   0.000  0.00  0.00    +0.058 A 
ATOM     10  C   UNL     1      -0.195  -2.569   0.000  0.00  0.00    +0.101 A 
ATOM     28  N   UNL     1      -1.020  -2.569   0.000  0.00  0.00    -0.081 NA
ATOM     29  O   UNL     1      -1.275  -1.784   0.000  0.00  0.00    -0.354 OA
BRANCH   8   5
ATOM      1  F   UNL     1      -0.608   2.001   0.000  0.00  0.00    -0.204 F 
ATOM      2  C   UNL     1      -0.608   1.176   0.000  0.00  0.00    +0.140 A 
ATOM      3  C   UNL     1       0.107   0.763   0.000  0.00  0.00    +0.030 A 
ATOM      4  C   UNL     1       0.107  -0.062   0.000  0.00  0.00    +0.005 A 
ATOM      5  C   UNL     1      -0.608  -0.474   0.000  0.00  0.00    +0.037 A 
ATOM      6  C   UNL     1      -1.322  -0.062   0.000  0.00  0.00    +0.005 A 
ATOM      7  C   UNL     1      -1.322   0.763   0.000  0.00  0.00    +0.030 A 
ENDBRANCH   8   5
ENDBRANCH  11  10
ENDBRANCH  12  11
BRANCH  17  18
ATOM     18  C   UNL     1       1.260  -4.571   0.000  0.00  0.00    +0.087 C 
BRANCH  18  19
ATOM     19  C   UNL     1       1.744  -5.238   0.000  0.00  0.00    +0.242 C 
ATOM     20  O   UNL     1       2.565  -5.152   0.000  0.00  0.00    -0.273 OA
ATOM     21  N   UNL     1       1.409  -5.992   0.000  0.00  0.00    -0.200 NA
BRANCH  21  22
ATOM     22  C   UNL     1       1.894  -6.660   0.000  0.00  0.00    +0.148 C 
BRANCH  22  23
ATOM     23  C   UNL     1       1.558  -7.413   0.000  0.00  0.00    +0.029 A 
ATOM     24  C   UNL     1       1.971  -8.128   0.000  0.00  0.00    +0.004 A 
ATOM     25  C   UNL     1       1.419  -8.741   0.000  0.00  0.00    +0.007 A 
ATOM     26  C   UNL     1       0.665  -8.405   0.000  0.00  0.00    +0.035 A 
ATOM     27  S   UNL     1       0.751  -7.585   0.000  0.00  0.00    -0.089 S 
ENDBRANCH  22  23
ENDBRANCH  21  22
ENDBRANCH  18  19
ENDBRANCH  17  18
TORSDOF 7
