REMARK  Name = 
REMARK  3 active torsions:
REMARK  status: ('A' for Active; 'I' for Inactive)
REMARK    1  A    between atoms: C_2  and  C_3
REMARK    2  A    between atoms: C_3  and  N_4
REMARK    3  A    between atoms: N_14  and  C_19
REMARK                            x       y       z     vdW  Elec       q    Type
REMARK                         _______ _______ _______ _____ _____    ______ ____
ROOT
ATOM      4  N   UNL     1       3.361  -3.309   0.000  0.00  0.00    -0.184 NA
ATOM      5  C   UNL     1       4.075  -3.722   0.000  0.00  0.00    +0.324 C 
ATOM      6  O   UNL     1       4.075  -4.547   0.000  0.00  0.00    -0.251 OA
ATOM      7  N   UNL     1       4.790  -3.309   0.000  0.00  0.00    -0.263 N 
ATOM      8  C   UNL     1       4.790  -2.484   0.000  0.00  0.00    +0.095 C 
ATOM      9  C   UNL     1       5.504  -2.072   0.000  0.00  0.00    +0.022 C 
ATOM     10  C   UNL     1       6.219  -2.484   0.000  0.00  0.00    +0.012 C 
ATOM     11  C   UNL     1       6.864  -1.970   0.000  0.00  0.00    +0.085 C 
ATOM     12  C   UNL     1       7.668  -2.154   0.000  0.00  0.00    +0.226 C 
ATOM     13  O   UNL     1       8.182  -1.508   0.000  0.00  0.00    -0.275 OA
ATOM     14  N   UNL     1       8.026  -2.897   0.000  0.00  0.00    -0.281 N 
ATOM     15  C   UNL     1       7.668  -3.640   0.000  0.00  0.00    +0.093 C 
ATOM     16  C   UNL     1       6.864  -3.824   0.000  0.00  0.00    +0.023 C 
ATOM     17  C   UNL     1       6.219  -3.309   0.000  0.00  0.00    +0.022 C 
ATOM     18  C   UNL     1       5.504  -3.722   0.000  0.00  0.00    +0.095 C 
ENDROOT
BRANCH  14  19
ATOM     19  C   UNL     1       8.851  -2.897   0.000  0.00  0.00    +0.075 C 
ATOM     20  C   UNL     1       9.264  -2.182   0.000  0.00  0.00    +0.020 C 
ATOM     21  C   UNL     1      10.088  -2.182   0.000  0.00  0.00    +0.002 C 
ATOM     22  C   UNL     1      10.501  -2.897   0.000  0.00  0.00    +0.000 C 
ATOM     23  C   UNL     1      10.088  -3.611   0.000  0.00  0.00    +0.002 C 
ATOM     24  C   UNL     1       9.264  -3.611   0.000  0.00  0.00    +0.020 C 
ENDBRANCH  14  19
BRANCH   4   3
ATOM      3  C   UNL     1       2.646  -3.722   0.000  0.00  0.00    +0.143 C 
BRANCH   3   2
ATOM      1  C   UNL     1       1.218  -3.722   0.000  0.00  0.00    -0.003 C 
ATOM      2  C   UNL     1       1.932  -3.309   0.000  0.00  0.00    -0.003 C 
ENDBRANCH   3   2
ENDBRANCH   4   3
TORSDOF 3
