REMARK  Name = 
REMARK  6 active torsions:
REMARK  status: ('A' for Active; 'I' for Inactive)
REMARK    1  A    between atoms: C_5  and  C_6
REMARK    2  A    between atoms: C_6  and  N_7
REMARK    3  A    between atoms: N_7  and  C_8
REMARK    4  A    between atoms: C_11  and  C_12
REMARK    5  A    between atoms: C_12  and  N_13
REMARK    6  A    between atoms: C_14  and  C_16
REMARK                            x       y       z     vdW  Elec       q    Type
REMARK                         _______ _______ _______ _____ _____    ______ ____
ROOT
ATOM      8  C   UNL     1      -2.037  -1.299   0.000  0.00  0.00    +0.135 C 
ATOM      9  C   UNL     1      -1.369  -1.784   0.000  0.00  0.00    +0.162 C 
ATOM     10  O   UNL     1      -1.624  -2.569   0.000  0.00  0.00    -0.350 OA
ATOM     11  C   UNL     1      -2.449  -2.569   0.000  0.00  0.00    +0.169 C 
ATOM     23  C   UNL     1      -2.704  -1.784   0.000  0.00  0.00    +0.199 C 
ATOM     24  O   UNL     1      -3.489  -1.529   0.000  0.00  0.00    -0.219 OA
ENDROOT
BRANCH   8   7
ATOM      7  N   UNL     1      -2.037  -0.474   0.000  0.00  0.00    -0.209 NA
BRANCH   7   6
ATOM      6  C   UNL     1      -1.322  -0.062   0.000  0.00  0.00    +0.115 C 
BRANCH   6   5
ATOM      1  C   UNL     1      -1.322   3.238   0.000  0.00  0.00    +0.031 C 
ATOM      2  C   UNL     1      -1.322   2.413   0.000  0.00  0.00    -0.022 A 
ATOM      3  C   UNL     1      -0.608   2.001   0.000  0.00  0.00    -0.005 A 
ATOM      4  C   UNL     1      -0.608   1.176   0.000  0.00  0.00    -0.003 A 
ATOM      5  C   UNL     1      -1.322   0.763   0.000  0.00  0.00    -0.005 A 
ATOM     25  C   UNL     1      -2.037   1.176   0.000  0.00  0.00    -0.003 A 
ATOM     26  C   UNL     1      -2.037   2.001   0.000  0.00  0.00    -0.005 A 
ENDBRANCH   6   5
ENDBRANCH   7   6
ENDBRANCH   8   7
BRANCH  11  12
ATOM     12  C   UNL     1      -2.934  -3.236   0.000  0.00  0.00    +0.148 C 
BRANCH  12  13
ATOM     13  N   UNL     1      -3.755  -3.150   0.000  0.00  0.00    -0.199 NA
ATOM     14  C   UNL     1      -4.239  -3.817   0.000  0.00  0.00    +0.265 C 
ATOM     15  O   UNL     1      -5.060  -3.731   0.000  0.00  0.00    -0.268 OA
BRANCH  14  16
ATOM     16  C   UNL     1      -3.904  -4.571   0.000  0.00  0.00    +0.055 A 
ATOM     17  C   UNL     1      -3.083  -4.657   0.000  0.00  0.00    +0.007 A 
ATOM     18  C   UNL     1      -2.748  -5.411   0.000  0.00  0.00    +0.030 A 
ATOM     19  C   UNL     1      -3.233  -6.078   0.000  0.00  0.00    +0.140 A 
ATOM     20  F   UNL     1      -2.897  -6.832   0.000  0.00  0.00    -0.204 F 
ATOM     21  C   UNL     1      -4.053  -5.992   0.000  0.00  0.00    +0.030 A 
ATOM     22  C   UNL     1      -4.389  -5.238   0.000  0.00  0.00    +0.007 A 
ENDBRANCH  14  16
ENDBRANCH  12  13
ENDBRANCH  11  12
TORSDOF 6
