REMARK  Name = 
REMARK  6 active torsions:
REMARK  status: ('A' for Active; 'I' for Inactive)
REMARK    1  A    between atoms: C_2  and  C_4
REMARK    2  A    between atoms: C_7  and  C_8
REMARK    3  A    between atoms: C_8  and  N_9
REMARK    4  A    between atoms: C_13  and  C_14
REMARK    5  A    between atoms: C_16  and  C_19
REMARK    6  A    between atoms: C_23  and  N_25
REMARK                            x       y       z     vdW  Elec       q    Type
REMARK                         _______ _______ _______ _____ _____    ______ ____
ROOT
ATOM     14  C   UNL     1       2.206  -4.803   0.000  0.00  0.00    +0.251 A 
ATOM     15  N   UNL     1       1.538  -5.287   0.000  0.00  0.00    -0.190 NA
ATOM     16  C   UNL     1       0.871  -4.803   0.000  0.00  0.00    +0.203 A 
ATOM     17  N   UNL     1       1.126  -4.018   0.000  0.00  0.00    -0.056 NA
ATOM     18  O   UNL     1       1.951  -4.018   0.000  0.00  0.00    -0.336 OA
ENDROOT
BRANCH  16  19
ATOM     19  C   UNL     1       0.086  -5.057   0.000  0.00  0.00    +0.043 A 
ATOM     20  C   UNL     1      -0.086  -5.864   0.000  0.00  0.00    +0.024 A 
ATOM     21  C   UNL     1      -0.870  -6.119   0.000  0.00  0.00    +0.100 A 
ATOM     22  N   UNL     1      -1.483  -5.567   0.000  0.00  0.00    -0.229 NA
ATOM     23  C   UNL     1      -1.312  -4.760   0.000  0.00  0.00    +0.132 A 
ATOM     24  C   UNL     1      -0.527  -4.505   0.000  0.00  0.00    +0.037 A 
BRANCH  23  25
ATOM     25  N   UNL     1      -1.925  -4.208   0.000  0.00  0.00    -0.288 N 
ATOM     26  C   UNL     1      -2.709  -4.463   0.000  0.00  0.00    +0.124 C 
ATOM     27  C   UNL     1      -3.322  -3.911   0.000  0.00  0.00    +0.164 C 
ATOM     28  O   UNL     1      -3.151  -3.104   0.000  0.00  0.00    -0.350 OA
ATOM     29  C   UNL     1      -2.366  -2.849   0.000  0.00  0.00    +0.164 C 
ATOM     30  C   UNL     1      -1.753  -3.401   0.000  0.00  0.00    +0.124 C 
ENDBRANCH  23  25
ENDBRANCH  16  19
BRANCH  14  13
ATOM      9  N   UNL     1       3.658  -4.572   0.000  0.00  0.00    -0.263 NA
ATOM     10  C   UNL     1       4.325  -5.057   0.000  0.00  0.00    +0.073 C 
ATOM     11  C   UNL     1       4.070  -5.842   0.000  0.00  0.00    +0.019 C 
ATOM     12  C   UNL     1       3.245  -5.842   0.000  0.00  0.00    +0.027 C 
ATOM     13  C   UNL     1       2.990  -5.057   0.000  0.00  0.00    +0.138 C 
BRANCH   9   8
ATOM      8  C   UNL     1       3.658  -3.748   0.000  0.00  0.00    +0.099 C 
BRANCH   8   7
ATOM      4  C   UNL     1       5.801  -2.510   0.000  0.00  0.00    +0.080 A 
ATOM      5  C   UNL     1       5.801  -3.335   0.000  0.00  0.00    +0.006 A 
ATOM      6  C   UNL     1       5.087  -3.748   0.000  0.00  0.00    -0.003 A 
ATOM      7  C   UNL     1       4.372  -3.335   0.000  0.00  0.00    -0.006 A 
ATOM     31  C   UNL     1       4.372  -2.510   0.000  0.00  0.00    -0.003 A 
ATOM     32  C   UNL     1       5.087  -2.098   0.000  0.00  0.00    +0.006 A 
BRANCH   4   2
ATOM      1  O   UNL     1       6.516  -1.272   0.000  0.00  0.00    -0.241 OA
ATOM      2  C   UNL     1       6.516  -2.098   0.000  0.00  0.00    +0.388 C 
ATOM      3  O   UNL     1       7.230  -2.510   0.000  0.00  0.00    -0.241 OA
ENDBRANCH   4   2
ENDBRANCH   8   7
ENDBRANCH   9   8
ENDBRANCH  14  13
TORSDOF 6
