REMARK  Name = 
REMARK  9 active torsions:
REMARK  status: ('A' for Active; 'I' for Inactive)
REMARK    1  A    between atoms: C_2  and  C_3
REMARK    2  A    between atoms: C_3  and  C_4
REMARK    3  A    between atoms: C_4  and  C_5
REMARK    4  A    between atoms: C_5  and  C_6
REMARK    5  A    between atoms: C_11  and  C_12
REMARK    6  A    between atoms: C_12  and  C_13
REMARK    7  A    between atoms: N_15  and  C_16
REMARK    8  A    between atoms: C_16  and  C_17
REMARK    9  A    between atoms: C_23  and  C_24
REMARK                            x       y       z     vdW  Elec       q    Type
REMARK                         _______ _______ _______ _____ _____    ______ ____
ROOT
ATOM      6  C   UNL     1       6.430  -8.662   0.000  0.00  0.00    +0.226 C 
ATOM      7  O   UNL     1       6.430  -7.838   0.000  0.00  0.00    -0.275 OA
ATOM      8  N   UNL     1       7.145  -9.075   0.000  0.00  0.00    -0.280 N 
ATOM      9  C   UNL     1       7.859  -8.662   0.000  0.00  0.00    +0.093 C 
ATOM     10  C   UNL     1       8.574  -9.075   0.000  0.00  0.00    +0.022 C 
ATOM     11  C   UNL     1       8.574  -9.900   0.000  0.00  0.00    +0.012 C 
ATOM     23  C   UNL     1       7.859 -10.312   0.000  0.00  0.00    +0.020 C 
ATOM     26  C   UNL     1       7.145  -9.900   0.000  0.00  0.00    +0.093 C 
ENDROOT
BRANCH  23  24
ATOM     24  C   UNL     1       7.859 -11.137   0.000  0.00  0.00    +0.002 C 
ATOM     25  C   UNL     1       7.145 -11.550   0.000  0.00  0.00    +0.000 C 
ENDBRANCH  23  24
BRANCH   6   5
ATOM      5  C   UNL     1       5.716  -9.075   0.000  0.00  0.00    +0.085 C 
BRANCH   5   4
ATOM      4  C   UNL     1       5.001  -8.662   0.000  0.00  0.00    +0.010 C 
BRANCH   4   3
ATOM      3  C   UNL     1       4.287  -9.075   0.000  0.00  0.00    +0.001 C 
BRANCH   3   2
ATOM      1  C   UNL     1       2.858  -9.075   0.000  0.00  0.00    +0.000 C 
ATOM      2  C   UNL     1       3.572  -8.662   0.000  0.00  0.00    +0.000 C 
ENDBRANCH   3   2
ENDBRANCH   4   3
ENDBRANCH   5   4
ENDBRANCH   6   5
BRANCH  11  12
ATOM     12  C   UNL     1       9.288 -10.312   0.000  0.00  0.00    +0.087 C 
BRANCH  12  13
ATOM     13  C   UNL     1      10.003  -9.900   0.000  0.00  0.00    +0.242 C 
ATOM     14  O   UNL     1      10.003  -9.075   0.000  0.00  0.00    -0.273 OA
ATOM     15  N   UNL     1      10.717 -10.312   0.000  0.00  0.00    -0.200 NA
BRANCH  15  16
ATOM     16  C   UNL     1      11.431  -9.900   0.000  0.00  0.00    +0.143 C 
BRANCH  16  17
ATOM     17  C   UNL     1      12.146 -10.312   0.000  0.00  0.00    +0.019 A 
ATOM     18  C   UNL     1      12.861  -9.900   0.000  0.00  0.00    +0.001 A 
ATOM     19  C   UNL     1      13.575 -10.312   0.000  0.00  0.00    +0.020 A 
ATOM     20  C   UNL     1      13.575 -11.137   0.000  0.00  0.00    +0.099 A 
ATOM     21  N   UNL     1      12.861 -11.550   0.000  0.00  0.00    -0.243 NA
ATOM     22  C   UNL     1      12.146 -11.137   0.000  0.00  0.00    +0.096 A 
ENDBRANCH  16  17
ENDBRANCH  15  16
ENDBRANCH  12  13
ENDBRANCH  11  12
TORSDOF 9
