REMARK  Name = 
REMARK  6 active torsions:
REMARK  status: ('A' for Active; 'I' for Inactive)
REMARK    1  A    between atoms: C_2  and  C_4
REMARK    2  A    between atoms: C_4  and  C_5
REMARK    3  A    between atoms: C_10  and  C_11
REMARK    4  A    between atoms: C_11  and  C_12
REMARK    5  A    between atoms: C_12  and  N_13
REMARK    6  A    between atoms: C_25  and  C_27
REMARK                            x       y       z     vdW  Elec       q    Type
REMARK                         _______ _______ _______ _____ _____    ______ ____
ROOT
ATOM      5  C   UNL     1      -4.792  -3.250   0.000  0.00  0.00    +0.015 C 
ATOM      6  C   UNL     1      -4.078  -2.837   0.000  0.00  0.00    +0.022 C 
ATOM      7  C   UNL     1      -3.363  -3.250   0.000  0.00  0.00    +0.093 C 
ATOM      8  N   UNL     1      -3.363  -4.075   0.000  0.00  0.00    -0.280 N 
ATOM      9  C   UNL     1      -4.078  -4.487   0.000  0.00  0.00    +0.093 C 
ATOM     10  C   UNL     1      -4.792  -4.075   0.000  0.00  0.00    +0.022 C 
ATOM     25  C   UNL     1      -2.649  -4.487   0.000  0.00  0.00    +0.225 C 
ATOM     26  O   UNL     1      -1.934  -4.075   0.000  0.00  0.00    -0.275 OA
ENDROOT
BRANCH  25  27
ATOM     27  C   UNL     1      -2.649  -5.312   0.000  0.00  0.00    +0.077 C 
ATOM     28  C   UNL     1      -2.065  -5.896   0.000  0.00  0.00    +0.009 C 
ATOM     29  C   UNL     1      -2.649  -6.479   0.000  0.00  0.00    +0.001 C 
ATOM     30  C   UNL     1      -3.232  -5.896   0.000  0.00  0.00    +0.009 C 
ENDBRANCH  25  27
BRANCH   5   4
ATOM      4  C   UNL     1      -5.506  -2.837   0.000  0.00  0.00    +0.114 C 
BRANCH   4   2
ATOM      1  O   UNL     1      -6.221  -1.600   0.000  0.00  0.00    -0.246 OA
ATOM      2  C   UNL     1      -5.506  -2.013   0.000  0.00  0.00    +0.365 C 
ATOM      3  O   UNL     1      -4.792  -1.600   0.000  0.00  0.00    -0.246 OA
ENDBRANCH   4   2
ENDBRANCH   5   4
BRANCH  10  11
ATOM     11  C   UNL     1      -5.506  -4.487   0.000  0.00  0.00    +0.019 C 
BRANCH  11  12
ATOM     12  C   UNL     1      -6.221  -4.075   0.000  0.00  0.00    +0.072 C 
BRANCH  12  13
ATOM     13  N   UNL     1      -6.935  -4.487   0.000  0.00  0.00    -0.270 NA
ATOM     14  C   UNL     1      -6.935  -5.312   0.000  0.00  0.00    +0.094 C 
ATOM     15  C   UNL     1      -7.650  -5.725   0.000  0.00  0.00    +0.109 C 
ATOM     16  N   UNL     1      -8.364  -5.312   0.000  0.00  0.00    -0.290 N 
ATOM     17  C   UNL     1      -8.364  -4.487   0.000  0.00  0.00    +0.109 C 
ATOM     18  C   UNL     1      -7.650  -4.075   0.000  0.00  0.00    +0.094 C 
ATOM     19  C   UNL     1      -9.079  -5.725   0.000  0.00  0.00    +0.132 A 
ATOM     20  N   UNL     1      -9.079  -6.550   0.000  0.00  0.00    -0.229 NA
ATOM     21  C   UNL     1      -9.793  -6.963   0.000  0.00  0.00    +0.100 A 
ATOM     22  C   UNL     1     -10.508  -6.550   0.000  0.00  0.00    +0.021 A 
ATOM     23  C   UNL     1     -10.508  -5.725   0.000  0.00  0.00    +0.004 A 
ATOM     24  C   UNL     1      -9.793  -5.312   0.000  0.00  0.00    +0.034 A 
ENDBRANCH  12  13
ENDBRANCH  11  12
ENDBRANCH  10  11
TORSDOF 6
