REMARK  Name = 
REMARK  10 active torsions:
REMARK  status: ('A' for Active; 'I' for Inactive)
REMARK    1  A    between atoms: O_2  and  C_3
REMARK    2  A    between atoms: C_3  and  C_5
REMARK    3  A    between atoms: C_10  and  C_11
REMARK    4  A    between atoms: C_11  and  C_12
REMARK    5  A    between atoms: C_14  and  C_15
REMARK    6  A    between atoms: C_18  and  C_19
REMARK    7  A    between atoms: C_19  and  N_20
REMARK    8  A    between atoms: C_21  and  C_23
REMARK    9  A    between atoms: C_23  and  C_24
REMARK   10  A    between atoms: C_24  and  C_25
REMARK                            x       y       z     vdW  Elec       q    Type
REMARK                         _______ _______ _______ _____ _____    ______ ____
ROOT
ATOM     12  C   UNL     1      -1.073   4.878   0.000  0.00  0.00    +0.026 C 
ATOM     13  C   UNL     1      -1.073   5.703   0.000  0.00  0.00    +0.005 C 
ATOM     14  C   UNL     1      -0.358   6.116   0.000  0.00  0.00    +0.006 C 
ATOM     18  C   UNL     1       0.356   5.703   0.000  0.00  0.00    +0.043 C 
ATOM     28  C   UNL     1       0.356   4.878   0.000  0.00  0.00    -0.033 C 
ATOM     29  C   UNL     1      -0.358   4.466   0.000  0.00  0.00    -0.048 C 
ATOM     30  C   UNL     1      -0.358   3.641   0.000  0.00  0.00    +0.026 C 
ENDROOT
BRANCH  14  15
ATOM     15  C   UNL     1      -0.358   6.941   0.000  0.00  0.00    +0.000 C 
ATOM     16  C   UNL     1       0.356   7.353   0.000  0.00  0.00    +0.000 C 
ATOM     17  C   UNL     1      -1.073   7.353   0.000  0.00  0.00    +0.000 C 
ENDBRANCH  14  15
BRANCH  12  11
ATOM     11  C   UNL     1      -1.787   4.466   0.000  0.00  0.00    +0.070 C 
BRANCH  11  10
ATOM      5  C   UNL     1      -2.200   0.942   0.000  0.00  0.00    +0.077 A 
ATOM      6  C   UNL     1      -2.612   1.657   0.000  0.00  0.00    +0.027 A 
ATOM      7  C   UNL     1      -2.200   2.371   0.000  0.00  0.00    +0.100 A 
ATOM      8  C   UNL     1      -1.375   2.371   0.000  0.00  0.00    +0.100 A 
ATOM      9  N   UNL     1      -1.120   3.156   0.000  0.00  0.00    -0.229 NA
ATOM     10  C   UNL     1      -1.787   3.641   0.000  0.00  0.00    +0.139 A 
ATOM     31  N   UNL     1      -2.455   3.156   0.000  0.00  0.00    -0.229 NA
ATOM     32  C   UNL     1      -0.962   1.657   0.000  0.00  0.00    +0.021 A 
ATOM     33  C   UNL     1      -1.375   0.942   0.000  0.00  0.00    +0.008 A 
BRANCH   5   3
ATOM      3  C   UNL     1      -2.612   0.228   0.000  0.00  0.00    +0.341 C 
ATOM      4  O   UNL     1      -3.437   0.228   0.000  0.00  0.00    -0.245 OA
BRANCH   3   2
ATOM      1  C   UNL     1      -2.612  -1.201   0.000  0.00  0.00    +0.256 C 
ATOM      2  O   UNL     1      -2.200  -0.487   0.000  0.00  0.00    -0.441 OA
ENDBRANCH   3   2
ENDBRANCH   5   3
ENDBRANCH  11  10
ENDBRANCH  12  11
BRANCH  18  19
ATOM     19  C   UNL     1       1.071   6.116   0.000  0.00  0.00    +0.119 C 
BRANCH  19  20
ATOM     20  N   UNL     1       1.785   5.703   0.000  0.00  0.00    -0.205 NA
ATOM     21  C   UNL     1       2.499   6.116   0.000  0.00  0.00    +0.242 C 
ATOM     22  O   UNL     1       2.499   6.941   0.000  0.00  0.00    -0.273 OA
BRANCH  21  23
ATOM     23  C   UNL     1       3.214   5.703   0.000  0.00  0.00    +0.099 C 
BRANCH  23  24
ATOM     24  C   UNL     1       3.928   6.116   0.000  0.00  0.00    +0.124 C 
BRANCH  24  25
ATOM     25  C   UNL     1       4.643   5.703   0.000  0.00  0.00    +0.365 C 
ATOM     26  O   UNL     1       5.357   6.116   0.000  0.00  0.00    -0.246 OA
ATOM     27  O   UNL     1       4.643   4.878   0.000  0.00  0.00    -0.246 OA
ENDBRANCH  24  25
ENDBRANCH  23  24
ENDBRANCH  21  23
ENDBRANCH  19  20
ENDBRANCH  18  19
TORSDOF 10
