REMARK  Name = 
REMARK  8 active torsions:
REMARK  status: ('A' for Active; 'I' for Inactive)
REMARK    1  A    between atoms: C_2  and  C_3
REMARK    2  A    between atoms: C_3  and  C_4
REMARK    3  A    between atoms: C_7  and  C_8
REMARK    4  A    between atoms: C_8  and  C_9
REMARK    5  A    between atoms: C_11  and  C_12
REMARK    6  A    between atoms: C_15  and  C_16
REMARK    7  A    between atoms: C_16  and  N_17
REMARK    8  A    between atoms: C_20  and  C_21
REMARK                            x       y       z     vdW  Elec       q    Type
REMARK                         _______ _______ _______ _____ _____    ______ ____
ROOT
ATOM      9  C   UNL     1      -4.027  -4.113   0.000  0.00  0.00    +0.027 C 
ATOM     10  C   UNL     1      -4.512  -4.780   0.000  0.00  0.00    +0.005 C 
ATOM     11  C   UNL     1      -4.177  -5.534   0.000  0.00  0.00    +0.006 C 
ATOM     15  C   UNL     1      -3.356  -5.620   0.000  0.00  0.00    +0.037 C 
ATOM     25  C   UNL     1      -2.872  -4.953   0.000  0.00  0.00    -0.034 C 
ATOM     26  C   UNL     1      -3.207  -4.199   0.000  0.00  0.00    -0.048 C 
ATOM     27  C   UNL     1      -2.722  -3.532   0.000  0.00  0.00    +0.026 C 
ENDROOT
BRANCH  11  12
ATOM     12  C   UNL     1      -4.662  -6.202   0.000  0.00  0.00    +0.000 C 
ATOM     13  C   UNL     1      -4.326  -6.955   0.000  0.00  0.00    +0.000 C 
ATOM     14  C   UNL     1      -5.482  -6.115   0.000  0.00  0.00    +0.000 C 
ENDBRANCH  11  12
BRANCH   9   8
ATOM      8  C   UNL     1      -4.363  -3.359   0.000  0.00  0.00    +0.091 C 
BRANCH   8   7
ATOM      4  C   UNL     1      -3.466  -1.422   0.000  0.00  0.00    +0.226 A 
ATOM      5  N   UNL     1      -2.798  -1.907   0.000  0.00  0.00    -0.112 NA
ATOM      6  N   UNL     1      -3.053  -2.692   0.000  0.00  0.00    -0.112 NA
ATOM      7  C   UNL     1      -3.878  -2.692   0.000  0.00  0.00    +0.226 A 
ATOM     28  O   UNL     1      -4.133  -1.907   0.000  0.00  0.00    -0.423 OA
BRANCH   4   3
ATOM      3  C   UNL     1      -3.466  -0.597   0.000  0.00  0.00    +0.087 C 
BRANCH   3   2
ATOM      1  C   UNL     1      -2.751   0.640   0.000  0.00  0.00    +0.001 C 
ATOM      2  C   UNL     1      -2.751  -0.185   0.000  0.00  0.00    +0.010 C 
ENDBRANCH   3   2
ENDBRANCH   4   3
ENDBRANCH   8   7
ENDBRANCH   9   8
BRANCH  15  16
ATOM     16  C   UNL     1      -3.021  -6.374   0.000  0.00  0.00    +0.076 C 
BRANCH  16  17
ATOM     17  N   UNL     1      -2.200  -6.460   0.000  0.00  0.00    -0.272 NA
ATOM     18  C   UNL     1      -1.715  -5.793   0.000  0.00  0.00    +0.072 C 
ATOM     19  C   UNL     1      -0.895  -5.879   0.000  0.00  0.00    +0.020 C 
ATOM     20  C   UNL     1      -0.559  -6.633   0.000  0.00  0.00    +0.036 C 
ATOM     23  C   UNL     1      -1.044  -7.300   0.000  0.00  0.00    +0.020 C 
ATOM     24  C   UNL     1      -1.865  -7.214   0.000  0.00  0.00    +0.072 C 
BRANCH  20  21
ATOM     21  C   UNL     1       0.261  -6.719   0.000  0.00  0.00    +0.182 C 
ATOM     22  O   UNL     1       0.746  -6.051   0.000  0.00  0.00    -0.220 OA
ENDBRANCH  20  21
ENDBRANCH  16  17
ENDBRANCH  15  16
TORSDOF 8
