REMARK  Name = 
REMARK  7 active torsions:
REMARK  status: ('A' for Active; 'I' for Inactive)
REMARK    1  A    between atoms: C_1  and  N_2
REMARK    2  A    between atoms: C_1  and  C_28
REMARK    3  A    between atoms: N_2  and  C_3
REMARK    4  A    between atoms: C_7  and  N_11
REMARK    5  A    between atoms: C_15  and  O_16
REMARK    6  A    between atoms: O_16  and  C_17
REMARK    7  A    between atoms: C_20  and  N_23
REMARK                            x       y       z     vdW  Elec       q    Type
REMARK                         _______ _______ _______ _____ _____    ______ ____
ROOT
ATOM     11  N   UNL     1       3.094   1.197   0.000  0.00  0.00    -0.180 N 
ATOM     12  N   UNL     1       2.609   1.865   0.000  0.00  0.00    -0.040 NA
ATOM     13  N   UNL     1       3.094   2.532   0.000  0.00  0.00    -0.020 NA
ATOM     14  N   UNL     1       3.878   2.277   0.000  0.00  0.00    -0.071 NA
ATOM     15  C   UNL     1       3.878   1.452   0.000  0.00  0.00    +0.343 A 
ENDROOT
BRANCH  11   7
ATOM      3  C   UNL     1       1.270  -0.922   0.000  0.00  0.00    +0.132 C 
ATOM      4  C   UNL     1       0.785  -0.255   0.000  0.00  0.00    +0.162 C 
ATOM      5  O   UNL     1       1.270   0.412   0.000  0.00  0.00    -0.350 OA
ATOM      6  C   UNL     1       2.054   0.158   0.000  0.00  0.00    +0.169 C 
ATOM      7  C   UNL     1       2.839   0.412   0.000  0.00  0.00    +0.170 C 
ATOM      8  C   UNL     1       3.324  -0.255   0.000  0.00  0.00    +0.169 C 
ATOM      9  O   UNL     1       2.839  -0.922   0.000  0.00  0.00    -0.350 OA
ATOM     10  C   UNL     1       2.054  -0.667   0.000  0.00  0.00    +0.163 C 
BRANCH   3   2
ATOM      2  N   UNL     1       1.015  -1.707   0.000  0.00  0.00    -0.214 NA
BRANCH   2   1
ATOM      1  C   UNL     1       1.567  -2.320   0.000  0.00  0.00    +0.089 C 
BRANCH   1  28
ATOM     28  C   UNL     1       1.312  -3.105   0.000  0.00  0.00    +0.017 C 
ATOM     29  C   UNL     1       1.483  -3.912   0.000  0.00  0.00    +0.001 C 
ATOM     30  C   UNL     1       0.699  -3.657   0.000  0.00  0.00    +0.001 C 
ENDBRANCH   1  28
ENDBRANCH   2   1
ENDBRANCH   3   2
ENDBRANCH  11   7
BRANCH  15  16
ATOM     16  O   UNL     1       4.546   0.967   0.000  0.00  0.00    -0.421 OA
BRANCH  16  17
ATOM     17  C   UNL     1       5.300   1.303   0.000  0.00  0.00    +0.149 A 
ATOM     18  C   UNL     1       5.386   2.123   0.000  0.00  0.00    +0.039 A 
ATOM     19  C   UNL     1       6.139   2.459   0.000  0.00  0.00    +0.022 A 
ATOM     20  C   UNL     1       6.807   1.974   0.000  0.00  0.00    +0.085 A 
ATOM     21  C   UNL     1       6.721   1.153   0.000  0.00  0.00    +0.022 A 
ATOM     22  C   UNL     1       5.967   0.818   0.000  0.00  0.00    +0.039 A 
BRANCH  20  23
ATOM     23  N   UNL     1       7.561   2.309   0.000  0.00  0.00    -0.208 N 
ATOM     24  C   UNL     1       7.732   3.116   0.000  0.00  0.00    +0.202 A 
ATOM     25  N   UNL     1       8.553   3.203   0.000  0.00  0.00    -0.200 NA
ATOM     26  C   UNL     1       8.888   2.449   0.000  0.00  0.00    +0.221 A 
ATOM     27  N   UNL     1       8.275   1.897   0.000  0.00  0.00    -0.141 NA
ENDBRANCH  20  23
ENDBRANCH  16  17
ENDBRANCH  15  16
TORSDOF 7
