REMARK  Name = 
REMARK  5 active torsions:
REMARK  status: ('A' for Active; 'I' for Inactive)
REMARK    1  A    between atoms: O_2  and  C_3
REMARK    2  A    between atoms: C_3  and  C_4
REMARK    3  A    between atoms: C_10  and  C_12
REMARK    4  A    between atoms: C_12  and  O_14
REMARK    5  A    between atoms: C_16  and  C_18
REMARK                            x       y       z     vdW  Elec       q    Type
REMARK                         _______ _______ _______ _____ _____    ______ ____
ROOT
ATOM      4  C   UNL     1       2.143  -0.412   0.000  0.00  0.00    +0.256 C 
ATOM      5  O   UNL     1       1.429   0.000   0.000  0.00  0.00    -0.272 OA
ATOM      6  N   UNL     1       2.143  -1.238   0.000  0.00  0.00    -0.273 N 
ATOM      7  C   UNL     1       1.429  -1.650   0.000  0.00  0.00    +0.115 C 
ATOM      8  C   UNL     1       1.429  -2.475   0.000  0.00  0.00    +0.115 C 
ATOM      9  N   UNL     1       2.143  -2.888   0.000  0.00  0.00    -0.268 N 
ATOM     10  C   UNL     1       2.858  -2.475   0.000  0.00  0.00    +0.195 C 
ATOM     11  C   UNL     1       2.858  -1.650   0.000  0.00  0.00    +0.125 C 
ATOM     16  C   UNL     1       2.143  -3.712   0.000  0.00  0.00    +0.226 C 
ATOM     17  O   UNL     1       2.858  -4.125   0.000  0.00  0.00    -0.275 OA
ENDROOT
BRANCH  16  18
ATOM     18  C   UNL     1       1.429  -4.125   0.000  0.00  0.00    +0.077 C 
ATOM     19  C   UNL     1       1.429  -4.950   0.000  0.00  0.00    +0.009 C 
ATOM     20  C   UNL     1       0.715  -5.362   0.000  0.00  0.00    +0.000 C 
ATOM     21  C   UNL     1       0.000  -4.950   0.000  0.00  0.00    +0.000 C 
ATOM     22  C   UNL     1       0.000  -4.125   0.000  0.00  0.00    +0.000 C 
ATOM     23  C   UNL     1       0.715  -3.712   0.000  0.00  0.00    +0.009 C 
ENDBRANCH  16  18
BRANCH  10  12
ATOM     12  C   UNL     1       3.572  -2.888   0.000  0.00  0.00    +0.337 C 
ATOM     13  O   UNL     1       3.572  -3.712   0.000  0.00  0.00    -0.248 OA
BRANCH  12  14
ATOM     14  O   UNL     1       4.287  -2.475   0.000  0.00  0.00    -0.443 OA
ATOM     15  C   UNL     1       4.287  -1.650   0.000  0.00  0.00    +0.256 C 
ENDBRANCH  12  14
ENDBRANCH  10  12
BRANCH   4   3
ATOM      3  C   UNL     1       2.858   0.000   0.000  0.00  0.00    +0.227 C 
BRANCH   3   2
ATOM      1  C   UNL     1       3.572   1.238   0.000  0.00  0.00    +0.175 C 
ATOM      2  O   UNL     1       2.858   0.825   0.000  0.00  0.00    -0.342 OA
ENDBRANCH   3   2
ENDBRANCH   4   3
TORSDOF 5
