REMARK  Name = 
REMARK  5 active torsions:
REMARK  status: ('A' for Active; 'I' for Inactive)
REMARK    1  A    between atoms: C_2  and  N_4
REMARK    2  A    between atoms: N_7  and  C_8
REMARK    3  A    between atoms: C_8  and  C_9
REMARK    4  A    between atoms: C_12  and  N_13
REMARK    5  A    between atoms: N_13  and  C_14
REMARK                            x       y       z     vdW  Elec       q    Type
REMARK                         _______ _______ _______ _____ _____    ______ ____
ROOT
ATOM      9  C   UNL     1       4.018  -3.422   0.000  0.00  0.00    +0.169 C 
ATOM     10  O   UNL     1       4.104  -2.602   0.000  0.00  0.00    -0.350 OA
ATOM     11  C   UNL     1       4.911  -2.430   0.000  0.00  0.00    +0.162 C 
ATOM     12  C   UNL     1       5.323  -3.145   0.000  0.00  0.00    +0.135 C 
ATOM     18  C   UNL     1       4.771  -3.758   0.000  0.00  0.00    +0.199 C 
ATOM     19  O   UNL     1       4.943  -4.565   0.000  0.00  0.00    -0.219 OA
ENDROOT
BRANCH   9   8
ATOM      8  C   UNL     1       3.303  -3.835   0.000  0.00  0.00    +0.149 C 
BRANCH   8   7
ATOM      4  N   UNL     1       1.160  -3.422   0.000  0.00  0.00    -0.189 NA
ATOM      5  C   UNL     1       1.874  -3.835   0.000  0.00  0.00    +0.339 C 
ATOM      6  O   UNL     1       1.874  -4.660   0.000  0.00  0.00    -0.249 OA
ATOM      7  N   UNL     1       2.589  -3.422   0.000  0.00  0.00    -0.185 NA
BRANCH   4   2
ATOM      1  C   UNL     1      -0.269  -3.422   0.000  0.00  0.00    +0.023 C 
ATOM      2  C   UNL     1       0.445  -3.835   0.000  0.00  0.00    +0.097 C 
ATOM      3  C   UNL     1       0.445  -4.660   0.000  0.00  0.00    +0.023 C 
ENDBRANCH   4   2
ENDBRANCH   8   7
ENDBRANCH   9   8
BRANCH  12  13
ATOM     13  N   UNL     1       6.144  -3.231   0.000  0.00  0.00    -0.216 NA
BRANCH  13  14
ATOM     14  C   UNL     1       6.479  -3.985   0.000  0.00  0.00    +0.073 C 
ATOM     15  C   UNL     1       7.250  -4.280   0.000  0.00  0.00    +0.017 C 
ATOM     16  C   UNL     1       6.954  -5.051   0.000  0.00  0.00    +0.003 C 
ATOM     17  C   UNL     1       6.184  -4.755   0.000  0.00  0.00    +0.017 C 
ENDBRANCH  13  14
ENDBRANCH  12  13
TORSDOF 5
