REMARK  Name = 
REMARK  4 active torsions:
REMARK  status: ('A' for Active; 'I' for Inactive)
REMARK    1  A    between atoms: C_7  and  C_8
REMARK    2  A    between atoms: N_10  and  C_11
REMARK    3  A    between atoms: C_17  and  C_18
REMARK    4  A    between atoms: C_21  and  N_24
REMARK                            x       y       z     vdW  Elec       q    Type
REMARK                         _______ _______ _______ _____ _____    ______ ____
ROOT
ATOM     11  C   UNL     1       1.823  -2.489   0.000  0.00  0.00    +0.133 C 
ATOM     12  C   UNL     1       1.156  -2.974   0.000  0.00  0.00    +0.202 C 
ATOM     13  O   UNL     1       1.156  -3.799   0.000  0.00  0.00    -0.219 OA
ATOM     14  C   UNL     1       0.489  -2.489   0.000  0.00  0.00    +0.184 C 
ATOM     15  O   UNL     1      -0.296  -2.744   0.000  0.00  0.00    -0.220 OA
ATOM     16  C   UNL     1       0.744  -1.704   0.000  0.00  0.00    +0.042 C 
ATOM     17  C   UNL     1       1.569  -1.704   0.000  0.00  0.00    +0.049 C 
ENDROOT
BRANCH  17  18
ATOM     18  C   UNL     1       2.054  -1.037   0.000  0.00  0.00    -0.001 A 
ATOM     19  C   UNL     1       1.718  -0.283   0.000  0.00  0.00    +0.000 A 
ATOM     20  C   UNL     1       2.203   0.384   0.000  0.00  0.00    +0.034 A 
ATOM     21  C   UNL     1       3.023   0.298   0.000  0.00  0.00    +0.132 A 
ATOM     22  N   UNL     1       3.359  -0.456   0.000  0.00  0.00    -0.229 NA
ATOM     23  C   UNL     1       2.874  -1.123   0.000  0.00  0.00    +0.096 A 
BRANCH  21  24
ATOM     24  N   UNL     1       3.508   0.965   0.000  0.00  0.00    -0.288 N 
ATOM     25  C   UNL     1       3.173   1.719   0.000  0.00  0.00    +0.124 C 
ATOM     26  C   UNL     1       3.658   2.386   0.000  0.00  0.00    +0.164 C 
ATOM     27  O   UNL     1       4.478   2.300   0.000  0.00  0.00    -0.350 OA
ATOM     28  C   UNL     1       4.814   1.547   0.000  0.00  0.00    +0.164 C 
ATOM     29  C   UNL     1       4.329   0.879   0.000  0.00  0.00    +0.124 C 
ENDBRANCH  21  24
ENDBRANCH  17  18
BRANCH  11  10
ATOM      8  C   UNL     1       2.780  -3.551   0.000  0.00  0.00    +0.282 C 
ATOM      9  O   UNL     1       2.167  -4.103   0.000  0.00  0.00    -0.267 OA
ATOM     10  N   UNL     1       2.608  -2.744   0.000  0.00  0.00    -0.199 NA
BRANCH   8   7
ATOM      1  C   UNL     1       4.232  -2.496   0.000  0.00  0.00    +0.154 C 
ATOM      2  N   UNL     1       4.232  -3.321   0.000  0.00  0.00    -0.245 N 
ATOM      3  N   UNL     1       4.899  -3.806   0.000  0.00  0.00    -0.173 NA
ATOM      4  C   UNL     1       4.644  -4.590   0.000  0.00  0.00    +0.081 A 
ATOM      5  C   UNL     1       5.129  -5.258   0.000  0.00  0.00    +0.054 C 
ATOM      6  C   UNL     1       3.819  -4.590   0.000  0.00  0.00    +0.040 A 
ATOM      7  C   UNL     1       3.564  -3.806   0.000  0.00  0.00    +0.134 A 
ENDBRANCH   8   7
ENDBRANCH  11  10
TORSDOF 4
