REMARK  Name = 
REMARK  1 active torsions:
REMARK  status: ('A' for Active; 'I' for Inactive)
REMARK    1  A    between atoms: C_14  and  C_16
REMARK                            x       y       z     vdW  Elec       q    Type
REMARK                         _______ _______ _______ _____ _____    ______ ____
ROOT
ATOM      1  C   UNL     1       1.393  -0.054   0.000  0.00  0.00    +0.012 C 
ATOM      2  C   UNL     1       2.105  -0.471   0.000  0.00  0.00    +0.103 C 
ATOM      3  C   UNL     1       2.861  -0.139   0.000  0.00  0.00    +0.051 C 
ATOM      4  C   UNL     1       3.120   0.644   0.000  0.00  0.00    +0.004 C 
ATOM      5  C   UNL     1       3.928   0.811   0.000  0.00  0.00    +0.001 C 
ATOM      6  C   UNL     1       4.477   0.194   0.000  0.00  0.00    +0.008 C 
ATOM      7  C   UNL     1       4.736   0.978   0.000  0.00  0.00    +0.000 C 
ATOM      8  C   UNL     1       5.285   0.361   0.000  0.00  0.00    +0.034 C 
ATOM      9  C   UNL     1       5.833  -0.255   0.000  0.00  0.00    +0.023 A 
ATOM     10  C   UNL     1       5.574  -1.038   0.000  0.00  0.00    +0.063 A 
ATOM     11  N   UNL     1       6.239  -1.527   0.000  0.00  0.00    -0.227 NA
ATOM     12  C   UNL     1       6.909  -1.046   0.000  0.00  0.00    +0.185 A 
ATOM     13  N   UNL     1       7.692  -1.305   0.000  0.00  0.00    -0.151 NA
ATOM     14  C   UNL     1       8.308  -0.757   0.000  0.00  0.00    +0.271 C 
ATOM     15  O   UNL     1       8.141   0.051   0.000  0.00  0.00    -0.268 OA
ATOM     24  S   UNL     1       6.658  -0.260   0.000  0.00  0.00    -0.054 S 
ATOM     25  C   UNL     1       4.766  -1.205   0.000  0.00  0.00    +0.044 C 
ATOM     26  C   UNL     1       4.507  -1.988   0.000  0.00  0.00    +0.006 C 
ATOM     27  C   UNL     1       4.218  -0.589   0.000  0.00  0.00    +0.046 C 
ATOM     28  C   UNL     1       3.409  -0.756   0.000  0.00  0.00    +0.170 C 
ATOM     29  O   UNL     1       2.993  -1.468   0.000  0.00  0.00    -0.452 OA
ATOM     30  C   UNL     1       2.187  -1.292   0.000  0.00  0.00    +0.316 C 
ATOM     31  O   UNL     1       1.571  -1.840   0.000  0.00  0.00    -0.250 OA
ENDROOT
BRANCH  14  16
ATOM     16  C   UNL     1       9.091  -1.016   0.000  0.00  0.00    +0.056 A 
ATOM     17  C   UNL     1       9.708  -0.468   0.000  0.00  0.00    +0.018 A 
ATOM     18  C   UNL     1      10.491  -0.727   0.000  0.00  0.00    +0.085 A 
ATOM     19 CL   UNL     1      11.107  -0.178   0.000  0.00  0.00    -0.080 Cl
ATOM     20  C   UNL     1      10.658  -1.535   0.000  0.00  0.00    +0.151 A 
ATOM     21  F   UNL     1      11.441  -1.794   0.000  0.00  0.00    -0.203 F 
ATOM     22  C   UNL     1      10.041  -2.083   0.000  0.00  0.00    +0.031 A 
ATOM     23  C   UNL     1       9.258  -1.824   0.000  0.00  0.00    +0.007 A 
ENDBRANCH  14  16
TORSDOF 1
