REMARK  Name = 
REMARK  7 active torsions:
REMARK  status: ('A' for Active; 'I' for Inactive)
REMARK    1  A    between atoms: C_4  and  N_19
REMARK    2  A    between atoms: C_6  and  C_7
REMARK    3  A    between atoms: C_9  and  C_12
REMARK    4  A    between atoms: C_20  and  C_22
REMARK    5  A    between atoms: C_22  and  O_23
REMARK    6  A    between atoms: O_23  and  C_24
REMARK    7  A    between atoms: C_24  and  C_25
REMARK                            x       y       z     vdW  Elec       q    Type
REMARK                         _______ _______ _______ _____ _____    ______ ____
ROOT
ATOM      1  C   UNL     1      -6.216  -3.853   0.000  0.00  0.00    +0.090 C 
ATOM      2  N   UNL     1      -5.395  -3.939   0.000  0.00  0.00    -0.264 NA
ATOM      3  C   UNL     1      -4.843  -3.326   0.000  0.00  0.00    +0.094 C 
ATOM      4  C   UNL     1      -4.090  -3.662   0.000  0.00  0.00    +0.113 C 
ATOM      5  C   UNL     1      -4.176  -4.482   0.000  0.00  0.00    +0.049 C 
ATOM      6  C   UNL     1      -4.983  -4.654   0.000  0.00  0.00    +0.139 C 
ENDROOT
BRANCH   6   7
ATOM      7  C   UNL     1      -5.318  -5.408   0.000  0.00  0.00    +0.251 A 
ATOM      8  N   UNL     1      -4.906  -6.122   0.000  0.00  0.00    -0.190 NA
ATOM      9  C   UNL     1      -5.458  -6.735   0.000  0.00  0.00    +0.203 A 
ATOM     10  N   UNL     1      -6.212  -6.400   0.000  0.00  0.00    -0.056 NA
ATOM     11  O   UNL     1      -6.125  -5.579   0.000  0.00  0.00    -0.336 OA
BRANCH   9  12
ATOM     12  C   UNL     1      -5.286  -7.542   0.000  0.00  0.00    +0.039 A 
ATOM     13  C   UNL     1      -4.502  -7.797   0.000  0.00  0.00    +0.005 A 
ATOM     14  C   UNL     1      -4.330  -8.604   0.000  0.00  0.00    +0.030 A 
ATOM     15  C   UNL     1      -4.943  -9.156   0.000  0.00  0.00    +0.140 A 
ATOM     16  F   UNL     1      -4.772  -9.963   0.000  0.00  0.00    -0.204 F 
ATOM     17  C   UNL     1      -5.728  -8.901   0.000  0.00  0.00    +0.030 A 
ATOM     18  C   UNL     1      -5.899  -8.094   0.000  0.00  0.00    +0.005 A 
ENDBRANCH   9  12
ENDBRANCH   6   7
BRANCH   4  19
ATOM     19  N   UNL     1      -3.375  -3.249   0.000  0.00  0.00    -0.204 NA
ATOM     20  C   UNL     1      -2.661  -3.662   0.000  0.00  0.00    +0.272 C 
ATOM     21  O   UNL     1      -2.661  -4.487   0.000  0.00  0.00    -0.271 OA
BRANCH  20  22
ATOM     22  C   UNL     1      -1.946  -3.249   0.000  0.00  0.00    +0.229 C 
BRANCH  22  23
ATOM     23  O   UNL     1      -1.232  -3.662   0.000  0.00  0.00    -0.333 OA
BRANCH  23  24
ATOM     24  C   UNL     1      -0.517  -3.249   0.000  0.00  0.00    +0.257 C 
BRANCH  24  25
ATOM     25  C   UNL     1       0.197  -3.662   0.000  0.00  0.00    +0.394 C 
ATOM     26  O   UNL     1       0.912  -3.249   0.000  0.00  0.00    -0.243 OA
ATOM     27  O   UNL     1       0.197  -4.487   0.000  0.00  0.00    -0.243 OA
ENDBRANCH  24  25
ENDBRANCH  23  24
ENDBRANCH  22  23
ENDBRANCH  20  22
ENDBRANCH   4  19
TORSDOF 7
