REMARK  Name = 
REMARK  6 active torsions:
REMARK  status: ('A' for Active; 'I' for Inactive)
REMARK    1  A    between atoms: O_2  and  C_3
REMARK    2  A    between atoms: C_6  and  S_9
REMARK    3  A    between atoms: S_9  and  N_12
REMARK    4  A    between atoms: N_12  and  C_13
REMARK    5  A    between atoms: N_21  and  C_22
REMARK    6  A    between atoms: C_22  and  C_23
REMARK                            x       y       z     vdW  Elec       q    Type
REMARK                         _______ _______ _______ _____ _____    ______ ____
ROOT
ATOM     13  C   UNL     1      -1.296  -1.150   0.000  0.00  0.00    +0.147 A 
ATOM     14  C   UNL     1      -1.167  -0.335   0.000  0.00  0.00    +0.024 A 
ATOM     15  C   UNL     1      -0.397  -0.039   0.000  0.00  0.00    +0.014 A 
ATOM     16  C   UNL     1       0.244  -0.558   0.000  0.00  0.00    +0.041 A 
ATOM     17  C   UNL     1       1.163  -0.557   0.000  0.00  0.00    +0.054 C 
ATOM     18  C   UNL     1       1.713  -0.121   0.000  0.00  0.00    +0.011 C 
ATOM     19  C   UNL     1       1.582  -0.925   0.000  0.00  0.00    +0.039 C 
ATOM     20  C   UNL     1       1.629  -1.912   0.000  0.00  0.00    +0.074 C 
ATOM     21  N   UNL     1       0.813  -2.091   0.000  0.00  0.00    -0.269 NA
ATOM     33  C   UNL     1       1.225  -1.510   0.000  0.00  0.00    +0.078 C 
ATOM     34  C   UNL     1       0.622  -0.936   0.000  0.00  0.00    +0.110 C 
ATOM     35  N   UNL     1       0.115  -1.373   0.000  0.00  0.00    -0.298 N 
ATOM     36  C   UNL     1      -0.655  -1.669   0.000  0.00  0.00    +0.277 A 
ATOM     37  O   UNL     1      -0.784  -2.484   0.000  0.00  0.00    -0.266 OA
ENDROOT
BRANCH  13  12
ATOM     12  N   UNL     1      -2.066  -1.445   0.000  0.00  0.00    -0.092 NA
BRANCH  12   9
ATOM      9  S   UNL     1      -2.195  -2.260   0.000  0.00  0.00    +0.093 S 
ATOM     10  O   UNL     1      -1.380  -2.389   0.000  0.00  0.00    -0.148 OA
ATOM     11  O   UNL     1      -3.010  -2.131   0.000  0.00  0.00    -0.148 OA
BRANCH   9   6
ATOM      3  C   UNL     1      -2.582  -4.705   0.000  0.00  0.00    +0.139 A 
ATOM      4  C   UNL     1      -3.223  -4.186   0.000  0.00  0.00    +0.038 A 
ATOM      5  C   UNL     1      -3.094  -3.371   0.000  0.00  0.00    +0.023 A 
ATOM      6  C   UNL     1      -2.324  -3.075   0.000  0.00  0.00    +0.127 A 
ATOM      7  C   UNL     1      -1.683  -3.594   0.000  0.00  0.00    +0.023 A 
ATOM      8  C   UNL     1      -1.812  -4.409   0.000  0.00  0.00    +0.038 A 
BRANCH   3   2
ATOM      1  C   UNL     1      -2.070  -6.039   0.000  0.00  0.00    +0.252 C 
ATOM      2  O   UNL     1      -2.711  -5.520   0.000  0.00  0.00    -0.471 OA
ENDBRANCH   3   2
ENDBRANCH   9   6
ENDBRANCH  12   9
ENDBRANCH  13  12
BRANCH  21  22
ATOM     22  C   UNL     1       0.125  -2.547   0.000  0.00  0.00    +0.101 C 
BRANCH  22  23
ATOM     23  C   UNL     1       0.176  -3.370   0.000  0.00  0.00    +0.012 A 
ATOM     24  C   UNL     1      -0.461  -3.896   0.000  0.00  0.00    +0.073 A 
ATOM     25  N   UNL     1      -0.158  -4.663   0.000  0.00  0.00    -0.324 N 
ATOM     26  C   UNL     1      -0.601  -5.359   0.000  0.00  0.00    +0.130 C 
ATOM     27  C   UNL     1       0.665  -4.612   0.000  0.00  0.00    +0.060 A 
ATOM     28  C   UNL     1       0.872  -3.813   0.000  0.00  0.00    +0.015 A 
ATOM     29  C   UNL     1       1.667  -3.593   0.000  0.00  0.00    +0.001 A 
ATOM     30  C   UNL     1       2.255  -4.171   0.000  0.00  0.00    +0.000 A 
ATOM     31  C   UNL     1       2.049  -4.970   0.000  0.00  0.00    +0.001 A 
ATOM     32  C   UNL     1       1.254  -5.190   0.000  0.00  0.00    +0.017 A 
ENDBRANCH  22  23
ENDBRANCH  21  22
TORSDOF 6
