REMARK  Name = 
REMARK  7 active torsions:
REMARK  status: ('A' for Active; 'I' for Inactive)
REMARK    1  A    between atoms: N_4  and  C_5
REMARK    2  A    between atoms: C_8  and  S_11
REMARK    3  A    between atoms: S_11  and  N_14
REMARK    4  A    between atoms: N_14  and  C_15
REMARK    5  A    between atoms: C_17  and  C_20
REMARK    6  A    between atoms: N_23  and  C_27
REMARK    7  A    between atoms: C_30  and  C_33
REMARK                            x       y       z     vdW  Elec       q    Type
REMARK                         _______ _______ _______ _____ _____    ______ ____
ROOT
ATOM     15  C   UNL     1      -0.596  -3.041   0.000  0.00  0.00    +0.120 C 
ATOM     16  C   UNL     1       0.072  -3.525   0.000  0.00  0.00    +0.033 C 
ATOM     17  C   UNL     1      -0.183  -4.310   0.000  0.00  0.00    +0.048 C 
ATOM     18  C   UNL     1      -1.008  -4.310   0.000  0.00  0.00    -0.025 C 
ATOM     19  C   UNL     1      -1.263  -3.525   0.000  0.00  0.00    -0.011 C 
ENDROOT
BRANCH  17  20
ATOM     20  C   UNL     1       0.302  -4.977   0.000  0.00  0.00    +0.010 A 
ATOM     21  C   UNL     1       1.127  -4.977   0.000  0.00  0.00    +0.058 A 
ATOM     22  C   UNL     1       1.612  -4.310   0.000  0.00  0.00    +0.052 C 
ATOM     23  N   UNL     1       1.382  -5.762   0.000  0.00  0.00    -0.234 N 
ATOM     24  N   UNL     1       0.715  -6.247   0.000  0.00  0.00    -0.170 NA
ATOM     25  C   UNL     1       0.047  -5.762   0.000  0.00  0.00    +0.077 A 
ATOM     26  C   UNL     1      -0.738  -6.017   0.000  0.00  0.00    +0.054 C 
BRANCH  23  27
ATOM     27  C   UNL     1       2.167  -6.017   0.000  0.00  0.00    +0.082 A 
ATOM     28  C   UNL     1       2.780  -5.465   0.000  0.00  0.00    +0.019 A 
ATOM     29  C   UNL     1       3.564  -5.720   0.000  0.00  0.00    -0.003 A 
ATOM     30  C   UNL     1       3.736  -6.527   0.000  0.00  0.00    -0.023 A 
ATOM     31  C   UNL     1       3.123  -7.079   0.000  0.00  0.00    -0.003 A 
ATOM     32  C   UNL     1       2.338  -6.824   0.000  0.00  0.00    +0.019 A 
BRANCH  30  33
ATOM     33  C   UNL     1       4.520  -6.782   0.000  0.00  0.00    +0.019 C 
ATOM     34  C   UNL     1       5.305  -7.037   0.000  0.00  0.00    +0.004 C 
ATOM     35  C   UNL     1       4.266  -7.566   0.000  0.00  0.00    +0.004 C 
ATOM     36  C   UNL     1       4.775  -5.997   0.000  0.00  0.00    +0.004 C 
ENDBRANCH  30  33
ENDBRANCH  23  27
ENDBRANCH  17  20
BRANCH  15  14
ATOM     14  N   UNL     1      -0.596  -2.216   0.000  0.00  0.00    -0.075 NA
BRANCH  14  11
ATOM     11  S   UNL     1      -1.310  -1.803   0.000  0.00  0.00    +0.077 S 
ATOM     12  O   UNL     1      -1.722  -2.517   0.000  0.00  0.00    -0.152 OA
ATOM     13  O   UNL     1      -0.897  -1.089   0.000  0.00  0.00    -0.152 OA
BRANCH  11   8
ATOM      5  C   UNL     1      -3.453  -0.566   0.000  0.00  0.00    +0.073 A 
ATOM      6  C   UNL     1      -2.739  -0.153   0.000  0.00  0.00    +0.018 A 
ATOM      7  C   UNL     1      -2.024  -0.566   0.000  0.00  0.00    +0.021 A 
ATOM      8  C   UNL     1      -2.024  -1.391   0.000  0.00  0.00    +0.124 A 
ATOM      9  C   UNL     1      -2.739  -1.803   0.000  0.00  0.00    +0.021 A 
ATOM     10  C   UNL     1      -3.453  -1.391   0.000  0.00  0.00    +0.018 A 
BRANCH   5   4
ATOM      1  C   UNL     1      -5.597  -0.153   0.000  0.00  0.00    +0.097 C 
ATOM      2  C   UNL     1      -4.882  -0.566   0.000  0.00  0.00    +0.246 C 
ATOM      3  O   UNL     1      -4.882  -1.391   0.000  0.00  0.00    -0.273 OA
ATOM      4  N   UNL     1      -4.168  -0.153   0.000  0.00  0.00    -0.179 NA
ENDBRANCH   5   4
ENDBRANCH  11   8
ENDBRANCH  14  11
ENDBRANCH  15  14
TORSDOF 7
