REMARK  Name = 
REMARK  7 active torsions:
REMARK  status: ('A' for Active; 'I' for Inactive)
REMARK    1  A    between atoms: S_2  and  C_5
REMARK    2  A    between atoms: C_8  and  C_9
REMARK    3  A    between atoms: C_9  and  N_10
REMARK    4  A    between atoms: C_13  and  C_15
REMARK    5  A    between atoms: C_18  and  C_19
REMARK    6  A    between atoms: C_19  and  O_20
REMARK    7  A    between atoms: O_20  and  C_21
REMARK                            x       y       z     vdW  Elec       q    Type
REMARK                         _______ _______ _______ _____ _____    ______ ____
ROOT
ATOM     10  N   UNL     1       2.739  -4.278   0.000  0.00  0.00    -0.268 NA
ATOM     11  C   UNL     1       3.406  -4.763   0.000  0.00  0.00    +0.073 C 
ATOM     12  C   UNL     1       3.151  -5.548   0.000  0.00  0.00    +0.028 C 
ATOM     13  C   UNL     1       2.326  -5.548   0.000  0.00  0.00    +0.096 C 
ATOM     14  C   UNL     1       2.071  -4.763   0.000  0.00  0.00    +0.082 C 
ENDROOT
BRANCH  13  15
ATOM     15  C   UNL     1       1.841  -6.215   0.000  0.00  0.00    +0.227 A 
ATOM     16  N   UNL     1       2.096  -7.000   0.000  0.00  0.00    -0.112 NA
ATOM     17  N   UNL     1       1.429  -7.484   0.000  0.00  0.00    -0.108 NA
ATOM     18  C   UNL     1       0.761  -7.000   0.000  0.00  0.00    +0.270 A 
ATOM     28  O   UNL     1       1.016  -6.215   0.000  0.00  0.00    -0.420 OA
BRANCH  18  19
ATOM     19  C   UNL     1      -0.023  -7.255   0.000  0.00  0.00    +0.291 C 
BRANCH  19  20
ATOM     20  O   UNL     1      -0.195  -8.062   0.000  0.00  0.00    -0.465 OA
BRANCH  20  21
ATOM     21  C   UNL     1      -0.979  -8.316   0.000  0.00  0.00    +0.139 A 
ATOM     22  C   UNL     1      -1.151  -9.123   0.000  0.00  0.00    +0.039 A 
ATOM     23  C   UNL     1      -1.935  -9.378   0.000  0.00  0.00    +0.033 A 
ATOM     24  C   UNL     1      -2.549  -8.826   0.000  0.00  0.00    +0.140 A 
ATOM     25  F   UNL     1      -3.333  -9.081   0.000  0.00  0.00    -0.204 F 
ATOM     26  C   UNL     1      -2.377  -8.019   0.000  0.00  0.00    +0.033 A 
ATOM     27  C   UNL     1      -1.592  -7.764   0.000  0.00  0.00    +0.039 A 
ENDBRANCH  20  21
ENDBRANCH  19  20
ENDBRANCH  18  19
ENDBRANCH  13  15
BRANCH  10   9
ATOM      9  C   UNL     1       2.739  -3.453   0.000  0.00  0.00    +0.099 C 
BRANCH   9   8
ATOM      5  C   UNL     1       4.882  -2.216   0.000  0.00  0.00    +0.106 A 
ATOM      6  C   UNL     1       4.882  -3.041   0.000  0.00  0.00    +0.018 A 
ATOM      7  C   UNL     1       4.168  -3.453   0.000  0.00  0.00    -0.002 A 
ATOM      8  C   UNL     1       3.453  -3.041   0.000  0.00  0.00    -0.006 A 
ATOM     29  C   UNL     1       3.453  -2.216   0.000  0.00  0.00    -0.002 A 
ATOM     30  C   UNL     1       4.168  -1.803   0.000  0.00  0.00    +0.018 A 
BRANCH   5   2
ATOM      1  C   UNL     1       6.311  -1.391   0.000  0.00  0.00    +0.182 C 
ATOM      2  S   UNL     1       5.597  -1.803   0.000  0.00  0.00    +0.010 S 
ATOM      3  O   UNL     1       5.184  -1.089   0.000  0.00  0.00    -0.169 OA
ATOM      4  O   UNL     1       6.009  -2.517   0.000  0.00  0.00    -0.169 OA
ENDBRANCH   5   2
ENDBRANCH   9   8
ENDBRANCH  10   9
TORSDOF 7
