REMARK  Name = 
REMARK  9 active torsions:
REMARK  status: ('A' for Active; 'I' for Inactive)
REMARK    1  A    between atoms: O_2  and  C_3
REMARK    2  A    between atoms: C_6  and  C_7
REMARK    3  A    between atoms: C_7  and  N_8
REMARK    4  A    between atoms: C_9  and  C_11
REMARK    5  A    between atoms: C_11  and  C_12
REMARK    6  A    between atoms: C_14  and  C_15
REMARK    7  A    between atoms: C_18  and  C_19
REMARK    8  A    between atoms: C_19  and  N_20
REMARK    9  A    between atoms: C_21  and  C_23
REMARK                            x       y       z     vdW  Elec       q    Type
REMARK                         _______ _______ _______ _____ _____    ______ ____
ROOT
ATOM     12  C   UNL     1       3.572  -2.888   0.000  0.00  0.00    +0.027 C 
ATOM     13  C   UNL     1       4.287  -2.475   0.000  0.00  0.00    +0.005 C 
ATOM     14  C   UNL     1       5.001  -2.888   0.000  0.00  0.00    +0.006 C 
ATOM     18  C   UNL     1       5.001  -3.712   0.000  0.00  0.00    +0.043 C 
ATOM     28  C   UNL     1       4.287  -4.125   0.000  0.00  0.00    -0.033 C 
ATOM     29  C   UNL     1       3.572  -3.712   0.000  0.00  0.00    -0.048 C 
ATOM     30  C   UNL     1       2.858  -4.125   0.000  0.00  0.00    +0.026 C 
ENDROOT
BRANCH  14  15
ATOM     15  C   UNL     1       5.716  -2.475   0.000  0.00  0.00    +0.000 C 
ATOM     16  C   UNL     1       6.430  -2.888   0.000  0.00  0.00    +0.000 C 
ATOM     17  C   UNL     1       5.716  -1.650   0.000  0.00  0.00    +0.000 C 
ENDBRANCH  14  15
BRANCH  12  11
ATOM     11  C   UNL     1       2.858  -2.475   0.000  0.00  0.00    +0.091 C 
BRANCH  11   9
ATOM      8  N   UNL     1       1.429  -2.475   0.000  0.00  0.00    -0.201 NA
ATOM      9  C   UNL     1       2.143  -2.888   0.000  0.00  0.00    +0.242 C 
ATOM     10  O   UNL     1       2.143  -3.712   0.000  0.00  0.00    -0.273 OA
BRANCH   8   7
ATOM      7  C   UNL     1       0.715  -2.888   0.000  0.00  0.00    +0.141 C 
BRANCH   7   6
ATOM      3  C   UNL     1      -1.429  -1.650   0.000  0.00  0.00    +0.139 A 
ATOM      4  C   UNL     1      -0.715  -1.238   0.000  0.00  0.00    +0.037 A 
ATOM      5  C   UNL     1       0.000  -1.650   0.000  0.00  0.00    +0.001 A 
ATOM      6  C   UNL     1       0.000  -2.475   0.000  0.00  0.00    -0.000 A 
ATOM     31  C   UNL     1      -0.715  -2.888   0.000  0.00  0.00    +0.001 A 
ATOM     32  C   UNL     1      -1.429  -2.475   0.000  0.00  0.00    +0.037 A 
BRANCH   3   2
ATOM      1  C   UNL     1      -2.858  -1.650   0.000  0.00  0.00    +0.252 C 
ATOM      2  O   UNL     1      -2.143  -1.238   0.000  0.00  0.00    -0.471 OA
ENDBRANCH   3   2
ENDBRANCH   7   6
ENDBRANCH   8   7
ENDBRANCH  11   9
ENDBRANCH  12  11
BRANCH  18  19
ATOM     19  C   UNL     1       5.716  -4.125   0.000  0.00  0.00    +0.120 C 
BRANCH  19  20
ATOM     20  N   UNL     1       5.716  -4.950   0.000  0.00  0.00    -0.199 NA
ATOM     21  C   UNL     1       6.430  -5.362   0.000  0.00  0.00    +0.299 C 
ATOM     22  O   UNL     1       7.145  -4.950   0.000  0.00  0.00    -0.265 OA
BRANCH  21  23
ATOM     23  C   UNL     1       6.430  -6.188   0.000  0.00  0.00    +0.200 A 
ATOM     24  C   UNL     1       7.098  -6.672   0.000  0.00  0.00    +0.046 A 
ATOM     25  C   UNL     1       6.843  -7.457   0.000  0.00  0.00    +0.044 A 
ATOM     26  C   UNL     1       6.018  -7.457   0.000  0.00  0.00    +0.180 A 
ATOM     27  O   UNL     1       5.763  -6.672   0.000  0.00  0.00    -0.446 OA
ENDBRANCH  21  23
ENDBRANCH  19  20
ENDBRANCH  18  19
TORSDOF 9
