REMARK  Name = 
REMARK  5 active torsions:
REMARK  status: ('A' for Active; 'I' for Inactive)
REMARK    1  A    between atoms: C_2  and  C_4
REMARK    2  A    between atoms: C_4  and  C_5
REMARK    3  A    between atoms: C_5  and  C_6
REMARK    4  A    between atoms: C_6  and  C_7
REMARK    5  A    between atoms: C_21  and  C_24
REMARK                            x       y       z     vdW  Elec       q    Type
REMARK                         _______ _______ _______ _____ _____    ______ ____
ROOT
ATOM      7  C   UNL     1       6.912   0.608   0.000  0.00  0.00    +0.226 C 
ATOM      8  O   UNL     1       7.517   1.169   0.000  0.00  0.00    -0.275 OA
ATOM      9  N   UNL     1       6.124   0.851   0.000  0.00  0.00    -0.276 N 
ATOM     10  C   UNL     1       5.940   1.655   0.000  0.00  0.00    +0.115 C 
ATOM     11  C   UNL     1       5.152   1.899   0.000  0.00  0.00    +0.116 C 
ATOM     12  N   UNL     1       4.547   1.337   0.000  0.00  0.00    -0.266 N 
ATOM     13  C   UNL     1       4.731   0.533   0.000  0.00  0.00    +0.174 C 
ATOM     14  C   UNL     1       5.519   0.290   0.000  0.00  0.00    +0.123 C 
ATOM     15  C   UNL     1       4.216  -0.112   0.000  0.00  0.00    +0.265 C 
ATOM     16  O   UNL     1       4.574  -0.855   0.000  0.00  0.00    -0.271 OA
ATOM     17  N   UNL     1       3.391  -0.112   0.000  0.00  0.00    -0.178 NA
ATOM     18  C   UNL     1       2.877   0.533   0.000  0.00  0.00    +0.078 A 
ATOM     19  C   UNL     1       3.060   1.337   0.000  0.00  0.00    +0.069 A 
ATOM     20  C   UNL     1       2.456   1.899   0.000  0.00  0.00    +0.006 A 
ATOM     21  C   UNL     1       1.667   1.655   0.000  0.00  0.00    +0.001 A 
ATOM     22  C   UNL     1       1.484   0.851   0.000  0.00  0.00    +0.001 A 
ATOM     23  C   UNL     1       2.088   0.290   0.000  0.00  0.00    +0.017 A 
ATOM     29  C   UNL     1       3.804   1.695   0.000  0.00  0.00    +0.251 C 
ATOM     30  O   UNL     1       3.804   2.520   0.000  0.00  0.00    -0.270 OA
ENDROOT
BRANCH  21  24
ATOM     24  C   UNL     1       1.062   2.216   0.000  0.00  0.00    +0.007 A 
ATOM     25  C   UNL     1       0.253   2.057   0.000  0.00  0.00    +0.035 A 
ATOM     26  S   UNL     1      -0.149   2.778   0.000  0.00  0.00    -0.086 S 
ATOM     27  C   UNL     1       0.412   3.382   0.000  0.00  0.00    +0.035 A 
ATOM     28  C   UNL     1       1.161   3.035   0.000  0.00  0.00    +0.007 A 
ENDBRANCH  21  24
BRANCH   7   6
ATOM      6  C   UNL     1       7.096  -0.197   0.000  0.00  0.00    +0.086 C 
BRANCH   6   5
ATOM      5  C   UNL     1       7.884  -0.440   0.000  0.00  0.00    +0.019 C 
ATOM     31  C   UNL     1       8.706  -0.514   0.000  0.00  0.00    +0.001 C 
ATOM     32  C   UNL     1       8.889  -1.318   0.000  0.00  0.00    +0.000 C 
ATOM     33  C   UNL     1       8.181  -1.741   0.000  0.00  0.00    +0.000 C 
ATOM     34  C   UNL     1       7.560  -1.198   0.000  0.00  0.00    +0.001 C 
BRANCH   5   4
ATOM      4  C   UNL     1       8.043   0.370   0.000  0.00  0.00    +0.115 C 
BRANCH   4   2
ATOM      1  O   UNL     1       8.983   1.446   0.000  0.00  0.00    -0.246 OA
ATOM      2  C   UNL     1       8.824   0.636   0.000  0.00  0.00    +0.365 C 
ATOM      3  O   UNL     1       9.445   0.094   0.000  0.00  0.00    -0.246 OA
ENDBRANCH   4   2
ENDBRANCH   5   4
ENDBRANCH   6   5
ENDBRANCH   7   6
TORSDOF 5
