REMARK  Name = 
REMARK  7 active torsions:
REMARK  status: ('A' for Active; 'I' for Inactive)
REMARK    1  A    between atoms: O_2  and  C_3
REMARK    2  A    between atoms: C_4  and  C_5
REMARK    3  A    between atoms: C_5  and  N_6
REMARK    4  A    between atoms: C_7  and  C_9
REMARK    5  A    between atoms: C_16  and  C_17
REMARK    6  A    between atoms: C_17  and  N_18
REMARK    7  A    between atoms: C_20  and  C_23
REMARK                            x       y       z     vdW  Elec       q    Type
REMARK                         _______ _______ _______ _____ _____    ______ ____
ROOT
ATOM      9  C   UNL     1       1.661  -1.343   0.000  0.00  0.00    +0.094 C 
ATOM     10  C   UNL     1       1.814  -2.106   0.000  0.00  0.00    +0.081 C 
ATOM     11  N   UNL     1       1.065  -1.759   0.000  0.00  0.00    -0.272 NA
ATOM     12  C   UNL     1       1.205  -0.720   0.000  0.00  0.00    +0.072 C 
ATOM     13  C   UNL     1       0.961  -0.114   0.000  0.00  0.00    +0.018 C 
ATOM     14  C   UNL     1       0.923  -1.010   0.000  0.00  0.00    +0.013 C 
ATOM     15  C   UNL     1       0.119  -1.362   0.000  0.00  0.00    +0.019 C 
ATOM     16  C   UNL     1       0.226  -2.118   0.000  0.00  0.00    +0.082 C 
ENDROOT
BRANCH   9   7
ATOM      6  N   UNL     1       2.184  -0.013   0.000  0.00  0.00    -0.200 NA
ATOM      7  C   UNL     1       2.307  -0.828   0.000  0.00  0.00    +0.243 C 
ATOM      8  O   UNL     1       3.075  -1.130   0.000  0.00  0.00    -0.273 OA
BRANCH   6   5
ATOM      5  C   UNL     1       2.829   0.501   0.000  0.00  0.00    +0.144 C 
BRANCH   5   4
ATOM      3  C   UNL     1       3.352   1.831   0.000  0.00  0.00    +0.136 A 
ATOM      4  C   UNL     1       2.707   1.317   0.000  0.00  0.00    +0.033 A 
ATOM     29  C   UNL     1       1.939   1.619   0.000  0.00  0.00    +0.000 A 
ATOM     30  C   UNL     1       1.816   2.435   0.000  0.00  0.00    -0.000 A 
ATOM     31  C   UNL     1       2.462   2.949   0.000  0.00  0.00    +0.003 A 
ATOM     32  C   UNL     1       3.229   2.647   0.000  0.00  0.00    +0.037 A 
BRANCH   3   2
ATOM      1  C   UNL     1       4.765   2.044   0.000  0.00  0.00    +0.252 C 
ATOM      2  O   UNL     1       4.120   1.530   0.000  0.00  0.00    -0.472 OA
ENDBRANCH   3   2
ENDBRANCH   5   4
ENDBRANCH   6   5
ENDBRANCH   9   7
BRANCH  16  17
ATOM     17  C   UNL     1      -0.179  -2.836   0.000  0.00  0.00    +0.145 C 
BRANCH  17  18
ATOM     18  N   UNL     1      -1.004  -2.845   0.000  0.00  0.00    -0.229 N 
ATOM     19  C   UNL     1      -1.481  -3.518   0.000  0.00  0.00    +0.116 A 
ATOM     20  C   UNL     1      -2.269  -3.271   0.000  0.00  0.00    +0.128 A 
ATOM     21  N   UNL     1      -2.277  -2.446   0.000  0.00  0.00    -0.131 NA
ATOM     22  N   UNL     1      -1.496  -2.183   0.000  0.00  0.00    -0.064 NA
BRANCH  20  23
ATOM     23  C   UNL     1      -2.931  -3.763   0.000  0.00  0.00    +0.165 C 
ATOM     24  O   UNL     1      -3.351  -3.053   0.000  0.00  0.00    -0.220 OA
ATOM     25  C   UNL     1      -2.372  -4.370   0.000  0.00  0.00    +0.036 C 
ATOM     26  C   UNL     1      -2.777  -5.089   0.000  0.00  0.00    +0.003 C 
ATOM     27  C   UNL     1      -3.586  -4.926   0.000  0.00  0.00    +0.003 C 
ATOM     28  C   UNL     1      -3.681  -4.107   0.000  0.00  0.00    +0.036 C 
ENDBRANCH  20  23
ENDBRANCH  17  18
ENDBRANCH  16  17
TORSDOF 7
