REMARK  Name = 
REMARK  8 active torsions:
REMARK  status: ('A' for Active; 'I' for Inactive)
REMARK    1  A    between atoms: O_2  and  C_3
REMARK    2  A    between atoms: C_6  and  C_7
REMARK    3  A    between atoms: C_7  and  N_8
REMARK    4  A    between atoms: N_8  and  C_9
REMARK    5  A    between atoms: C_15  and  N_18
REMARK    6  A    between atoms: N_18  and  C_20
REMARK    7  A    between atoms: C_20  and  C_21
REMARK    8  A    between atoms: C_21  and  C_22
REMARK                            x       y       z     vdW  Elec       q    Type
REMARK                         _______ _______ _______ _____ _____    ______ ____
ROOT
ATOM      9  C   UNL     1       1.989  -0.542   0.000  0.00  0.00    +0.135 C 
ATOM     10  C   UNL     1       1.060  -0.557   0.000  0.00  0.00    +0.166 C 
ATOM     11  C   UNL     1       0.740  -1.266   0.000  0.00  0.00    +0.176 C 
ATOM     12  O   UNL     1       0.120  -1.643   0.000  0.00  0.00    -0.327 OA
ATOM     13  C   UNL     1       0.640  -0.930   0.000  0.00  0.00    +0.253 C 
ATOM     14  O   UNL     1       0.500  -0.117   0.000  0.00  0.00    -0.328 OA
ATOM     15  C   UNL     1       1.611  -0.930   0.000  0.00  0.00    +0.147 C 
ATOM     16  C   UNL     1       2.127  -1.359   0.000  0.00  0.00    +0.190 C 
ATOM     17  O   UNL     1       2.539  -2.074   0.000  0.00  0.00    -0.220 OA
ENDROOT
BRANCH  15  18
ATOM     18  N   UNL     1       1.331  -1.706   0.000  0.00  0.00    -0.266 NA
ATOM     19  C   UNL     1       1.863  -2.337   0.000  0.00  0.00    +0.090 C 
BRANCH  18  20
ATOM     20  C   UNL     1       0.519  -1.852   0.000  0.00  0.00    +0.079 C 
BRANCH  20  21
ATOM     21  C   UNL     1       0.239  -2.628   0.000  0.00  0.00    +0.063 C 
BRANCH  21  22
ATOM     22  C   UNL     1      -0.573  -2.773   0.000  0.00  0.00    +0.060 A 
ATOM     23  N   UNL     1      -0.854  -3.549   0.000  0.00  0.00    -0.248 NA
ATOM     24  C   UNL     1      -1.666  -3.694   0.000  0.00  0.00    +0.098 A 
ATOM     25  C   UNL     1      -2.197  -3.064   0.000  0.00  0.00    +0.021 A 
ATOM     26  C   UNL     1      -1.917  -2.288   0.000  0.00  0.00    +0.003 A 
ATOM     27  C   UNL     1      -1.105  -2.142   0.000  0.00  0.00    +0.015 A 
ENDBRANCH  21  22
ENDBRANCH  20  21
ENDBRANCH  18  20
ENDBRANCH  15  18
BRANCH   9   8
ATOM      8  N   UNL     1       2.517   0.093   0.000  0.00  0.00    -0.209 NA
BRANCH   8   7
ATOM      7  C   UNL     1       2.231   0.867   0.000  0.00  0.00    +0.115 C 
BRANCH   7   6
ATOM      3  C   UNL     1       3.812   2.770   0.000  0.00  0.00    +0.139 A 
ATOM      4  C   UNL     1       4.098   1.996   0.000  0.00  0.00    +0.037 A 
ATOM      5  C   UNL     1       3.571   1.362   0.000  0.00  0.00    +0.000 A 
ATOM      6  C   UNL     1       2.758   1.501   0.000  0.00  0.00    -0.005 A 
ATOM     28  C   UNL     1       2.472   2.275   0.000  0.00  0.00    +0.000 A 
ATOM     29  C   UNL     1       2.999   2.910   0.000  0.00  0.00    +0.037 A 
BRANCH   3   2
ATOM      1  C   UNL     1       4.054   4.179   0.000  0.00  0.00    +0.252 C 
ATOM      2  O   UNL     1       4.340   3.405   0.000  0.00  0.00    -0.471 OA
ENDBRANCH   3   2
ENDBRANCH   7   6
ENDBRANCH   8   7
ENDBRANCH   9   8
TORSDOF 8
