REMARK  Name = 
REMARK  6 active torsions:
REMARK  status: ('A' for Active; 'I' for Inactive)
REMARK    1  A    between atoms: C_4  and  N_21
REMARK    2  A    between atoms: C_6  and  C_7
REMARK    3  A    between atoms: C_9  and  C_12
REMARK    4  A    between atoms: N_21  and  S_22
REMARK    5  A    between atoms: S_22  and  C_25
REMARK    6  A    between atoms: C_28  and  C_31
REMARK                            x       y       z     vdW  Elec       q    Type
REMARK                         _______ _______ _______ _____ _____    ______ ____
ROOT
ATOM      1  C   UNL     1       5.433  -0.667   0.000  0.00  0.00    +0.090 C 
ATOM      2  N   UNL     1       4.820  -1.219   0.000  0.00  0.00    -0.264 NA
ATOM      3  C   UNL     1       4.907  -2.040   0.000  0.00  0.00    +0.092 C 
ATOM      4  C   UNL     1       4.153  -2.375   0.000  0.00  0.00    +0.115 C 
ATOM      5  C   UNL     1       3.601  -1.762   0.000  0.00  0.00    +0.046 C 
ATOM      6  C   UNL     1       4.013  -1.048   0.000  0.00  0.00    +0.139 C 
ENDROOT
BRANCH   6   7
ATOM      7  C   UNL     1       3.678  -0.294   0.000  0.00  0.00    +0.251 A 
ATOM      8  N   UNL     1       2.871  -0.122   0.000  0.00  0.00    -0.190 NA
ATOM      9  C   UNL     1       2.784   0.698   0.000  0.00  0.00    +0.203 A 
ATOM     10  N   UNL     1       3.538   1.034   0.000  0.00  0.00    -0.056 NA
ATOM     11  O   UNL     1       4.090   0.420   0.000  0.00  0.00    -0.336 OA
BRANCH   9  12
ATOM     12  C   UNL     1       2.070   1.110   0.000  0.00  0.00    +0.042 A 
ATOM     13  C   UNL     1       1.356   0.698   0.000  0.00  0.00    +0.043 A 
ATOM     14  C   UNL     1       0.641   1.110   0.000  0.00  0.00    +0.177 A 
ATOM     15  C   UNL     1       0.641   1.935   0.000  0.00  0.00    +0.176 A 
ATOM     16  O   UNL     1      -0.143   2.190   0.000  0.00  0.00    -0.435 OA
ATOM     17  C   UNL     1      -0.628   1.523   0.000  0.00  0.00    +0.429 C 
ATOM     18  O   UNL     1      -0.143   0.856   0.000  0.00  0.00    -0.435 OA
ATOM     19  C   UNL     1       1.356   2.348   0.000  0.00  0.00    +0.040 A 
ATOM     20  C   UNL     1       2.070   1.935   0.000  0.00  0.00    +0.006 A 
ENDBRANCH   9  12
ENDBRANCH   6   7
BRANCH   4  21
ATOM     21  N   UNL     1       3.981  -3.182   0.000  0.00  0.00    -0.078 NA
BRANCH  21  22
ATOM     22  S   UNL     1       3.197  -3.437   0.000  0.00  0.00    +0.077 S 
ATOM     23  O   UNL     1       2.942  -2.653   0.000  0.00  0.00    -0.152 OA
ATOM     24  O   UNL     1       3.452  -4.222   0.000  0.00  0.00    -0.152 OA
BRANCH  22  25
ATOM     25  C   UNL     1       2.412  -3.692   0.000  0.00  0.00    +0.124 A 
ATOM     26  C   UNL     1       2.240  -4.499   0.000  0.00  0.00    +0.021 A 
ATOM     27  C   UNL     1       1.456  -4.754   0.000  0.00  0.00    +0.012 A 
ATOM     28  C   UNL     1       0.843  -4.202   0.000  0.00  0.00    +0.069 A 
ATOM     29  C   UNL     1       1.014  -3.395   0.000  0.00  0.00    +0.012 A 
ATOM     30  C   UNL     1       1.799  -3.140   0.000  0.00  0.00    +0.021 A 
BRANCH  28  31
ATOM     31  C   UNL     1       0.058  -4.457   0.000  0.00  0.00    +0.100 C 
ATOM     32  N   UNL     1      -0.726  -4.712   0.000  0.00  0.00    -0.191 NA
ENDBRANCH  28  31
ENDBRANCH  22  25
ENDBRANCH  21  22
ENDBRANCH   4  21
TORSDOF 6
