REMARK  Name = 
REMARK  5 active torsions:
REMARK  status: ('A' for Active; 'I' for Inactive)
REMARK    1  A    between atoms: C_2  and  C_3
REMARK    2  A    between atoms: C_3  and  N_4
REMARK    3  A    between atoms: N_14  and  C_24
REMARK    4  A    between atoms: N_17  and  C_18
REMARK    5  A    between atoms: C_18  and  C_19
REMARK                            x       y       z     vdW  Elec       q    Type
REMARK                         _______ _______ _______ _____ _____    ______ ____
ROOT
ATOM      4  N   UNL     1      -1.205   0.926   0.000  0.00  0.00    -0.188 NA
ATOM      5  C   UNL     1      -0.398   0.754   0.000  0.00  0.00    +0.324 C 
ATOM      6  O   UNL     1       0.154   1.367   0.000  0.00  0.00    -0.251 OA
ATOM      7  N   UNL     1      -0.143  -0.030   0.000  0.00  0.00    -0.255 N 
ATOM      8  C   UNL     1      -0.628  -0.698   0.000  0.00  0.00    +0.097 C 
ATOM      9  C   UNL     1      -0.143  -1.365   0.000  0.00  0.00    +0.044 C 
ATOM     10  C   UNL     1       0.641  -1.110   0.000  0.00  0.00    +0.106 C 
ATOM     11  C   UNL     1       0.641  -0.285   0.000  0.00  0.00    +0.172 C 
ATOM     12  C   UNL     1       1.356   0.127   0.000  0.00  0.00    +0.256 C 
ATOM     13  O   UNL     1       1.356   0.952   0.000  0.00  0.00    -0.272 OA
ATOM     14  N   UNL     1       2.070  -0.285   0.000  0.00  0.00    -0.191 N 
ATOM     15  C   UNL     1       2.070  -1.110   0.000  0.00  0.00    +0.317 C 
ATOM     16  O   UNL     1       2.784  -1.523   0.000  0.00  0.00    -0.252 OA
ATOM     17  N   UNL     1       1.356  -1.523   0.000  0.00  0.00    -0.258 N 
ENDROOT
BRANCH  14  24
ATOM     24  C   UNL     1       2.784   0.127   0.000  0.00  0.00    +0.064 A 
ATOM     25  C   UNL     1       2.784   0.952   0.000  0.00  0.00    +0.045 A 
ATOM     26  C   UNL     1       3.499   1.365   0.000  0.00  0.00    +0.141 A 
ATOM     27  F   UNL     1       3.499   2.190   0.000  0.00  0.00    -0.204 F 
ATOM     28  C   UNL     1       4.213   0.952   0.000  0.00  0.00    +0.030 A 
ATOM     29  C   UNL     1       4.213   0.127   0.000  0.00  0.00    +0.004 A 
ATOM     30  C   UNL     1       3.499  -0.285   0.000  0.00  0.00    +0.016 A 
ENDBRANCH  14  24
BRANCH   4   3
ATOM      3  C   UNL     1      -1.460   1.710   0.000  0.00  0.00    +0.117 C 
BRANCH   3   2
ATOM      1  C   UNL     1      -2.522   2.666   0.000  0.00  0.00    +0.002 C 
ATOM      2  C   UNL     1      -2.267   1.882   0.000  0.00  0.00    +0.023 C 
ENDBRANCH   3   2
ENDBRANCH   4   3
BRANCH  17  18
ATOM     18  C   UNL     1       1.356  -2.348   0.000  0.00  0.00    +0.128 C 
BRANCH  18  19
ATOM     19  C   UNL     1       2.070  -2.760   0.000  0.00  0.00    +0.027 A 
ATOM     20  C   UNL     1       2.824  -2.425   0.000  0.00  0.00    +0.004 A 
ATOM     21  C   UNL     1       3.376  -3.038   0.000  0.00  0.00    +0.007 A 
ATOM     22  C   UNL     1       2.963  -3.752   0.000  0.00  0.00    +0.035 A 
ATOM     23  S   UNL     1       2.156  -3.581   0.000  0.00  0.00    -0.089 S 
ENDBRANCH  18  19
ENDBRANCH  17  18
TORSDOF 5
