REMARK  Name = 
REMARK  5 active torsions:
REMARK  status: ('A' for Active; 'I' for Inactive)
REMARK    1  A    between atoms: O_2  and  C_3
REMARK    2  A    between atoms: C_3  and  C_5
REMARK    3  A    between atoms: N_10  and  C_11
REMARK    4  A    between atoms: C_11  and  C_12
REMARK    5  A    between atoms: C_15  and  O_16
REMARK                            x       y       z     vdW  Elec       q    Type
REMARK                         _______ _______ _______ _____ _____    ______ ____
ROOT
ATOM      5  C   UNL     1       2.143  -3.712   0.000  0.00  0.00    +0.164 C 
ATOM      6  C   UNL     1       2.858  -4.125   0.000  0.00  0.00    +0.075 C 
ATOM      7  C   UNL     1       3.572  -3.712   0.000  0.00  0.00    +0.078 A 
ATOM      8  C   UNL     1       3.572  -2.888   0.000  0.00  0.00    +0.090 A 
ATOM      9  C   UNL     1       2.858  -2.475   0.000  0.00  0.00    +0.121 C 
ATOM     10  N   UNL     1       2.143  -2.888   0.000  0.00  0.00    -0.256 NA
ATOM     24  N   UNL     1       4.357  -2.633   0.000  0.00  0.00    -0.226 NA
ATOM     25  C   UNL     1       4.842  -3.300   0.000  0.00  0.00    +0.198 A 
ATOM     26  N   UNL     1       4.357  -3.967   0.000  0.00  0.00    -0.227 NA
ENDROOT
BRANCH   5   3
ATOM      3  C   UNL     1       1.429  -4.125   0.000  0.00  0.00    +0.332 C 
ATOM      4  O   UNL     1       0.715  -3.712   0.000  0.00  0.00    -0.249 OA
BRANCH   3   2
ATOM      1  C   UNL     1       0.715  -5.362   0.000  0.00  0.00    +0.256 C 
ATOM      2  O   UNL     1       1.429  -4.950   0.000  0.00  0.00    -0.443 OA
ENDBRANCH   3   2
ENDBRANCH   5   3
BRANCH  10  11
ATOM     11  C   UNL     1       1.429  -2.475   0.000  0.00  0.00    +0.100 C 
BRANCH  11  12
ATOM     12  C   UNL     1       1.429  -1.650   0.000  0.00  0.00    -0.006 A 
ATOM     13  C   UNL     1       0.715  -1.238   0.000  0.00  0.00    +0.000 A 
ATOM     14  C   UNL     1       0.715  -0.412   0.000  0.00  0.00    +0.037 A 
ATOM     15  C   UNL     1       1.429   0.000   0.000  0.00  0.00    +0.139 A 
ATOM     18  C   UNL     1       2.143  -0.412   0.000  0.00  0.00    +0.034 A 
ATOM     19  C   UNL     1       2.858   0.000   0.000  0.00  0.00    +0.003 A 
ATOM     20  C   UNL     1       3.572  -0.412   0.000  0.00  0.00    +0.000 A 
ATOM     21  C   UNL     1       3.572  -1.238   0.000  0.00  0.00    -0.000 A 
ATOM     22  C   UNL     1       2.858  -1.650   0.000  0.00  0.00    -0.000 A 
ATOM     23  C   UNL     1       2.143  -1.238   0.000  0.00  0.00    +0.000 A 
BRANCH  15  16
ATOM     16  O   UNL     1       1.429   0.825   0.000  0.00  0.00    -0.471 OA
ATOM     17  C   UNL     1       0.715   1.238   0.000  0.00  0.00    +0.252 C 
ENDBRANCH  15  16
ENDBRANCH  11  12
ENDBRANCH  10  11
TORSDOF 5
