REMARK  Name = 
REMARK  3 active torsions:
REMARK  status: ('A' for Active; 'I' for Inactive)
REMARK    1  A    between atoms: O_2  and  C_3
REMARK    2  A    between atoms: C_6  and  C_9
REMARK    3  A    between atoms: N_11  and  C_12
REMARK                            x       y       z     vdW  Elec       q    Type
REMARK                         _______ _______ _______ _____ _____    ______ ____
ROOT
ATOM      9  C   UNL     1       0.208  -1.879   0.000  0.00  0.00    +0.265 C 
ATOM     10  O   UNL     1      -0.344  -1.265   0.000  0.00  0.00    -0.268 OA
ATOM     11  N   UNL     1       1.015  -1.707   0.000  0.00  0.00    -0.198 NA
ENDROOT
BRANCH  11  12
ATOM     12  C   UNL     1       1.270  -0.922   0.000  0.00  0.00    +0.155 C 
ATOM     13  C   UNL     1       0.785  -0.255   0.000  0.00  0.00    +0.166 C 
ATOM     14  O   UNL     1       1.270   0.412   0.000  0.00  0.00    -0.349 OA
ATOM     15  C   UNL     1       2.054   0.158   0.000  0.00  0.00    +0.177 C 
ATOM     16  C   UNL     1       2.839   0.412   0.000  0.00  0.00    +0.211 C 
ATOM     17  O   UNL     1       3.094   1.197   0.000  0.00  0.00    -0.218 OA
ATOM     18  C   UNL     1       3.324  -0.255   0.000  0.00  0.00    +0.178 C 
ATOM     19  O   UNL     1       2.839  -0.922   0.000  0.00  0.00    -0.349 OA
ATOM     20  C   UNL     1       2.054  -0.667   0.000  0.00  0.00    +0.167 C 
ENDBRANCH  11  12
BRANCH   9   6
ATOM      3  C   UNL     1      -0.557  -4.232   0.000  0.00  0.00    +0.139 A 
ATOM      4  C   UNL     1      -1.109  -3.619   0.000  0.00  0.00    +0.037 A 
ATOM      5  C   UNL     1      -0.854  -2.835   0.000  0.00  0.00    +0.008 A 
ATOM      6  C   UNL     1      -0.047  -2.663   0.000  0.00  0.00    +0.055 A 
ATOM      7  C   UNL     1       0.505  -3.276   0.000  0.00  0.00    +0.008 A 
ATOM      8  C   UNL     1       0.250  -4.061   0.000  0.00  0.00    +0.037 A 
BRANCH   3   2
ATOM      1  C   UNL     1      -0.260  -5.630   0.000  0.00  0.00    +0.252 C 
ATOM      2  O   UNL     1      -0.812  -5.017   0.000  0.00  0.00    -0.471 OA
ENDBRANCH   3   2
ENDBRANCH   9   6
TORSDOF 3
