REMARK  Name = 
REMARK  5 active torsions:
REMARK  status: ('A' for Active; 'I' for Inactive)
REMARK    1  A    between atoms: O_2  and  C_3
REMARK    2  A    between atoms: C_6  and  C_7
REMARK    3  A    between atoms: C_7  and  N_8
REMARK    4  A    between atoms: C_9  and  C_11
REMARK    5  A    between atoms: N_19  and  C_20
REMARK                            x       y       z     vdW  Elec       q    Type
REMARK                         _______ _______ _______ _____ _____    ______ ____
ROOT
ATOM     11  C   UNL     1       2.070   1.110   0.000  0.00  0.00    +0.161 C 
ATOM     12  C   UNL     1       1.356   0.698   0.000  0.00  0.00    +0.076 C 
ATOM     13  C   UNL     1       0.641   1.110   0.000  0.00  0.00    +0.078 A 
ATOM     14  C   UNL     1       0.641   1.935   0.000  0.00  0.00    +0.094 A 
ATOM     15  C   UNL     1       1.356   2.348   0.000  0.00  0.00    +0.143 C 
ATOM     16  N   UNL     1       2.070   1.935   0.000  0.00  0.00    -0.250 N 
ATOM     17  C   UNL     1       2.784   2.348   0.000  0.00  0.00    +0.324 C 
ATOM     18  O   UNL     1       3.499   1.935   0.000  0.00  0.00    -0.251 OA
ATOM     19  N   UNL     1       2.784   3.173   0.000  0.00  0.00    -0.190 NA
ATOM     23  N   UNL     1      -0.143   2.190   0.000  0.00  0.00    -0.225 NA
ATOM     24  C   UNL     1      -0.628   1.523   0.000  0.00  0.00    +0.198 A 
ATOM     25  N   UNL     1      -0.143   0.856   0.000  0.00  0.00    -0.227 NA
ENDROOT
BRANCH  11   9
ATOM      8  N   UNL     1       2.784  -0.127   0.000  0.00  0.00    -0.199 NA
ATOM      9  C   UNL     1       2.784   0.698   0.000  0.00  0.00    +0.260 C 
ATOM     10  O   UNL     1       3.499   1.110   0.000  0.00  0.00    -0.272 OA
BRANCH   8   7
ATOM      7  C   UNL     1       3.499  -0.540   0.000  0.00  0.00    +0.142 C 
BRANCH   7   6
ATOM      3  C   UNL     1       3.499  -3.015   0.000  0.00  0.00    +0.139 A 
ATOM      4  C   UNL     1       2.784  -2.602   0.000  0.00  0.00    +0.037 A 
ATOM      5  C   UNL     1       2.784  -1.777   0.000  0.00  0.00    +0.001 A 
ATOM      6  C   UNL     1       3.499  -1.365   0.000  0.00  0.00    -0.000 A 
ATOM     26  C   UNL     1       4.213  -1.777   0.000  0.00  0.00    +0.001 A 
ATOM     27  C   UNL     1       4.213  -2.602   0.000  0.00  0.00    +0.037 A 
BRANCH   3   2
ATOM      1  C   UNL     1       4.213  -4.252   0.000  0.00  0.00    +0.252 C 
ATOM      2  O   UNL     1       3.499  -3.840   0.000  0.00  0.00    -0.471 OA
ENDBRANCH   3   2
ENDBRANCH   7   6
ENDBRANCH   8   7
ENDBRANCH  11   9
BRANCH  19  20
ATOM     20  C   UNL     1       3.499   3.585   0.000  0.00  0.00    +0.097 C 
ATOM     21  C   UNL     1       3.499   4.410   0.000  0.00  0.00    +0.023 C 
ATOM     22  C   UNL     1       4.213   3.173   0.000  0.00  0.00    +0.023 C 
ENDBRANCH  19  20
TORSDOF 5
