REMARK  Name = 
REMARK  8 active torsions:
REMARK  status: ('A' for Active; 'I' for Inactive)
REMARK    1  A    between atoms: C_7  and  C_8
REMARK    2  A    between atoms: N_10  and  C_11
REMARK    3  A    between atoms: C_14  and  C_17
REMARK    4  A    between atoms: C_17  and  C_19
REMARK    5  A    between atoms: N_25  and  C_26
REMARK    6  A    between atoms: C_26  and  C_27
REMARK    7  A    between atoms: C_27  and  C_28
REMARK    8  A    between atoms: C_28  and  C_29
REMARK                            x       y       z     vdW  Elec       q    Type
REMARK                         _______ _______ _______ _____ _____    ______ ____
ROOT
ATOM     17  C   UNL     1      -5.204  -7.187   0.000  0.00  0.00    +0.195 C 
ATOM     18  O   UNL     1      -5.375  -6.380   0.000  0.00  0.00    -0.216 OA
ENDROOT
BRANCH  17  19
ATOM     19  C   UNL     1      -5.817  -7.739   0.000  0.00  0.00    +0.139 C 
ATOM     20  C   UNL     1      -5.645  -8.546   0.000  0.00  0.00    +0.165 C 
ATOM     21  O   UNL     1      -6.258  -9.098   0.000  0.00  0.00    -0.343 OA
ATOM     22  C   UNL     1      -7.043  -8.843   0.000  0.00  0.00    +0.227 C 
ATOM     23  C   UNL     1      -7.215  -8.036   0.000  0.00  0.00    +0.256 C 
ATOM     24  O   UNL     1      -7.999  -7.781   0.000  0.00  0.00    -0.272 OA
ATOM     25  N   UNL     1      -6.601  -7.484   0.000  0.00  0.00    -0.274 N 
BRANCH  25  26
ATOM     26  C   UNL     1      -6.773  -6.677   0.000  0.00  0.00    +0.094 C 
BRANCH  26  27
ATOM     27  C   UNL     1      -6.160  -6.125   0.000  0.00  0.00    +0.026 C 
BRANCH  27  28
ATOM     28  C   UNL     1      -6.331  -5.318   0.000  0.00  0.00    +0.028 C 
BRANCH  28  29
ATOM     29  C   UNL     1      -7.116  -5.063   0.000  0.00  0.00    -0.022 A 
ATOM     30  C   UNL     1      -7.729  -5.615   0.000  0.00  0.00    -0.004 A 
ATOM     31  C   UNL     1      -8.514  -5.361   0.000  0.00  0.00    -0.000 A 
ATOM     32  C   UNL     1      -8.685  -4.554   0.000  0.00  0.00    -0.000 A 
ATOM     33  C   UNL     1      -8.072  -4.002   0.000  0.00  0.00    -0.000 A 
ATOM     34  C   UNL     1      -7.287  -4.256   0.000  0.00  0.00    -0.004 A 
ENDBRANCH  28  29
ENDBRANCH  27  28
ENDBRANCH  26  27
ENDBRANCH  25  26
ENDBRANCH  17  19
BRANCH  17  14
ATOM     11  C   UNL     1      -2.850  -7.952   0.000  0.00  0.00    +0.074 A 
ATOM     12  C   UNL     1      -3.463  -8.504   0.000  0.00  0.00    +0.016 A 
ATOM     13  C   UNL     1      -4.247  -8.249   0.000  0.00  0.00    -0.000 A 
ATOM     14  C   UNL     1      -4.419  -7.442   0.000  0.00  0.00    +0.010 A 
ATOM     15  C   UNL     1      -3.806  -6.890   0.000  0.00  0.00    -0.000 A 
ATOM     16  C   UNL     1      -3.021  -7.145   0.000  0.00  0.00    +0.016 A 
BRANCH  11  10
ATOM      8  C   UNL     1      -1.452  -7.655   0.000  0.00  0.00    +0.286 C 
ATOM      9  O   UNL     1      -1.624  -6.848   0.000  0.00  0.00    -0.266 OA
ATOM     10  N   UNL     1      -2.065  -8.207   0.000  0.00  0.00    -0.174 NA
BRANCH   8   7
ATOM      1  C   UNL     1       0.000  -6.600   0.000  0.00  0.00    +0.154 C 
ATOM      2  N   UNL     1       0.000  -7.425   0.000  0.00  0.00    -0.245 N 
ATOM      3  N   UNL     1       0.667  -7.910   0.000  0.00  0.00    -0.173 NA
ATOM      4  C   UNL     1       0.412  -8.694   0.000  0.00  0.00    +0.081 A 
ATOM      5  C   UNL     1       0.897  -9.362   0.000  0.00  0.00    +0.054 C 
ATOM      6  C   UNL     1      -0.412  -8.694   0.000  0.00  0.00    +0.040 A 
ATOM      7  C   UNL     1      -0.667  -7.910   0.000  0.00  0.00    +0.134 A 
ENDBRANCH   8   7
ENDBRANCH  11  10
ENDBRANCH  17  14
TORSDOF 8
