REMARK  Name = 
REMARK  6 active torsions:
REMARK  status: ('A' for Active; 'I' for Inactive)
REMARK    1  A    between atoms: O_2  and  C_3
REMARK    2  A    between atoms: C_6  and  C_7
REMARK    3  A    between atoms: C_7  and  C_8
REMARK    4  A    between atoms: C_15  and  O_17
REMARK    5  A    between atoms: O_17  and  C_18
REMARK    6  A    between atoms: C_21  and  C_24
REMARK                            x       y       z     vdW  Elec       q    Type
REMARK                         _______ _______ _______ _____ _____    ______ ____
ROOT
ATOM      8  C   UNL     1      -1.409  -5.233   0.000  0.00  0.00    +0.230 C 
ATOM      9  O   UNL     1      -2.123  -4.821   0.000  0.00  0.00    -0.275 OA
ATOM     10  N   UNL     1      -1.409  -6.058   0.000  0.00  0.00    -0.273 N 
ATOM     11  C   UNL     1      -0.665  -6.416   0.000  0.00  0.00    +0.126 C 
ATOM     12  C   UNL     1      -0.482  -7.220   0.000  0.00  0.00    +0.164 C 
ATOM     13  O   UNL     1      -0.996  -7.865   0.000  0.00  0.00    -0.348 OA
ATOM     14  C   UNL     1      -1.821  -7.865   0.000  0.00  0.00    +0.187 C 
ATOM     15  C   UNL     1      -2.335  -7.220   0.000  0.00  0.00    +0.217 C 
ATOM     16  C   UNL     1      -2.152  -6.416   0.000  0.00  0.00    +0.140 C 
ENDROOT
BRANCH   8   7
ATOM      7  C   UNL     1      -0.694  -4.821   0.000  0.00  0.00    +0.112 C 
BRANCH   7   6
ATOM      3  C   UNL     1      -0.694  -2.345   0.000  0.00  0.00    +0.139 A 
ATOM      4  C   UNL     1       0.020  -2.758   0.000  0.00  0.00    +0.037 A 
ATOM      5  C   UNL     1       0.020  -3.583   0.000  0.00  0.00    -0.001 A 
ATOM      6  C   UNL     1      -0.694  -3.995   0.000  0.00  0.00    -0.013 A 
ATOM     28  C   UNL     1      -1.409  -3.583   0.000  0.00  0.00    -0.001 A 
ATOM     29  C   UNL     1      -1.409  -2.758   0.000  0.00  0.00    +0.037 A 
BRANCH   3   2
ATOM      1  C   UNL     1      -1.409  -1.108   0.000  0.00  0.00    +0.252 C 
ATOM      2  O   UNL     1      -0.694  -1.520   0.000  0.00  0.00    -0.471 OA
ENDBRANCH   3   2
ENDBRANCH   7   6
ENDBRANCH   8   7
BRANCH  15  17
ATOM     17  O   UNL     1      -3.140  -7.404   0.000  0.00  0.00    -0.460 OA
BRANCH  17  18
ATOM     18  C   UNL     1      -3.701  -6.799   0.000  0.00  0.00    +0.225 A 
ATOM     19  C   UNL     1      -4.505  -6.983   0.000  0.00  0.00    +0.058 A 
ATOM     20  C   UNL     1      -5.066  -6.378   0.000  0.00  0.00    +0.010 A 
ATOM     21  C   UNL     1      -4.823  -5.590   0.000  0.00  0.00    +0.091 A 
ATOM     22  C   UNL     1      -4.019  -5.406   0.000  0.00  0.00    +0.106 A 
ATOM     23  N   UNL     1      -3.458  -6.011   0.000  0.00  0.00    -0.210 NA
BRANCH  21  24
ATOM     24  C   UNL     1      -5.384  -4.985   0.000  0.00  0.00    +0.420 C 
ATOM     25  F   UNL     1      -5.946  -4.380   0.000  0.00  0.00    -0.166 F 
ATOM     26  F   UNL     1      -4.779  -4.424   0.000  0.00  0.00    -0.166 F 
ATOM     27  F   UNL     1      -5.989  -5.546   0.000  0.00  0.00    -0.166 F 
ENDBRANCH  21  24
ENDBRANCH  17  18
ENDBRANCH  15  17
TORSDOF 6
