REMARK  Name = 
REMARK  3 active torsions:
REMARK  status: ('A' for Active; 'I' for Inactive)
REMARK    1  A    between atoms: C_2  and  C_26
REMARK    2  A    between atoms: N_3  and  C_4
REMARK    3  A    between atoms: C_16  and  C_21
REMARK                            x       y       z     vdW  Elec       q    Type
REMARK                         _______ _______ _______ _____ _____    ______ ____
ROOT
ATOM      4  C   UNL     1       6.124   0.851   0.000  0.00  0.00    +0.100 C 
ATOM      5  C   UNL     1       5.940   1.655   0.000  0.00  0.00    +0.043 C 
ATOM      6  C   UNL     1       5.152   1.899   0.000  0.00  0.00    +0.096 C 
ATOM      7  N   UNL     1       4.547   1.337   0.000  0.00  0.00    -0.269 N 
ATOM      8  C   UNL     1       4.731   0.533   0.000  0.00  0.00    +0.156 C 
ATOM      9  C   UNL     1       5.519   0.290   0.000  0.00  0.00    +0.051 C 
ATOM     10  C   UNL     1       4.216  -0.112   0.000  0.00  0.00    +0.264 C 
ATOM     11  O   UNL     1       4.574  -0.855   0.000  0.00  0.00    -0.271 OA
ATOM     12  N   UNL     1       3.391  -0.112   0.000  0.00  0.00    -0.178 NA
ATOM     13  C   UNL     1       2.877   0.533   0.000  0.00  0.00    +0.078 A 
ATOM     14  C   UNL     1       2.088   0.290   0.000  0.00  0.00    +0.017 A 
ATOM     15  C   UNL     1       1.484   0.851   0.000  0.00  0.00    +0.004 A 
ATOM     16  C   UNL     1       1.667   1.655   0.000  0.00  0.00    +0.035 A 
ATOM     17  C   UNL     1       2.456   1.899   0.000  0.00  0.00    +0.009 A 
ATOM     18  C   UNL     1       3.060   1.337   0.000  0.00  0.00    +0.069 A 
ATOM     19  C   UNL     1       3.804   1.695   0.000  0.00  0.00    +0.251 C 
ATOM     20  O   UNL     1       3.804   2.520   0.000  0.00  0.00    -0.270 OA
ENDROOT
BRANCH  16  21
ATOM     21  C   UNL     1       1.062   2.216   0.000  0.00  0.00    +0.145 A 
ATOM     22  C   UNL     1       0.253   2.057   0.000  0.00  0.00    +0.041 A 
ATOM     23  C   UNL     1      -0.149   2.778   0.000  0.00  0.00    +0.044 A 
ATOM     24  C   UNL     1       0.412   3.382   0.000  0.00  0.00    +0.180 A 
ATOM     25  O   UNL     1       1.161   3.035   0.000  0.00  0.00    -0.450 OA
ENDBRANCH  16  21
BRANCH   4   3
ATOM      1  O   UNL     1       7.333   1.973   0.000  0.00  0.00    -0.268 OA
ATOM      2  C   UNL     1       7.517   1.169   0.000  0.00  0.00    +0.271 C 
ATOM      3  N   UNL     1       6.912   0.608   0.000  0.00  0.00    -0.203 NA
BRANCH   2  26
ATOM     26  C   UNL     1       8.305   0.926   0.000  0.00  0.00    +0.084 A 
ATOM     27  C   UNL     1       8.965   1.421   0.000  0.00  0.00    +0.012 A 
ATOM     28  C   UNL     1       9.640   0.946   0.000  0.00  0.00    +0.008 A 
ATOM     29  C   UNL     1       9.397   0.157   0.000  0.00  0.00    +0.036 A 
ATOM     30  S   UNL     1       8.572   0.145   0.000  0.00  0.00    -0.082 S 
ENDBRANCH   2  26
ENDBRANCH   4   3
TORSDOF 3
