REMARK  Name = 
REMARK  7 active torsions:
REMARK  status: ('A' for Active; 'I' for Inactive)
REMARK    1  A    between atoms: N_4  and  C_5
REMARK    2  A    between atoms: C_8  and  C_9
REMARK    3  A    between atoms: C_9  and  N_10
REMARK    4  A    between atoms: N_10  and  C_11
REMARK    5  A    between atoms: C_14  and  C_15
REMARK    6  A    between atoms: C_15  and  N_16
REMARK    7  A    between atoms: N_16  and  S_17
REMARK                            x       y       z     vdW  Elec       q    Type
REMARK                         _______ _______ _______ _____ _____    ______ ____
ROOT
ATOM     10  N   UNL     1       1.429   5.529   0.000  0.00  0.00    -0.209 NA
ENDROOT
BRANCH  10  11
ATOM     11  C   UNL     1       1.429   4.704   0.000  0.00  0.00    +0.135 C 
ATOM     12  C   UNL     1       2.096   4.219   0.000  0.00  0.00    +0.162 C 
ATOM     13  O   UNL     1       1.841   3.434   0.000  0.00  0.00    -0.350 OA
ATOM     14  C   UNL     1       1.016   3.434   0.000  0.00  0.00    +0.166 C 
ATOM     21  C   UNL     1       0.761   4.219   0.000  0.00  0.00    +0.199 C 
ATOM     22  O   UNL     1      -0.023   4.474   0.000  0.00  0.00    -0.219 OA
BRANCH  14  15
ATOM     15  C   UNL     1       0.531   2.767   0.000  0.00  0.00    +0.147 C 
BRANCH  15  16
ATOM     16  N   UNL     1      -0.289   2.853   0.000  0.00  0.00    -0.079 NA
BRANCH  16  17
ATOM     17  S   UNL     1      -0.774   2.185   0.000  0.00  0.00    +0.059 S 
ATOM     18  C   UNL     1      -1.259   1.518   0.000  0.00  0.00    +0.197 C 
ATOM     19  O   UNL     1      -1.441   2.670   0.000  0.00  0.00    -0.156 OA
ATOM     20  O   UNL     1      -0.106   1.700   0.000  0.00  0.00    -0.156 OA
ENDBRANCH  16  17
ENDBRANCH  15  16
ENDBRANCH  14  15
ENDBRANCH  10  11
BRANCH  10   9
ATOM      9  C   UNL     1       2.143   5.941   0.000  0.00  0.00    +0.115 C 
BRANCH   9   8
ATOM      5  C   UNL     1       2.143   8.416   0.000  0.00  0.00    +0.073 A 
ATOM      6  C   UNL     1       2.858   8.004   0.000  0.00  0.00    +0.016 A 
ATOM      7  C   UNL     1       2.858   7.179   0.000  0.00  0.00    -0.002 A 
ATOM      8  C   UNL     1       2.143   6.766   0.000  0.00  0.00    -0.005 A 
ATOM     23  C   UNL     1       1.429   7.179   0.000  0.00  0.00    -0.002 A 
ATOM     24  C   UNL     1       1.429   8.004   0.000  0.00  0.00    +0.016 A 
BRANCH   5   4
ATOM      1  C   UNL     1       1.429  10.479   0.000  0.00  0.00    +0.097 C 
ATOM      2  C   UNL     1       1.429   9.654   0.000  0.00  0.00    +0.246 C 
ATOM      3  O   UNL     1       0.715   9.241   0.000  0.00  0.00    -0.273 OA
ATOM      4  N   UNL     1       2.143   9.241   0.000  0.00  0.00    -0.179 NA
ENDBRANCH   5   4
ENDBRANCH   9   8
ENDBRANCH  10   9
TORSDOF 7
