REMARK  Name = 
REMARK  6 active torsions:
REMARK  status: ('A' for Active; 'I' for Inactive)
REMARK    1  A    between atoms: C_4  and  C_18
REMARK    2  A    between atoms: C_6  and  C_8
REMARK    3  A    between atoms: C_11  and  C_14
REMARK    4  A    between atoms: C_25  and  C_26
REMARK    5  A    between atoms: C_26  and  N_27
REMARK    6  A    between atoms: N_27  and  S_28
REMARK                            x       y       z     vdW  Elec       q    Type
REMARK                         _______ _______ _______ _____ _____    ______ ____
ROOT
ATOM      1  C   UNL     1       4.488  -0.918   0.000  0.00  0.00    +0.074 C 
ATOM      2  C   UNL     1       3.720  -0.616   0.000  0.00  0.00    +0.139 A 
ATOM      3  N   UNL     1       3.075  -1.130   0.000  0.00  0.00    -0.235 NA
ATOM      4  C   UNL     1       2.307  -0.828   0.000  0.00  0.00    +0.063 A 
ATOM      5  C   UNL     1       2.184  -0.013   0.000  0.00  0.00    +0.034 A 
ATOM      6  C   UNL     1       2.829   0.501   0.000  0.00  0.00    +0.084 A 
ATOM      7  N   UNL     1       3.597   0.200   0.000  0.00  0.00    -0.231 NA
ENDROOT
BRANCH   4  18
ATOM     18  C   UNL     1       1.661  -1.343   0.000  0.00  0.00    +0.056 C 
ATOM     19  C   UNL     1       1.814  -2.106   0.000  0.00  0.00    +0.078 C 
ATOM     20  N   UNL     1       1.065  -1.759   0.000  0.00  0.00    -0.272 NA
ATOM     21  C   UNL     1       1.205  -0.720   0.000  0.00  0.00    +0.072 C 
ATOM     22  C   UNL     1       0.961  -0.114   0.000  0.00  0.00    +0.018 C 
ATOM     23  C   UNL     1       0.923  -1.010   0.000  0.00  0.00    +0.010 C 
ATOM     24  C   UNL     1       0.119  -1.362   0.000  0.00  0.00    +0.018 C 
ATOM     25  C   UNL     1       0.226  -2.118   0.000  0.00  0.00    +0.077 C 
BRANCH  25  26
ATOM     26  C   UNL     1      -0.179  -2.836   0.000  0.00  0.00    +0.131 C 
BRANCH  26  27
ATOM     27  N   UNL     1      -1.004  -2.845   0.000  0.00  0.00    -0.081 NA
BRANCH  27  28
ATOM     28  S   UNL     1      -1.408  -3.564   0.000  0.00  0.00    +0.059 S 
ATOM     29  C   UNL     1      -1.813  -4.283   0.000  0.00  0.00    +0.197 C 
ATOM     30  O   UNL     1      -2.127  -3.159   0.000  0.00  0.00    -0.156 OA
ATOM     31  O   UNL     1      -0.690  -3.969   0.000  0.00  0.00    -0.156 OA
ENDBRANCH  27  28
ENDBRANCH  26  27
ENDBRANCH  25  26
ENDBRANCH   4  18
BRANCH   6   8
ATOM      8  C   UNL     1       2.707   1.317   0.000  0.00  0.00    +0.018 A 
ATOM      9  C   UNL     1       1.939   1.619   0.000  0.00  0.00    +0.001 A 
ATOM     10  C   UNL     1       1.816   2.435   0.000  0.00  0.00    +0.004 A 
ATOM     11  C   UNL     1       2.462   2.949   0.000  0.00  0.00    +0.071 A 
ATOM     12  C   UNL     1       3.229   2.647   0.000  0.00  0.00    +0.004 A 
ATOM     13  C   UNL     1       3.352   1.831   0.000  0.00  0.00    +0.001 A 
BRANCH  11  14
ATOM     14  C   UNL     1       2.339   3.765   0.000  0.00  0.00    +0.419 C 
ATOM     15  F   UNL     1       2.217   4.581   0.000  0.00  0.00    -0.166 F 
ATOM     16  F   UNL     1       1.523   3.642   0.000  0.00  0.00    -0.166 F 
ATOM     17  F   UNL     1       3.155   3.887   0.000  0.00  0.00    -0.166 F 
ENDBRANCH  11  14
ENDBRANCH   6   8
TORSDOF 6
