REMARK  Name = 
REMARK  7 active torsions:
REMARK  status: ('A' for Active; 'I' for Inactive)
REMARK    1  A    between atoms: O_2  and  C_3
REMARK    2  A    between atoms: C_3  and  C_5
REMARK    3  A    between atoms: C_5  and  N_7
REMARK    4  A    between atoms: C_8  and  C_10
REMARK    5  A    between atoms: N_12  and  S_24
REMARK    6  A    between atoms: C_16  and  C_18
REMARK    7  A    between atoms: S_24  and  C_27
REMARK                            x       y       z     vdW  Elec       q    Type
REMARK                         _______ _______ _______ _____ _____    ______ ____
ROOT
ATOM     10  C   UNL     1       1.429  -6.600   0.000  0.00  0.00    +0.171 C 
ATOM     11  C   UNL     1       2.143  -6.188   0.000  0.00  0.00    +0.125 C 
ATOM     12  N   UNL     1       2.858  -6.600   0.000  0.00  0.00    -0.152 NA
ATOM     13  C   UNL     1       2.858  -7.425   0.000  0.00  0.00    +0.117 C 
ATOM     14  C   UNL     1       2.143  -7.838   0.000  0.00  0.00    +0.113 C 
ATOM     15  N   UNL     1       1.429  -7.425   0.000  0.00  0.00    -0.270 N 
ATOM     16  C   UNL     1       0.715  -7.838   0.000  0.00  0.00    +0.226 C 
ATOM     17  O   UNL     1       0.000  -7.425   0.000  0.00  0.00    -0.275 OA
ENDROOT
BRANCH  16  18
ATOM     18  C   UNL     1       0.715  -8.662   0.000  0.00  0.00    +0.080 C 
ATOM     19  C   UNL     1       1.429  -9.075   0.000  0.00  0.00    +0.028 C 
ATOM     20  C   UNL     1       1.429  -9.900   0.000  0.00  0.00    +0.089 C 
ATOM     21  N   UNL     1       0.715 -10.312   0.000  0.00  0.00    -0.218 NA
ATOM     22  C   UNL     1       0.000  -9.900   0.000  0.00  0.00    +0.089 C 
ATOM     23  C   UNL     1       0.000  -9.075   0.000  0.00  0.00    +0.028 C 
ENDBRANCH  16  18
BRANCH  10   8
ATOM      7  N   UNL     1       0.000  -6.600   0.000  0.00  0.00    -0.194 NA
ATOM      8  C   UNL     1       0.715  -6.188   0.000  0.00  0.00    +0.261 C 
ATOM      9  O   UNL     1       0.715  -5.362   0.000  0.00  0.00    -0.271 OA
BRANCH   7   5
ATOM      5  C   UNL     1      -0.715  -6.188   0.000  0.00  0.00    +0.194 C 
ATOM      6  C   UNL     1      -0.715  -5.362   0.000  0.00  0.00    +0.035 C 
BRANCH   5   3
ATOM      3  C   UNL     1      -1.429  -6.600   0.000  0.00  0.00    +0.337 C 
ATOM      4  O   UNL     1      -1.429  -7.425   0.000  0.00  0.00    -0.248 OA
BRANCH   3   2
ATOM      1  C   UNL     1      -2.858  -6.600   0.000  0.00  0.00    +0.256 C 
ATOM      2  O   UNL     1      -2.143  -6.188   0.000  0.00  0.00    -0.443 OA
ENDBRANCH   3   2
ENDBRANCH   5   3
ENDBRANCH   7   5
ENDBRANCH  10   8
BRANCH  12  24
ATOM     24  S   UNL     1       3.572  -6.188   0.000  0.00  0.00    +0.063 S 
ATOM     25  O   UNL     1       3.985  -6.902   0.000  0.00  0.00    -0.153 OA
ATOM     26  O   UNL     1       3.160  -5.473   0.000  0.00  0.00    -0.153 OA
BRANCH  24  27
ATOM     27  C   UNL     1       4.287  -5.775   0.000  0.00  0.00    +0.122 A 
ATOM     28  C   UNL     1       4.287  -4.950   0.000  0.00  0.00    +0.020 A 
ATOM     29  C   UNL     1       5.001  -4.537   0.000  0.00  0.00    +0.001 A 
ATOM     30  C   UNL     1       5.716  -4.950   0.000  0.00  0.00    +0.000 A 
ATOM     31  C   UNL     1       5.716  -5.775   0.000  0.00  0.00    +0.001 A 
ATOM     32  C   UNL     1       5.001  -6.188   0.000  0.00  0.00    +0.020 A 
ENDBRANCH  24  27
ENDBRANCH  12  24
TORSDOF 7
