REMARK  Name = 
REMARK  8 active torsions:
REMARK  status: ('A' for Active; 'I' for Inactive)
REMARK    1  A    between atoms: N_3  and  C_4
REMARK    2  A    between atoms: C_8  and  O_12
REMARK    3  A    between atoms: O_12  and  C_13
REMARK    4  A    between atoms: N_15  and  C_16
REMARK    5  A    between atoms: C_19  and  O_20
REMARK    6  A    between atoms: O_20  and  C_21
REMARK    7  A    between atoms: N_29  and  C_30
REMARK    8  A    between atoms: C_32  and  C_36
REMARK                            x       y       z     vdW  Elec       q    Type
REMARK                         _______ _______ _______ _____ _____    ______ ____
ROOT
ATOM      4  C   UNL     1       1.270  -0.922   0.000  0.00  0.00    +0.156 C 
ATOM      5  C   UNL     1       0.785  -0.255   0.000  0.00  0.00    +0.166 C 
ATOM      6  O   UNL     1       1.270   0.412   0.000  0.00  0.00    -0.348 OA
ATOM      7  C   UNL     1       2.054   0.158   0.000  0.00  0.00    +0.186 C 
ATOM      8  C   UNL     1       2.839   0.412   0.000  0.00  0.00    +0.229 C 
ATOM      9  C   UNL     1       3.324  -0.255   0.000  0.00  0.00    +0.188 C 
ATOM     10  O   UNL     1       2.839  -0.922   0.000  0.00  0.00    -0.348 OA
ATOM     11  C   UNL     1       2.054  -0.667   0.000  0.00  0.00    +0.168 C 
ENDROOT
BRANCH   4   3
ATOM      1  O   UNL     1      -0.344  -1.265   0.000  0.00  0.00    -0.249 OA
ATOM      2  C   UNL     1       0.208  -1.879   0.000  0.00  0.00    +0.344 C 
ATOM      3  N   UNL     1       1.015  -1.707   0.000  0.00  0.00    -0.184 NA
ATOM     29  N   UNL     1      -0.047  -2.663   0.000  0.00  0.00    -0.161 NA
BRANCH  29  30
ATOM     30  C   UNL     1      -0.854  -2.835   0.000  0.00  0.00    +0.076 A 
ATOM     31  C   UNL     1      -1.109  -3.619   0.000  0.00  0.00    +0.027 A 
ATOM     32  C   UNL     1      -1.916  -3.791   0.000  0.00  0.00    +0.070 A 
ATOM     33  C   UNL     1      -2.468  -3.178   0.000  0.00  0.00    +0.010 A 
ATOM     34  C   UNL     1      -2.213  -2.393   0.000  0.00  0.00    +0.002 A 
ATOM     35  C   UNL     1      -1.406  -2.222   0.000  0.00  0.00    +0.017 A 
BRANCH  32  36
ATOM     36  C   UNL     1      -2.171  -4.575   0.000  0.00  0.00    +0.100 C 
ATOM     37  N   UNL     1      -2.426  -5.360   0.000  0.00  0.00    -0.191 NA
ENDBRANCH  32  36
ENDBRANCH  29  30
ENDBRANCH   4   3
BRANCH   8  12
ATOM     12  O   UNL     1       3.094   1.197   0.000  0.00  0.00    -0.432 OA
BRANCH  12  13
ATOM     13  C   UNL     1       3.901   1.369   0.000  0.00  0.00    +0.425 C 
ATOM     14  O   UNL     1       4.453   0.756   0.000  0.00  0.00    -0.224 OA
ATOM     15  N   UNL     1       4.156   2.153   0.000  0.00  0.00    -0.142 NA
BRANCH  15  16
ATOM     16  C   UNL     1       4.963   2.325   0.000  0.00  0.00    +0.077 A 
ATOM     17  C   UNL     1       5.218   3.109   0.000  0.00  0.00    +0.020 A 
ATOM     18  C   UNL     1       6.024   3.281   0.000  0.00  0.00    +0.039 A 
ATOM     19  C   UNL     1       6.577   2.668   0.000  0.00  0.00    +0.145 A 
ATOM     27  C   UNL     1       6.322   1.883   0.000  0.00  0.00    +0.039 A 
ATOM     28  C   UNL     1       5.515   1.712   0.000  0.00  0.00    +0.020 A 
BRANCH  19  20
ATOM     20  O   UNL     1       7.383   2.839   0.000  0.00  0.00    -0.453 OA
BRANCH  20  21
ATOM     21  C   UNL     1       7.936   2.226   0.000  0.00  0.00    +0.145 A 
ATOM     22  C   UNL     1       8.742   2.398   0.000  0.00  0.00    +0.037 A 
ATOM     23  C   UNL     1       9.295   1.785   0.000  0.00  0.00    +0.003 A 
ATOM     24  C   UNL     1       9.040   1.000   0.000  0.00  0.00    +0.000 A 
ATOM     25  C   UNL     1       8.233   0.829   0.000  0.00  0.00    +0.003 A 
ATOM     26  C   UNL     1       7.681   1.442   0.000  0.00  0.00    +0.037 A 
ENDBRANCH  20  21
ENDBRANCH  19  20
ENDBRANCH  15  16
ENDBRANCH  12  13
ENDBRANCH   8  12
TORSDOF 8
