REMARK  Name = 
REMARK  5 active torsions:
REMARK  status: ('A' for Active; 'I' for Inactive)
REMARK    1  A    between atoms: C_5  and  S_8
REMARK    2  A    between atoms: S_8  and  N_11
REMARK    3  A    between atoms: N_11  and  C_12
REMARK    4  A    between atoms: N_20  and  C_21
REMARK    5  A    between atoms: C_21  and  C_22
REMARK                            x       y       z     vdW  Elec       q    Type
REMARK                         _______ _______ _______ _____ _____    ______ ____
ROOT
ATOM     12  C   UNL     1      -1.296  -1.150   0.000  0.00  0.00    +0.147 A 
ATOM     13  C   UNL     1      -1.167  -0.335   0.000  0.00  0.00    +0.024 A 
ATOM     14  C   UNL     1      -0.397  -0.039   0.000  0.00  0.00    +0.014 A 
ATOM     15  C   UNL     1       0.244  -0.558   0.000  0.00  0.00    +0.041 A 
ATOM     16  C   UNL     1       1.163  -0.557   0.000  0.00  0.00    +0.054 C 
ATOM     17  C   UNL     1       1.713  -0.121   0.000  0.00  0.00    +0.011 C 
ATOM     18  C   UNL     1       1.582  -0.925   0.000  0.00  0.00    +0.039 C 
ATOM     19  C   UNL     1       1.629  -1.912   0.000  0.00  0.00    +0.074 C 
ATOM     20  N   UNL     1       0.813  -2.091   0.000  0.00  0.00    -0.272 NA
ATOM     28  C   UNL     1       1.225  -1.510   0.000  0.00  0.00    +0.078 C 
ATOM     29  C   UNL     1       0.622  -0.936   0.000  0.00  0.00    +0.110 C 
ATOM     30  N   UNL     1       0.115  -1.373   0.000  0.00  0.00    -0.298 N 
ATOM     31  C   UNL     1      -0.655  -1.669   0.000  0.00  0.00    +0.277 A 
ATOM     32  O   UNL     1      -0.784  -2.484   0.000  0.00  0.00    -0.266 OA
ENDROOT
BRANCH  12  11
ATOM     11  N   UNL     1      -2.066  -1.445   0.000  0.00  0.00    -0.092 NA
BRANCH  11   8
ATOM      8  S   UNL     1      -2.195  -2.260   0.000  0.00  0.00    +0.093 S 
ATOM      9  O   UNL     1      -1.380  -2.389   0.000  0.00  0.00    -0.148 OA
ATOM     10  O   UNL     1      -3.010  -2.131   0.000  0.00  0.00    -0.148 OA
BRANCH   8   5
ATOM      1  C   UNL     1      -2.711  -5.520   0.000  0.00  0.00    +0.031 C 
ATOM      2  C   UNL     1      -2.582  -4.705   0.000  0.00  0.00    -0.022 A 
ATOM      3  C   UNL     1      -3.223  -4.186   0.000  0.00  0.00    -0.003 A 
ATOM      4  C   UNL     1      -3.094  -3.371   0.000  0.00  0.00    +0.020 A 
ATOM      5  C   UNL     1      -2.324  -3.075   0.000  0.00  0.00    +0.127 A 
ATOM      6  C   UNL     1      -1.683  -3.594   0.000  0.00  0.00    +0.020 A 
ATOM      7  C   UNL     1      -1.812  -4.409   0.000  0.00  0.00    -0.003 A 
ENDBRANCH   8   5
ENDBRANCH  11   8
ENDBRANCH  12  11
BRANCH  20  21
ATOM     21  C   UNL     1       0.125  -2.547   0.000  0.00  0.00    +0.072 C 
BRANCH  21  22
ATOM     22  C   UNL     1       0.176  -3.370   0.000  0.00  0.00    +0.016 C 
ATOM     23  C   UNL     1       0.914  -3.738   0.000  0.00  0.00    +0.001 C 
ATOM     24  C   UNL     1       0.965  -4.562   0.000  0.00  0.00    +0.000 C 
ATOM     25  C   UNL     1       0.277  -5.017   0.000  0.00  0.00    +0.000 C 
ATOM     26  C   UNL     1      -0.461  -4.650   0.000  0.00  0.00    +0.000 C 
ATOM     27  C   UNL     1      -0.512  -3.826   0.000  0.00  0.00    +0.001 C 
ENDBRANCH  21  22
ENDBRANCH  20  21
TORSDOF 5
