REMARK  Name = 
REMARK  4 active torsions:
REMARK  status: ('A' for Active; 'I' for Inactive)
REMARK    1  A    between atoms: C_7  and  C_8
REMARK    2  A    between atoms: N_10  and  C_11
REMARK    3  A    between atoms: C_17  and  C_18
REMARK    4  A    between atoms: C_21  and  N_24
REMARK                            x       y       z     vdW  Elec       q    Type
REMARK                         _______ _______ _______ _____ _____    ______ ____
ROOT
ATOM     11  C   UNL     1       0.715  -3.712   0.000  0.00  0.00    +0.133 C 
ATOM     12  C   UNL     1       1.382  -4.197   0.000  0.00  0.00    +0.202 C 
ATOM     13  O   UNL     1       2.167  -3.942   0.000  0.00  0.00    -0.219 OA
ATOM     14  C   UNL     1       1.127  -4.982   0.000  0.00  0.00    +0.184 C 
ATOM     15  O   UNL     1       1.612  -5.649   0.000  0.00  0.00    -0.220 OA
ATOM     16  C   UNL     1       0.302  -4.982   0.000  0.00  0.00    +0.042 C 
ATOM     17  C   UNL     1       0.047  -4.197   0.000  0.00  0.00    +0.049 C 
ENDROOT
BRANCH  17  18
ATOM     18  C   UNL     1      -0.738  -3.942   0.000  0.00  0.00    -0.001 A 
ATOM     19  C   UNL     1      -1.351  -4.495   0.000  0.00  0.00    +0.000 A 
ATOM     20  C   UNL     1      -2.135  -4.240   0.000  0.00  0.00    +0.034 A 
ATOM     21  C   UNL     1      -2.307  -3.433   0.000  0.00  0.00    +0.132 A 
ATOM     22  N   UNL     1      -1.694  -2.881   0.000  0.00  0.00    -0.229 NA
ATOM     23  C   UNL     1      -0.909  -3.135   0.000  0.00  0.00    +0.096 A 
BRANCH  21  24
ATOM     24  N   UNL     1      -3.091  -3.178   0.000  0.00  0.00    -0.288 N 
ATOM     25  C   UNL     1      -3.704  -3.730   0.000  0.00  0.00    +0.124 C 
ATOM     26  C   UNL     1      -4.489  -3.475   0.000  0.00  0.00    +0.164 C 
ATOM     27  O   UNL     1      -4.661  -2.668   0.000  0.00  0.00    -0.350 OA
ATOM     28  C   UNL     1      -4.048  -2.116   0.000  0.00  0.00    +0.164 C 
ATOM     29  C   UNL     1      -3.263  -2.371   0.000  0.00  0.00    +0.124 C 
ENDBRANCH  21  24
ENDBRANCH  17  18
BRANCH  11  10
ATOM      8  C   UNL     1       1.429  -2.475   0.000  0.00  0.00    +0.265 C 
ATOM      9  O   UNL     1       2.143  -2.888   0.000  0.00  0.00    -0.268 OA
ATOM     10  N   UNL     1       0.715  -2.888   0.000  0.00  0.00    -0.200 NA
BRANCH   8   7
ATOM      1  C   UNL     1       0.000  -1.650   0.000  0.00  0.00    +0.031 C 
ATOM      2  C   UNL     1       0.715  -1.238   0.000  0.00  0.00    -0.017 A 
ATOM      3  C   UNL     1       0.715  -0.412   0.000  0.00  0.00    -0.004 A 
ATOM      4  C   UNL     1       1.429   0.000   0.000  0.00  0.00    -0.000 A 
ATOM      5  C   UNL     1       2.143  -0.412   0.000  0.00  0.00    +0.000 A 
ATOM      6  C   UNL     1       2.143  -1.238   0.000  0.00  0.00    +0.004 A 
ATOM      7  C   UNL     1       1.429  -1.650   0.000  0.00  0.00    +0.051 A 
ENDBRANCH   8   7
ENDBRANCH  11  10
TORSDOF 4
