REMARK  Name = 
REMARK  6 active torsions:
REMARK  status: ('A' for Active; 'I' for Inactive)
REMARK    1  A    between atoms: C_2  and  C_3
REMARK    2  A    between atoms: C_10  and  C_11
REMARK    3  A    between atoms: C_11  and  N_12
REMARK    4  A    between atoms: N_15  and  C_16
REMARK    5  A    between atoms: C_19  and  O_20
REMARK    6  A    between atoms: O_20  and  C_21
REMARK                            x       y       z     vdW  Elec       q    Type
REMARK                         _______ _______ _______ _____ _____    ______ ____
ROOT
ATOM     12  N   UNL     1       0.241  -3.546   0.000  0.00  0.00    -0.185 NA
ATOM     13  C   UNL     1      -0.163  -4.265   0.000  0.00  0.00    +0.344 C 
ATOM     14  O   UNL     1      -0.988  -4.274   0.000  0.00  0.00    -0.249 OA
ATOM     15  N   UNL     1       0.257  -4.975   0.000  0.00  0.00    -0.161 NA
ENDROOT
BRANCH  15  16
ATOM     16  C   UNL     1      -0.148  -5.694   0.000  0.00  0.00    +0.075 A 
ATOM     17  C   UNL     1       0.272  -6.404   0.000  0.00  0.00    +0.020 A 
ATOM     18  C   UNL     1      -0.133  -7.123   0.000  0.00  0.00    +0.039 A 
ATOM     19  C   UNL     1      -0.958  -7.132   0.000  0.00  0.00    +0.145 A 
ATOM     27  C   UNL     1      -1.378  -6.422   0.000  0.00  0.00    +0.039 A 
ATOM     28  C   UNL     1      -0.973  -5.703   0.000  0.00  0.00    +0.020 A 
BRANCH  19  20
ATOM     20  O   UNL     1      -1.362  -7.851   0.000  0.00  0.00    -0.453 OA
BRANCH  20  21
ATOM     21  C   UNL     1      -0.942  -8.561   0.000  0.00  0.00    +0.145 A 
ATOM     22  C   UNL     1      -0.117  -8.552   0.000  0.00  0.00    +0.037 A 
ATOM     23  C   UNL     1       0.303  -9.262   0.000  0.00  0.00    +0.003 A 
ATOM     24  C   UNL     1      -0.102  -9.981   0.000  0.00  0.00    +0.000 A 
ATOM     25  C   UNL     1      -0.927  -9.989   0.000  0.00  0.00    +0.003 A 
ATOM     26  C   UNL     1      -1.347  -9.280   0.000  0.00  0.00    +0.037 A 
ENDBRANCH  20  21
ENDBRANCH  19  20
ENDBRANCH  15  16
BRANCH  12  11
ATOM     11  C   UNL     1      -0.179  -2.836   0.000  0.00  0.00    +0.133 C 
BRANCH  11  10
ATOM      3  C   UNL     1       1.661  -1.343   0.000  0.00  0.00    +0.016 C 
ATOM      4  C   UNL     1       1.814  -2.106   0.000  0.00  0.00    +0.072 C 
ATOM      5  N   UNL     1       1.065  -1.759   0.000  0.00  0.00    -0.272 NA
ATOM      6  C   UNL     1       1.205  -0.720   0.000  0.00  0.00    +0.072 C 
ATOM      7  C   UNL     1       0.961  -0.114   0.000  0.00  0.00    +0.017 C 
ATOM      8  C   UNL     1       0.923  -1.010   0.000  0.00  0.00    +0.004 C 
ATOM      9  C   UNL     1       0.119  -1.362   0.000  0.00  0.00    +0.018 C 
ATOM     10  C   UNL     1       0.226  -2.118   0.000  0.00  0.00    +0.079 C 
BRANCH   3   2
ATOM      1  C   UNL     1       2.184  -0.013   0.000  0.00  0.00    +0.000 C 
ATOM      2  C   UNL     1       2.307  -0.828   0.000  0.00  0.00    +0.001 C 
ENDBRANCH   3   2
ENDBRANCH  11  10
ENDBRANCH  12  11
TORSDOF 6
