REMARK  Name = 
REMARK  1 active torsions:
REMARK  status: ('A' for Active; 'I' for Inactive)
REMARK    1  A    between atoms: C_7  and  C_9
REMARK                            x       y       z     vdW  Elec       q    Type
REMARK                         _______ _______ _______ _____ _____    ______ ____
ROOT
ATOM      9  C   UNL     1      -0.628  -0.698   0.000  0.00  0.00    +0.207 A 
ATOM     10  N   UNL     1      -0.143  -1.365   0.000  0.00  0.00    -0.212 NA
ATOM     11  C   UNL     1       0.641  -1.110   0.000  0.00  0.00    +0.121 A 
ATOM     12  C   UNL     1       0.641  -0.285   0.000  0.00  0.00    +0.165 A 
ATOM     13  O   UNL     1      -0.143  -0.030   0.000  0.00  0.00    -0.438 OA
ATOM     14  C   UNL     1       1.356   0.127   0.000  0.00  0.00    +0.041 A 
ATOM     15  C   UNL     1       2.070  -0.285   0.000  0.00  0.00    +0.033 A 
ATOM     16  C   UNL     1       2.070  -1.110   0.000  0.00  0.00    +0.142 A 
ATOM     17  F   UNL     1       2.784  -1.523   0.000  0.00  0.00    -0.204 F 
ATOM     18  C   UNL     1       1.356  -1.523   0.000  0.00  0.00    +0.052 A 
ENDROOT
BRANCH   9   7
ATOM      1  C   UNL     1      -4.144  -1.260   0.000  0.00  0.00    +0.095 C 
ATOM      2  C   UNL     1      -3.390  -1.595   0.000  0.00  0.00    +0.226 C 
ATOM      3  O   UNL     1      -3.304  -2.416   0.000  0.00  0.00    -0.275 OA
ATOM      4  N   UNL     1      -2.723  -1.110   0.000  0.00  0.00    -0.279 N 
ATOM      5  C   UNL     1      -2.723  -0.285   0.000  0.00  0.00    +0.094 C 
ATOM      6  C   UNL     1      -1.938  -0.030   0.000  0.00  0.00    +0.032 C 
ATOM      7  C   UNL     1      -1.453  -0.698   0.000  0.00  0.00    +0.098 C 
ATOM      8  C   UNL     1      -1.938  -1.365   0.000  0.00  0.00    +0.103 C 
ENDBRANCH   9   7
TORSDOF 1
