REMARK  Name = 
REMARK  6 active torsions:
REMARK  status: ('A' for Active; 'I' for Inactive)
REMARK    1  A    between atoms: C_5  and  S_8
REMARK    2  A    between atoms: S_8  and  N_11
REMARK    3  A    between atoms: N_11  and  C_12
REMARK    4  A    between atoms: C_12  and  C_13
REMARK    5  A    between atoms: C_20  and  C_21
REMARK    6  A    between atoms: C_23  and  C_28
REMARK                            x       y       z     vdW  Elec       q    Type
REMARK                         _______ _______ _______ _____ _____    ______ ____
ROOT
ATOM     13  C   UNL     1       1.814  -2.106   0.000  0.00  0.00    +0.077 C 
ATOM     14  C   UNL     1       1.661  -1.343   0.000  0.00  0.00    +0.018 C 
ATOM     15  C   UNL     1       0.923  -1.010   0.000  0.00  0.00    +0.010 C 
ATOM     16  C   UNL     1       0.961  -0.114   0.000  0.00  0.00    +0.018 C 
ATOM     17  C   UNL     1       1.205  -0.720   0.000  0.00  0.00    +0.072 C 
ATOM     18  N   UNL     1       1.065  -1.759   0.000  0.00  0.00    -0.272 NA
ATOM     19  C   UNL     1       0.226  -2.118   0.000  0.00  0.00    +0.078 C 
ATOM     20  C   UNL     1       0.119  -1.362   0.000  0.00  0.00    +0.056 C 
ENDROOT
BRANCH  20  21
ATOM     21  C   UNL     1      -0.602  -0.960   0.000  0.00  0.00    +0.063 A 
ATOM     22  C   UNL     1      -1.310  -1.384   0.000  0.00  0.00    +0.034 A 
ATOM     23  C   UNL     1      -2.030  -0.982   0.000  0.00  0.00    +0.084 A 
ATOM     24  N   UNL     1      -2.043  -0.157   0.000  0.00  0.00    -0.231 NA
ATOM     25  C   UNL     1      -1.335   0.266   0.000  0.00  0.00    +0.139 A 
ATOM     26  C   UNL     1      -1.347   1.091   0.000  0.00  0.00    +0.074 C 
ATOM     27  N   UNL     1      -0.614  -0.136   0.000  0.00  0.00    -0.235 NA
BRANCH  23  28
ATOM     28  C   UNL     1      -2.739  -1.405   0.000  0.00  0.00    +0.024 A 
ATOM     29  C   UNL     1      -2.726  -2.230   0.000  0.00  0.00    +0.036 A 
ATOM     30 BR   UNL     1      -2.006  -2.632   0.000  0.00  0.00    -0.049 Br
ATOM     31  C   UNL     1      -3.434  -2.653   0.000  0.00  0.00    +0.007 A 
ATOM     32  C   UNL     1      -4.155  -2.251   0.000  0.00  0.00    +0.001 A 
ATOM     33  C   UNL     1      -4.167  -1.427   0.000  0.00  0.00    +0.000 A 
ATOM     34  C   UNL     1      -3.459  -1.003   0.000  0.00  0.00    +0.002 A 
ENDBRANCH  23  28
ENDBRANCH  20  21
BRANCH  13  12
ATOM     12  C   UNL     1       2.324  -2.754   0.000  0.00  0.00    +0.131 C 
BRANCH  12  11
ATOM     11  N   UNL     1       2.018  -3.520   0.000  0.00  0.00    -0.076 NA
BRANCH  11   8
ATOM      8  S   UNL     1       2.529  -4.168   0.000  0.00  0.00    +0.077 S 
ATOM      9  O   UNL     1       3.177  -3.658   0.000  0.00  0.00    -0.152 OA
ATOM     10  O   UNL     1       1.881  -4.678   0.000  0.00  0.00    -0.152 OA
BRANCH   8   5
ATOM      1  C   UNL     1       4.571  -6.760   0.000  0.00  0.00    +0.031 C 
ATOM      2  C   UNL     1       4.060  -6.112   0.000  0.00  0.00    -0.022 A 
ATOM      3  C   UNL     1       3.244  -6.230   0.000  0.00  0.00    -0.003 A 
ATOM      4  C   UNL     1       2.733  -5.582   0.000  0.00  0.00    +0.020 A 
ATOM      5  C   UNL     1       3.039  -4.816   0.000  0.00  0.00    +0.124 A 
ATOM      6  C   UNL     1       3.856  -4.698   0.000  0.00  0.00    +0.020 A 
ATOM      7  C   UNL     1       4.366  -5.346   0.000  0.00  0.00    -0.003 A 
ENDBRANCH   8   5
ENDBRANCH  11   8
ENDBRANCH  12  11
ENDBRANCH  13  12
TORSDOF 6
