REMARK  Name = 
REMARK  8 active torsions:
REMARK  status: ('A' for Active; 'I' for Inactive)
REMARK    1  A    between atoms: C_4  and  C_5
REMARK    2  A    between atoms: C_10  and  N_11
REMARK    3  A    between atoms: N_14  and  C_15
REMARK    4  A    between atoms: C_23  and  C_24
REMARK    5  A    between atoms: N_26  and  C_27
REMARK    6  A    between atoms: C_27  and  C_28
REMARK    7  A    between atoms: C_27  and  C_34
REMARK    8  A    between atoms: C_28  and  C_29
REMARK                            x       y       z     vdW  Elec       q    Type
REMARK                         _______ _______ _______ _____ _____    ______ ____
ROOT
ATOM      5  C   UNL     1       0.409  -6.615   0.000  0.00  0.00    +0.249 C 
ATOM      6  O   UNL     1       0.238  -7.422   0.000  0.00  0.00    -0.270 OA
ATOM      7  N   UNL     1      -0.204  -6.063   0.000  0.00  0.00    -0.268 N 
ATOM      8  C   UNL     1      -1.011  -6.235   0.000  0.00  0.00    +0.096 C 
ATOM      9  C   UNL     1      -1.423  -5.520   0.000  0.00  0.00    +0.045 C 
ATOM     10  C   UNL     1      -0.871  -4.907   0.000  0.00  0.00    +0.126 C 
ATOM     23  C   UNL     1      -0.117  -5.243   0.000  0.00  0.00    +0.174 C 
ENDROOT
BRANCH   5   4
ATOM      1  C   UNL     1       1.636  -7.719   0.000  0.00  0.00    +0.027 C 
ATOM      2  C   UNL     1       1.807  -6.912   0.000  0.00  0.00    -0.039 C 
ATOM      3  C   UNL     1       2.592  -6.657   0.000  0.00  0.00    +0.027 C 
ATOM      4  C   UNL     1       1.194  -6.360   0.000  0.00  0.00    +0.049 C 
ENDBRANCH   5   4
BRANCH  10  11
ATOM     11  N   UNL     1      -1.043  -4.100   0.000  0.00  0.00    -0.186 NA
ATOM     12  C   UNL     1      -1.827  -3.845   0.000  0.00  0.00    +0.344 C 
ATOM     13  O   UNL     1      -2.440  -4.397   0.000  0.00  0.00    -0.249 OA
ATOM     14  N   UNL     1      -1.999  -3.038   0.000  0.00  0.00    -0.159 NA
BRANCH  14  15
ATOM     15  C   UNL     1      -2.783  -2.783   0.000  0.00  0.00    +0.102 A 
ATOM     16  C   UNL     1      -3.397  -3.335   0.000  0.00  0.00    +0.158 A 
ATOM     17  F   UNL     1      -3.225  -4.142   0.000  0.00  0.00    -0.203 F 
ATOM     18  C   UNL     1      -4.181  -3.080   0.000  0.00  0.00    +0.061 A 
ATOM     19  C   UNL     1      -4.353  -2.273   0.000  0.00  0.00    +0.142 A 
ATOM     20  F   UNL     1      -5.137  -2.018   0.000  0.00  0.00    -0.204 F 
ATOM     21  C   UNL     1      -3.740  -1.721   0.000  0.00  0.00    +0.031 A 
ATOM     22  C   UNL     1      -2.955  -1.976   0.000  0.00  0.00    +0.021 A 
ENDBRANCH  14  15
ENDBRANCH  10  11
BRANCH  23  24
ATOM     24  C   UNL     1       0.597  -4.830   0.000  0.00  0.00    +0.262 C 
ATOM     25  O   UNL     1       1.312  -5.243   0.000  0.00  0.00    -0.271 OA
ATOM     26  N   UNL     1       0.597  -4.005   0.000  0.00  0.00    -0.196 NA
BRANCH  26  27
ATOM     27  C   UNL     1       1.312  -3.593   0.000  0.00  0.00    +0.179 C 
BRANCH  27  34
ATOM     34  C   UNL     1       2.026  -4.005   0.000  0.00  0.00    +0.281 C 
ATOM     35  N   UNL     1       2.740  -3.593   0.000  0.00  0.00    -0.086 NA
ATOM     36  O   UNL     1       2.026  -4.830   0.000  0.00  0.00    -0.270 OA
ENDBRANCH  27  34
BRANCH  27  28
ATOM     28  C   UNL     1       1.312  -2.768   0.000  0.00  0.00    +0.064 C 
BRANCH  28  29
ATOM     29  C   UNL     1       2.026  -2.355   0.000  0.00  0.00    +0.010 A 
ATOM     30  C   UNL     1       2.112  -1.535   0.000  0.00  0.00    +0.003 A 
ATOM     31  C   UNL     1       2.919  -1.363   0.000  0.00  0.00    +0.007 A 
ATOM     32  C   UNL     1       3.332  -2.078   0.000  0.00  0.00    +0.035 A 
ATOM     33  S   UNL     1       2.780  -2.691   0.000  0.00  0.00    -0.091 S 
ENDBRANCH  28  29
ENDBRANCH  27  28
ENDBRANCH  26  27
ENDBRANCH  23  24
TORSDOF 8
