REMARK  Name = 
REMARK  7 active torsions:
REMARK  status: ('A' for Active; 'I' for Inactive)
REMARK    1  A    between atoms: C_2  and  C_4
REMARK    2  A    between atoms: C_6  and  C_7
REMARK    3  A    between atoms: C_7  and  C_8
REMARK    4  A    between atoms: C_14  and  C_15
REMARK    5  A    between atoms: C_15  and  N_16
REMARK    6  A    between atoms: N_16  and  S_17
REMARK    7  A    between atoms: S_17  and  C_20
REMARK                            x       y       z     vdW  Elec       q    Type
REMARK                         _______ _______ _______ _____ _____    ______ ____
ROOT
ATOM      4  C   UNL     1       1.429  -3.300   0.000  0.00  0.00    +0.006 C 
ATOM      5  C   UNL     1       2.143  -3.712   0.000  0.00  0.00    +0.005 C 
ATOM      6  C   UNL     1       2.143  -4.537   0.000  0.00  0.00    +0.029 C 
ATOM     11  C   UNL     1       1.429  -4.950   0.000  0.00  0.00    -0.048 C 
ATOM     12  C   UNL     1       1.429  -5.775   0.000  0.00  0.00    +0.026 C 
ATOM     13  C   UNL     1       0.715  -4.537   0.000  0.00  0.00    -0.033 C 
ATOM     14  C   UNL     1       0.715  -3.712   0.000  0.00  0.00    +0.041 C 
ENDROOT
BRANCH   4   2
ATOM      1  C   UNL     1       0.715  -2.062   0.000  0.00  0.00    +0.000 C 
ATOM      2  C   UNL     1       1.429  -2.475   0.000  0.00  0.00    +0.000 C 
ATOM      3  C   UNL     1       2.143  -2.062   0.000  0.00  0.00    +0.000 C 
ENDBRANCH   4   2
BRANCH   6   7
ATOM      7  C   UNL     1       2.858  -4.950   0.000  0.00  0.00    +0.118 C 
BRANCH   7   8
ATOM      8  C   UNL     1       2.858  -5.775   0.000  0.00  0.00    +0.365 C 
ATOM      9  O   UNL     1       3.572  -6.188   0.000  0.00  0.00    -0.246 OA
ATOM     10  O   UNL     1       2.143  -6.188   0.000  0.00  0.00    -0.246 OA
ENDBRANCH   7   8
ENDBRANCH   6   7
BRANCH  14  15
ATOM     15  C   UNL     1       0.000  -3.300   0.000  0.00  0.00    +0.120 C 
BRANCH  15  16
ATOM     16  N   UNL     1      -0.715  -3.712   0.000  0.00  0.00    -0.077 NA
BRANCH  16  17
ATOM     17  S   UNL     1      -1.429  -3.300   0.000  0.00  0.00    +0.077 S 
ATOM     18  O   UNL     1      -1.016  -2.586   0.000  0.00  0.00    -0.152 OA
ATOM     19  O   UNL     1      -1.841  -4.014   0.000  0.00  0.00    -0.152 OA
BRANCH  17  20
ATOM     20  C   UNL     1      -2.143  -2.888   0.000  0.00  0.00    +0.126 A 
ATOM     21  C   UNL     1      -2.858  -3.300   0.000  0.00  0.00    +0.050 A 
ATOM     22  C   UNL     1      -3.572  -2.888   0.000  0.00  0.00    +0.141 A 
ATOM     23  F   UNL     1      -4.287  -3.300   0.000  0.00  0.00    -0.204 F 
ATOM     24  C   UNL     1      -3.572  -2.062   0.000  0.00  0.00    +0.030 A 
ATOM     25  C   UNL     1      -2.858  -1.650   0.000  0.00  0.00    +0.004 A 
ATOM     26  C   UNL     1      -2.143  -2.062   0.000  0.00  0.00    +0.020 A 
ENDBRANCH  17  20
ENDBRANCH  16  17
ENDBRANCH  15  16
ENDBRANCH  14  15
TORSDOF 7
