REMARK  Name = 
REMARK  8 active torsions:
REMARK  status: ('A' for Active; 'I' for Inactive)
REMARK    1  A    between atoms: O_2  and  C_3
REMARK    2  A    between atoms: C_3  and  C_4
REMARK    3  A    between atoms: C_6  and  C_7
REMARK    4  A    between atoms: C_7  and  C_8
REMARK    5  A    between atoms: C_8  and  N_12
REMARK    6  A    between atoms: N_12  and  C_13
REMARK    7  A    between atoms: C_13  and  C_14
REMARK    8  A    between atoms: C_17  and  C_18
REMARK                            x       y       z     vdW  Elec       q    Type
REMARK                         _______ _______ _______ _____ _____    ______ ____
ROOT
ATOM      8  C   UNL     1       1.262  -2.119   0.000  0.00  0.00    +0.120 C 
ATOM      9  C   UNL     1       1.846  -2.702   0.000  0.00  0.00    +0.161 C 
ATOM     10  O   UNL     1       1.262  -3.285   0.000  0.00  0.00    -0.351 OA
ATOM     11  C   UNL     1       0.679  -2.702   0.000  0.00  0.00    +0.161 C 
ENDROOT
BRANCH   8   7
ATOM      7  C   UNL     1       0.679  -1.535   0.000  0.00  0.00    +0.070 C 
BRANCH   7   6
ATOM      4  C   UNL     1       1.619   0.381   0.000  0.00  0.00    +0.184 A 
ATOM      5  C   UNL     1       1.663  -0.443   0.000  0.00  0.00    +0.056 A 
ATOM      6  C   UNL     1       0.892  -0.739   0.000  0.00  0.00    +0.102 A 
ATOM     21  N   UNL     1       0.373  -0.097   0.000  0.00  0.00    -0.082 NA
ATOM     22  O   UNL     1       0.823   0.595   0.000  0.00  0.00    -0.356 OA
BRANCH   4   3
ATOM      3  C   UNL     1       2.261   0.900   0.000  0.00  0.00    +0.209 C 
BRANCH   3   2
ATOM      1  C   UNL     1       2.773   2.234   0.000  0.00  0.00    +0.175 C 
ATOM      2  O   UNL     1       2.131   1.715   0.000  0.00  0.00    -0.343 OA
ENDBRANCH   3   2
ENDBRANCH   4   3
ENDBRANCH   7   6
ENDBRANCH   8   7
BRANCH   8  12
ATOM     12  N   UNL     1       1.846  -1.535   0.000  0.00  0.00    -0.207 NA
BRANCH  12  13
ATOM     13  C   UNL     1       2.643  -1.749   0.000  0.00  0.00    +0.153 C 
BRANCH  13  14
ATOM     14  C   UNL     1       3.226  -1.166   0.000  0.00  0.00    +0.140 A 
ATOM     15  C   UNL     1       3.097  -0.351   0.000  0.00  0.00    +0.037 A 
ATOM     16  C   UNL     1       3.832   0.024   0.000  0.00  0.00    +0.038 A 
ATOM     17  C   UNL     1       4.415  -0.559   0.000  0.00  0.00    +0.156 A 
ATOM     20  O   UNL     1       4.041  -1.295   0.000  0.00  0.00    -0.458 OA
BRANCH  17  18
ATOM     18  C   UNL     1       5.230  -0.430   0.000  0.00  0.00    +0.246 C 
ATOM     19  O   UNL     1       5.749  -1.072   0.000  0.00  0.00    -0.212 OA
ENDBRANCH  17  18
ENDBRANCH  13  14
ENDBRANCH  12  13
ENDBRANCH   8  12
TORSDOF 8
