REMARK  Name = 
REMARK  8 active torsions:
REMARK  status: ('A' for Active; 'I' for Inactive)
REMARK    1  A    between atoms: O_2  and  C_3
REMARK    2  A    between atoms: C_5  and  O_6
REMARK    3  A    between atoms: C_9  and  N_10
REMARK    4  A    between atoms: N_13  and  C_14
REMARK    5  A    between atoms: C_14  and  C_15
REMARK    6  A    between atoms: C_17  and  C_18
REMARK    7  A    between atoms: C_18  and  C_19
REMARK    8  A    between atoms: N_21  and  C_22
REMARK                            x       y       z     vdW  Elec       q    Type
REMARK                         _______ _______ _______ _____ _____    ______ ____
ROOT
ATOM     14  C   UNL     1       3.572   2.062   0.000  0.00  0.00    +0.149 C 
ENDROOT
BRANCH  14  15
ATOM     15  C   UNL     1       4.287   1.650   0.000  0.00  0.00    +0.170 C 
ATOM     16  O   UNL     1       5.040   1.986   0.000  0.00  0.00    -0.351 OA
ATOM     17  C   UNL     1       5.593   1.373   0.000  0.00  0.00    +0.157 C 
ATOM     25  C   UNL     1       5.180   0.658   0.000  0.00  0.00    +0.212 C 
ATOM     26  O   UNL     1       5.516  -0.096   0.000  0.00  0.00    -0.218 OA
ATOM     27  C   UNL     1       4.373   0.830   0.000  0.00  0.00    +0.213 C 
ATOM     28  O   UNL     1       3.760   0.278   0.000  0.00  0.00    -0.218 OA
BRANCH  17  18
ATOM     18  C   UNL     1       6.413   1.459   0.000  0.00  0.00    +0.119 C 
BRANCH  18  19
ATOM     19  C   UNL     1       6.898   0.791   0.000  0.00  0.00    +0.244 C 
ATOM     20  O   UNL     1       6.562   0.038   0.000  0.00  0.00    -0.273 OA
ATOM     21  N   UNL     1       7.718   0.877   0.000  0.00  0.00    -0.207 NA
BRANCH  21  22
ATOM     22  C   UNL     1       8.203   0.210   0.000  0.00  0.00    +0.095 C 
ATOM     23  C   UNL     1       8.957  -0.126   0.000  0.00  0.00    +0.023 C 
ATOM     24  C   UNL     1       8.290  -0.610   0.000  0.00  0.00    +0.023 C 
ENDBRANCH  21  22
ENDBRANCH  18  19
ENDBRANCH  17  18
ENDBRANCH  14  15
BRANCH  14  13
ATOM     10  N   UNL     1       1.429   1.650   0.000  0.00  0.00    -0.161 NA
ATOM     11  C   UNL     1       2.143   2.062   0.000  0.00  0.00    +0.344 C 
ATOM     12  O   UNL     1       2.143   2.888   0.000  0.00  0.00    -0.249 OA
ATOM     13  N   UNL     1       2.858   1.650   0.000  0.00  0.00    -0.184 NA
BRANCH  10   9
ATOM      3  C   UNL     1      -0.715   2.062   0.000  0.00  0.00    +0.143 A 
ATOM      4  C   UNL     1      -0.715   2.888   0.000  0.00  0.00    +0.074 A 
ATOM      5  C   UNL     1       0.000   3.300   0.000  0.00  0.00    +0.143 A 
ATOM      8  C   UNL     1       0.715   2.888   0.000  0.00  0.00    +0.054 A 
ATOM      9  C   UNL     1       0.715   2.062   0.000  0.00  0.00    +0.081 A 
ATOM     29  C   UNL     1       0.000   1.650   0.000  0.00  0.00    +0.054 A 
BRANCH   3   2
ATOM      1  C   UNL     1      -2.143   2.062   0.000  0.00  0.00    +0.252 C 
ATOM      2  O   UNL     1      -1.429   1.650   0.000  0.00  0.00    -0.471 OA
ENDBRANCH   3   2
BRANCH   5   6
ATOM      6  O   UNL     1       0.000   4.125   0.000  0.00  0.00    -0.471 OA
ATOM      7  C   UNL     1       0.715   4.537   0.000  0.00  0.00    +0.252 C 
ENDBRANCH   5   6
ENDBRANCH  10   9
ENDBRANCH  14  13
TORSDOF 8
