REMARK  Name = 
REMARK  5 active torsions:
REMARK  status: ('A' for Active; 'I' for Inactive)
REMARK    1  A    between atoms: C_4  and  N_19
REMARK    2  A    between atoms: C_6  and  C_7
REMARK    3  A    between atoms: C_9  and  C_10
REMARK    4  A    between atoms: C_10  and  C_11
REMARK    5  A    between atoms: N_22  and  C_23
REMARK                            x       y       z     vdW  Elec       q    Type
REMARK                         _______ _______ _______ _____ _____    ______ ____
ROOT
ATOM      1  C   UNL     1       2.751  -1.712   0.000  0.00  0.00    +0.090 C 
ATOM      2  N   UNL     1       2.751  -2.537   0.000  0.00  0.00    -0.264 NA
ATOM      3  C   UNL     1       3.419  -3.022   0.000  0.00  0.00    +0.094 C 
ATOM      4  C   UNL     1       3.164  -3.806   0.000  0.00  0.00    +0.115 C 
ATOM      5  C   UNL     1       2.339  -3.806   0.000  0.00  0.00    +0.049 C 
ATOM      6  C   UNL     1       2.084  -3.022   0.000  0.00  0.00    +0.139 C 
ENDROOT
BRANCH   6   7
ATOM      7  C   UNL     1       1.299  -2.767   0.000  0.00  0.00    +0.251 A 
ATOM      8  N   UNL     1       0.632  -3.252   0.000  0.00  0.00    -0.193 NA
ATOM      9  C   UNL     1      -0.036  -2.767   0.000  0.00  0.00    +0.185 A 
ATOM     17  N   UNL     1       0.219  -1.982   0.000  0.00  0.00    -0.060 NA
ATOM     18  O   UNL     1       1.044  -1.982   0.000  0.00  0.00    -0.336 OA
BRANCH   9  10
ATOM     10  C   UNL     1      -0.820  -3.022   0.000  0.00  0.00    +0.095 C 
BRANCH  10  11
ATOM     11  C   UNL     1      -1.433  -2.470   0.000  0.00  0.00    -0.014 A 
ATOM     12  C   UNL     1      -2.218  -2.724   0.000  0.00  0.00    -0.004 A 
ATOM     13  C   UNL     1      -2.831  -2.172   0.000  0.00  0.00    -0.000 A 
ATOM     14  C   UNL     1      -2.660  -1.365   0.000  0.00  0.00    -0.000 A 
ATOM     15  C   UNL     1      -1.875  -1.111   0.000  0.00  0.00    -0.000 A 
ATOM     16  C   UNL     1      -1.262  -1.663   0.000  0.00  0.00    -0.004 A 
ENDBRANCH  10  11
ENDBRANCH   9  10
ENDBRANCH   6   7
BRANCH   4  19
ATOM     19  N   UNL     1       3.649  -4.474   0.000  0.00  0.00    -0.187 NA
ATOM     20  C   UNL     1       3.313  -5.227   0.000  0.00  0.00    +0.339 C 
ATOM     21  O   UNL     1       2.493  -5.314   0.000  0.00  0.00    -0.249 OA
ATOM     22  N   UNL     1       3.798  -5.895   0.000  0.00  0.00    -0.189 NA
BRANCH  22  23
ATOM     23  C   UNL     1       3.462  -6.648   0.000  0.00  0.00    +0.097 C 
ATOM     24  C   UNL     1       3.947  -7.316   0.000  0.00  0.00    +0.022 C 
ATOM     25  C   UNL     1       3.612  -8.069   0.000  0.00  0.00    +0.002 C 
ATOM     26  C   UNL     1       2.791  -8.156   0.000  0.00  0.00    +0.000 C 
ATOM     27  C   UNL     1       2.306  -7.488   0.000  0.00  0.00    +0.002 C 
ATOM     28  C   UNL     1       2.642  -6.735   0.000  0.00  0.00    +0.022 C 
ENDBRANCH  22  23
ENDBRANCH   4  19
TORSDOF 5
