REMARK  Name = 
REMARK  3 active torsions:
REMARK  status: ('A' for Active; 'I' for Inactive)
REMARK    1  A    between atoms: C_5  and  N_8
REMARK    2  A    between atoms: N_15  and  S_19
REMARK    3  A    between atoms: S_19  and  C_22
REMARK                            x       y       z     vdW  Elec       q    Type
REMARK                         _______ _______ _______ _____ _____    ______ ____
ROOT
ATOM      8  N   UNL     1       3.352   1.935   0.000  0.00  0.00    -0.190 N 
ATOM      9  C   UNL     1       3.352   1.110   0.000  0.00  0.00    +0.333 C 
ATOM     10  O   UNL     1       4.067   0.698   0.000  0.00  0.00    -0.250 OA
ATOM     11  N   UNL     1       2.638   0.698   0.000  0.00  0.00    -0.188 NA
ATOM     12  C   UNL     1       1.923   1.110   0.000  0.00  0.00    +0.123 C 
ATOM     13  C   UNL     1       1.139   0.856   0.000  0.00  0.00    +0.043 C 
ATOM     14  C   UNL     1       0.654   1.523   0.000  0.00  0.00    +0.098 C 
ATOM     15  N   UNL     1       1.139   2.190   0.000  0.00  0.00    -0.146 NA
ATOM     16  C   UNL     1       1.923   1.935   0.000  0.00  0.00    +0.176 C 
ATOM     17  C   UNL     1       2.638   2.348   0.000  0.00  0.00    +0.254 C 
ATOM     18  O   UNL     1       2.638   3.173   0.000  0.00  0.00    -0.273 OA
ENDROOT
BRANCH   8   5
ATOM      1  C   UNL     1       6.210   3.585   0.000  0.00  0.00    +0.031 C 
ATOM      2  C   UNL     1       5.496   3.173   0.000  0.00  0.00    -0.022 A 
ATOM      3  C   UNL     1       5.496   2.348   0.000  0.00  0.00    -0.003 A 
ATOM      4  C   UNL     1       4.781   1.935   0.000  0.00  0.00    +0.015 A 
ATOM      5  C   UNL     1       4.067   2.348   0.000  0.00  0.00    +0.062 A 
ATOM      6  C   UNL     1       4.067   3.173   0.000  0.00  0.00    +0.015 A 
ATOM      7  C   UNL     1       4.781   3.585   0.000  0.00  0.00    -0.003 A 
ENDBRANCH   8   5
BRANCH  15  19
ATOM     19  S   UNL     1       0.884   2.975   0.000  0.00  0.00    +0.064 S 
ATOM     20  O   UNL     1       1.668   3.230   0.000  0.00  0.00    -0.153 OA
ATOM     21  O   UNL     1       0.099   2.720   0.000  0.00  0.00    -0.153 OA
BRANCH  19  22
ATOM     22  C   UNL     1       0.629   3.760   0.000  0.00  0.00    +0.122 A 
ATOM     23  C   UNL     1      -0.178   3.931   0.000  0.00  0.00    +0.021 A 
ATOM     24  C   UNL     1      -0.433   4.716   0.000  0.00  0.00    +0.013 A 
ATOM     25  C   UNL     1       0.119   5.329   0.000  0.00  0.00    +0.058 A 
ATOM     26 CL   UNL     1      -0.136   6.114   0.000  0.00  0.00    -0.082 Cl
ATOM     27  C   UNL     1       0.926   5.157   0.000  0.00  0.00    +0.013 A 
ATOM     28  C   UNL     1       1.181   4.373   0.000  0.00  0.00    +0.021 A 
ENDBRANCH  19  22
ENDBRANCH  15  19
TORSDOF 3
