REMARK  Name = 
REMARK  4 active torsions:
REMARK  status: ('A' for Active; 'I' for Inactive)
REMARK    1  A    between atoms: C_4  and  C_5
REMARK    2  A    between atoms: C_5  and  N_6
REMARK    3  A    between atoms: C_11  and  C_12
REMARK    4  A    between atoms: C_14  and  C_17
REMARK                            x       y       z     vdW  Elec       q    Type
REMARK                         _______ _______ _______ _____ _____    ______ ____
ROOT
ATOM      6  N   UNL     1      -1.205  -2.321   0.000  0.00  0.00    -0.260 NA
ATOM      7  C   UNL     1      -1.541  -3.075   0.000  0.00  0.00    +0.106 C 
ATOM      8  C   UNL     1      -2.361  -2.989   0.000  0.00  0.00    +0.170 C 
ATOM      9  O   UNL     1      -2.913  -3.602   0.000  0.00  0.00    -0.222 OA
ATOM     10  C   UNL     1      -2.533  -2.182   0.000  0.00  0.00    +0.060 C 
ATOM     11  C   UNL     1      -1.819  -1.770   0.000  0.00  0.00    +0.140 C 
ENDROOT
BRANCH  11  12
ATOM     12  C   UNL     1      -1.732  -0.949   0.000  0.00  0.00    +0.251 A 
ATOM     13  N   UNL     1      -2.345  -0.397   0.000  0.00  0.00    -0.190 NA
ATOM     14  C   UNL     1      -2.010   0.357   0.000  0.00  0.00    +0.203 A 
ATOM     15  N   UNL     1      -1.189   0.271   0.000  0.00  0.00    -0.056 NA
ATOM     16  O   UNL     1      -1.018  -0.536   0.000  0.00  0.00    -0.336 OA
BRANCH  14  17
ATOM     17  C   UNL     1      -2.422   1.071   0.000  0.00  0.00    +0.039 A 
ATOM     18  C   UNL     1      -3.247   1.071   0.000  0.00  0.00    +0.003 A 
ATOM     19  C   UNL     1      -3.660   1.786   0.000  0.00  0.00    +0.000 A 
ATOM     20  C   UNL     1      -3.247   2.500   0.000  0.00  0.00    +0.000 A 
ATOM     21  C   UNL     1      -2.422   2.500   0.000  0.00  0.00    +0.000 A 
ATOM     22  C   UNL     1      -2.010   1.786   0.000  0.00  0.00    +0.003 A 
ENDBRANCH  14  17
ENDBRANCH  11  12
BRANCH   6   5
ATOM      5  C   UNL     1      -0.398  -2.150   0.000  0.00  0.00    +0.101 C 
BRANCH   5   4
ATOM      1  C   UNL     1      -0.398   0.754   0.000  0.00  0.00    +0.130 C 
ATOM      2  N   UNL     1      -0.143  -0.030   0.000  0.00  0.00    -0.324 N 
ATOM      3  C   UNL     1      -0.628  -0.698   0.000  0.00  0.00    +0.073 A 
ATOM      4  C   UNL     1      -0.143  -1.365   0.000  0.00  0.00    +0.012 A 
ATOM     23  C   UNL     1       0.641  -1.110   0.000  0.00  0.00    +0.015 A 
ATOM     24  C   UNL     1       0.641  -0.285   0.000  0.00  0.00    +0.060 A 
ATOM     25  C   UNL     1       1.356   0.127   0.000  0.00  0.00    +0.017 A 
ATOM     26  C   UNL     1       2.070  -0.285   0.000  0.00  0.00    +0.001 A 
ATOM     27  C   UNL     1       2.070  -1.110   0.000  0.00  0.00    +0.000 A 
ATOM     28  C   UNL     1       1.356  -1.523   0.000  0.00  0.00    +0.001 A 
ENDBRANCH   5   4
ENDBRANCH   6   5
TORSDOF 4
