REMARK  Name = 
REMARK  4 active torsions:
REMARK  status: ('A' for Active; 'I' for Inactive)
REMARK    1  A    between atoms: C_4  and  C_8
REMARK    2  A    between atoms: N_13  and  C_14
REMARK    3  A    between atoms: C_18  and  N_22
REMARK    4  A    between atoms: C_23  and  C_25
REMARK                            x       y       z     vdW  Elec       q    Type
REMARK                         _______ _______ _______ _____ _____    ______ ____
ROOT
ATOM     14  C   UNL     1       1.270  -0.922   0.000  0.00  0.00    +0.154 C 
ATOM     15  C   UNL     1       0.785  -0.255   0.000  0.00  0.00    +0.166 C 
ATOM     16  O   UNL     1       1.270   0.412   0.000  0.00  0.00    -0.350 OA
ATOM     17  C   UNL     1       2.054   0.158   0.000  0.00  0.00    +0.166 C 
ATOM     18  C   UNL     1       2.839   0.412   0.000  0.00  0.00    +0.155 C 
ATOM     19  C   UNL     1       3.324  -0.255   0.000  0.00  0.00    +0.166 C 
ATOM     20  O   UNL     1       2.839  -0.922   0.000  0.00  0.00    -0.350 OA
ATOM     21  C   UNL     1       2.054  -0.667   0.000  0.00  0.00    +0.166 C 
ENDROOT
BRANCH  14  13
ATOM      8  C   UNL     1      -0.854  -2.835   0.000  0.00  0.00    +0.086 A 
ATOM      9  C   UNL     1      -1.406  -2.222   0.000  0.00  0.00    +0.040 A 
ATOM     10  C   UNL     1      -1.151  -1.437   0.000  0.00  0.00    +0.103 A 
ATOM     11  N   UNL     1      -0.344  -1.265   0.000  0.00  0.00    -0.211 NA
ATOM     12  C   UNL     1       0.208  -1.879   0.000  0.00  0.00    +0.237 A 
ATOM     13  N   UNL     1       1.015  -1.707   0.000  0.00  0.00    -0.200 NA
ATOM     31  N   UNL     1      -0.047  -2.663   0.000  0.00  0.00    -0.212 NA
BRANCH   8   4
ATOM      1  F   UNL     1      -2.978  -4.747   0.000  0.00  0.00    -0.204 F 
ATOM      2  C   UNL     1      -2.171  -4.575   0.000  0.00  0.00    +0.140 A 
ATOM      3  C   UNL     1      -1.916  -3.791   0.000  0.00  0.00    +0.031 A 
ATOM      4  C   UNL     1      -1.109  -3.619   0.000  0.00  0.00    +0.020 A 
ATOM      5  C   UNL     1      -0.557  -4.232   0.000  0.00  0.00    +0.002 A 
ATOM      6  C   UNL     1      -0.812  -5.017   0.000  0.00  0.00    +0.002 A 
ATOM      7  C   UNL     1      -1.619  -5.189   0.000  0.00  0.00    +0.030 A 
ENDBRANCH   8   4
ENDBRANCH  14  13
BRANCH  18  22
ATOM     22  N   UNL     1       3.094   1.197   0.000  0.00  0.00    -0.198 NA
ATOM     23  C   UNL     1       2.542   1.810   0.000  0.00  0.00    +0.265 C 
ATOM     24  O   UNL     1       1.735   1.639   0.000  0.00  0.00    -0.268 OA
BRANCH  23  25
ATOM     25  C   UNL     1       2.797   2.595   0.000  0.00  0.00    +0.055 A 
ATOM     26  C   UNL     1       2.245   3.208   0.000  0.00  0.00    +0.005 A 
ATOM     27  C   UNL     1       2.499   3.993   0.000  0.00  0.00    +0.000 A 
ATOM     28  C   UNL     1       3.307   4.164   0.000  0.00  0.00    +0.000 A 
ATOM     29  C   UNL     1       3.858   3.551   0.000  0.00  0.00    +0.000 A 
ATOM     30  C   UNL     1       3.604   2.766   0.000  0.00  0.00    +0.005 A 
ENDBRANCH  23  25
ENDBRANCH  18  22
TORSDOF 4
