REMARK  Name = 
REMARK  5 active torsions:
REMARK  status: ('A' for Active; 'I' for Inactive)
REMARK    1  A    between atoms: C_5  and  C_6
REMARK    2  A    between atoms: C_6  and  N_7
REMARK    3  A    between atoms: C_17  and  C_19
REMARK    4  A    between atoms: C_19  and  C_20
REMARK    5  A    between atoms: C_20  and  C_21
REMARK                            x       y       z     vdW  Elec       q    Type
REMARK                         _______ _______ _______ _____ _____    ______ ____
ROOT
ATOM      7  N   UNL     1      -4.842   1.650   0.000  0.00  0.00    -0.258 N 
ATOM      8  C   UNL     1      -4.357   2.317   0.000  0.00  0.00    +0.117 C 
ATOM      9  C   UNL     1      -3.572   2.062   0.000  0.00  0.00    +0.116 C 
ATOM     10  C   UNL     1      -2.858   2.475   0.000  0.00  0.00    +0.115 C 
ATOM     11  N   UNL     1      -2.143   2.062   0.000  0.00  0.00    -0.276 N 
ATOM     12  C   UNL     1      -2.143   1.238   0.000  0.00  0.00    +0.115 C 
ATOM     13  C   UNL     1      -2.858   0.825   0.000  0.00  0.00    +0.116 C 
ATOM     14  N   UNL     1      -3.572   1.238   0.000  0.00  0.00    -0.261 N 
ATOM     15  C   UNL     1      -4.357   0.983   0.000  0.00  0.00    +0.308 C 
ATOM     16  O   UNL     1      -4.612   0.198   0.000  0.00  0.00    -0.252 OA
ATOM     17  C   UNL     1      -1.429   2.475   0.000  0.00  0.00    +0.226 C 
ATOM     18  O   UNL     1      -1.429   3.300   0.000  0.00  0.00    -0.275 OA
ENDROOT
BRANCH   7   6
ATOM      6  C   UNL     1      -5.667   1.650   0.000  0.00  0.00    +0.122 C 
BRANCH   6   5
ATOM      1  C   UNL     1      -7.317  -1.208   0.000  0.00  0.00    +0.031 C 
ATOM      2  C   UNL     1      -6.904  -0.493   0.000  0.00  0.00    -0.022 A 
ATOM      3  C   UNL     1      -7.317   0.221   0.000  0.00  0.00    -0.005 A 
ATOM      4  C   UNL     1      -6.904   0.935   0.000  0.00  0.00    -0.003 A 
ATOM      5  C   UNL     1      -6.079   0.935   0.000  0.00  0.00    -0.002 A 
ATOM     24  C   UNL     1      -5.667   0.221   0.000  0.00  0.00    -0.003 A 
ATOM     25  C   UNL     1      -6.079  -0.493   0.000  0.00  0.00    -0.005 A 
ENDBRANCH   6   5
ENDBRANCH   7   6
BRANCH  17  19
ATOM     19  C   UNL     1      -0.715   2.062   0.000  0.00  0.00    +0.097 C 
BRANCH  19  20
ATOM     20  C   UNL     1       0.000   2.475   0.000  0.00  0.00    +0.124 C 
BRANCH  20  21
ATOM     21  C   UNL     1       0.715   2.062   0.000  0.00  0.00    +0.365 C 
ATOM     22  O   UNL     1       1.429   2.475   0.000  0.00  0.00    -0.246 OA
ATOM     23  O   UNL     1       0.715   1.238   0.000  0.00  0.00    -0.246 OA
ENDBRANCH  20  21
ENDBRANCH  19  20
ENDBRANCH  17  19
TORSDOF 5
