REMARK  Name = 
REMARK  9 active torsions:
REMARK  status: ('A' for Active; 'I' for Inactive)
REMARK    1  A    between atoms: C_5  and  N_6
REMARK    2  A    between atoms: N_6  and  C_7
REMARK    3  A    between atoms: C_7  and  C_8
REMARK    4  A    between atoms: C_14  and  C_15
REMARK    5  A    between atoms: C_15  and  C_16
REMARK    6  A    between atoms: C_16  and  C_17
REMARK    7  A    between atoms: N_19  and  C_20
REMARK    8  A    between atoms: C_20  and  C_21
REMARK    9  A    between atoms: C_21  and  C_22
REMARK                            x       y       z     vdW  Elec       q    Type
REMARK                         _______ _______ _______ _____ _____    ______ ____
ROOT
ATOM      1  C   UNL     1      -7.540  -2.026   0.000  0.00  0.00    +0.000 C 
ATOM      2  C   UNL     1      -6.873  -1.541   0.000  0.00  0.00    +0.001 C 
ATOM      3  C   UNL     1      -7.425  -0.928   0.000  0.00  0.00    +0.000 C 
ATOM      4  C   UNL     1      -6.460  -2.256   0.000  0.00  0.00    +0.017 C 
ATOM      5  C   UNL     1      -5.653  -2.084   0.000  0.00  0.00    +0.073 C 
ATOM     14  C   UNL     1      -5.567  -1.264   0.000  0.00  0.00    +0.015 C 
ATOM     31  C   UNL     1      -4.900  -0.779   0.000  0.00  0.00    +0.004 C 
ATOM     32  C   UNL     1      -4.986   0.042   0.000  0.00  0.00    +0.030 C 
ATOM     33  C   UNL     1      -5.739   0.377   0.000  0.00  0.00    +0.127 C 
ATOM     34  C   UNL     1      -5.278   1.061   0.000  0.00  0.00    +0.033 C 
ATOM     35  O   UNL     1      -6.333   0.950   0.000  0.00  0.00    -0.226 OA
ATOM     36  C   UNL     1      -6.407  -0.108   0.000  0.00  0.00    +0.030 C 
ATOM     37  C   UNL     1      -6.321  -0.928   0.000  0.00  0.00    +0.004 C 
ENDROOT
BRANCH   5   6
ATOM      6  N   UNL     1      -5.040  -2.636   0.000  0.00  0.00    -0.219 NA
BRANCH   6   7
ATOM      7  C   UNL     1      -5.212  -3.443   0.000  0.00  0.00    +0.089 C 
BRANCH   7   8
ATOM      8  C   UNL     1      -4.599  -3.995   0.000  0.00  0.00    +0.017 C 
ATOM      9  C   UNL     1      -3.814  -3.740   0.000  0.00  0.00    +0.001 C 
ATOM     10  C   UNL     1      -3.201  -4.292   0.000  0.00  0.00    +0.000 C 
ATOM     11  C   UNL     1      -3.372  -5.099   0.000  0.00  0.00    +0.000 C 
ATOM     12  C   UNL     1      -4.157  -5.354   0.000  0.00  0.00    +0.000 C 
ATOM     13  C   UNL     1      -4.770  -4.802   0.000  0.00  0.00    +0.001 C 
ENDBRANCH   7   8
ENDBRANCH   6   7
ENDBRANCH   5   6
BRANCH  14  15
ATOM     15  C   UNL     1      -4.853  -1.676   0.000  0.00  0.00    +0.011 C 
BRANCH  15  16
ATOM     16  C   UNL     1      -4.138  -1.264   0.000  0.00  0.00    +0.087 C 
BRANCH  16  17
ATOM     17  C   UNL     1      -3.424  -1.676   0.000  0.00  0.00    +0.241 C 
ATOM     18  O   UNL     1      -3.424  -2.501   0.000  0.00  0.00    -0.273 OA
ATOM     19  N   UNL     1      -2.709  -1.264   0.000  0.00  0.00    -0.205 NA
BRANCH  19  20
ATOM     20  C   UNL     1      -1.995  -1.676   0.000  0.00  0.00    +0.120 C 
BRANCH  20  21
ATOM     21  C   UNL     1      -1.280  -1.264   0.000  0.00  0.00    +0.051 C 
BRANCH  21  22
ATOM     22  C   UNL     1      -0.566  -1.676   0.000  0.00  0.00    +0.000 A 
ATOM     23  C   UNL     1      -0.479  -2.497   0.000  0.00  0.00    +0.095 A 
ATOM     24  N   UNL     1       0.328  -2.668   0.000  0.00  0.00    -0.244 NA
ATOM     25  C   UNL     1       0.740  -1.954   0.000  0.00  0.00    +0.081 A 
ATOM     26  C   UNL     1       0.188  -1.341   0.000  0.00  0.00    +0.015 A 
ATOM     27  C   UNL     1       0.443  -0.556   0.000  0.00  0.00    +0.001 A 
ATOM     28  C   UNL     1       1.250  -0.384   0.000  0.00  0.00    +0.000 A 
ATOM     29  C   UNL     1       1.802  -0.998   0.000  0.00  0.00    +0.002 A 
ATOM     30  C   UNL     1       1.547  -1.782   0.000  0.00  0.00    +0.019 A 
ENDBRANCH  21  22
ENDBRANCH  20  21
ENDBRANCH  19  20
ENDBRANCH  16  17
ENDBRANCH  15  16
ENDBRANCH  14  15
TORSDOF 9
