REMARK  Name = 
REMARK  6 active torsions:
REMARK  status: ('A' for Active; 'I' for Inactive)
REMARK    1  A    between atoms: O_2  and  C_3
REMARK    2  A    between atoms: C_8  and  N_9
REMARK    3  A    between atoms: C_15  and  C_17
REMARK    4  A    between atoms: C_17  and  C_18
REMARK    5  A    between atoms: C_20  and  C_21
REMARK    6  A    between atoms: C_24  and  C_25
REMARK                            x       y       z     vdW  Elec       q    Type
REMARK                         _______ _______ _______ _____ _____    ______ ____
ROOT
ATOM      9  N   UNL     1       0.000  -4.950   0.000  0.00  0.00    -0.302 N 
ATOM     10  C   UNL     1      -0.715  -5.362   0.000  0.00  0.00    +0.112 C 
ATOM     11  C   UNL     1      -1.429  -4.950   0.000  0.00  0.00    +0.115 C 
ATOM     12  N   UNL     1      -1.429  -4.125   0.000  0.00  0.00    -0.276 N 
ATOM     13  C   UNL     1      -0.715  -3.712   0.000  0.00  0.00    +0.115 C 
ATOM     14  C   UNL     1       0.000  -4.125   0.000  0.00  0.00    +0.112 C 
ATOM     15  C   UNL     1      -2.143  -3.712   0.000  0.00  0.00    +0.226 C 
ATOM     16  O   UNL     1      -2.143  -2.888   0.000  0.00  0.00    -0.275 OA
ENDROOT
BRANCH   9   8
ATOM      3  C   UNL     1       1.429  -4.950   0.000  0.00  0.00    +0.152 A 
ATOM      4  C   UNL     1       2.143  -5.362   0.000  0.00  0.00    +0.038 A 
ATOM      5  C   UNL     1       2.143  -6.188   0.000  0.00  0.00    +0.003 A 
ATOM      6  C   UNL     1       1.429  -6.600   0.000  0.00  0.00    +0.001 A 
ATOM      7  C   UNL     1       0.715  -6.188   0.000  0.00  0.00    +0.018 A 
ATOM      8  C   UNL     1       0.715  -5.362   0.000  0.00  0.00    +0.082 A 
BRANCH   3   2
ATOM      1  C   UNL     1       2.143  -3.712   0.000  0.00  0.00    +0.253 C 
ATOM      2  O   UNL     1       1.429  -4.125   0.000  0.00  0.00    -0.470 OA
ENDBRANCH   3   2
ENDBRANCH   9   8
BRANCH  15  17
ATOM     17  C   UNL     1      -2.858  -4.125   0.000  0.00  0.00    +0.089 C 
BRANCH  17  18
ATOM     18  C   UNL     1      -3.572  -3.712   0.000  0.00  0.00    +0.027 C 
ATOM     19  C   UNL     1      -4.287  -4.125   0.000  0.00  0.00    +0.005 C 
ATOM     20  C   UNL     1      -5.001  -3.712   0.000  0.00  0.00    +0.007 C 
ATOM     24  C   UNL     1      -5.001  -2.888   0.000  0.00  0.00    +0.054 C 
ATOM     27  C   UNL     1      -4.287  -2.475   0.000  0.00  0.00    -0.032 C 
ATOM     28  C   UNL     1      -3.572  -2.888   0.000  0.00  0.00    -0.048 C 
ATOM     29  C   UNL     1      -2.858  -2.475   0.000  0.00  0.00    +0.026 C 
BRANCH  20  21
ATOM     21  C   UNL     1      -5.716  -4.125   0.000  0.00  0.00    +0.000 C 
ATOM     22  C   UNL     1      -6.430  -3.712   0.000  0.00  0.00    +0.000 C 
ATOM     23  C   UNL     1      -5.716  -4.950   0.000  0.00  0.00    +0.000 C 
ENDBRANCH  20  21
BRANCH  24  25
ATOM     25  C   UNL     1      -5.716  -2.475   0.000  0.00  0.00    +0.186 C 
ATOM     26  O   UNL     1      -6.430  -2.888   0.000  0.00  0.00    -0.220 OA
ENDBRANCH  24  25
ENDBRANCH  17  18
ENDBRANCH  15  17
TORSDOF 6
