REMARK  Name = 
REMARK  3 active torsions:
REMARK  status: ('A' for Active; 'I' for Inactive)
REMARK    1  A    between atoms: S_2  and  C_3
REMARK    2  A    between atoms: C_3  and  C_4
REMARK    3  A    between atoms: N_6  and  C_7
REMARK                            x       y       z     vdW  Elec       q    Type
REMARK                         _______ _______ _______ _____ _____    ______ ____
ROOT
ATOM      7  C   UNL     1      -0.727  -0.811   0.000  0.00  0.00    +0.124 C 
ATOM      8  C   UNL     1      -0.641  -1.632   0.000  0.00  0.00    +0.045 C 
ATOM      9  C   UNL     1       0.166  -1.803   0.000  0.00  0.00    +0.096 C 
ATOM     10  N   UNL     1       0.579  -1.089   0.000  0.00  0.00    -0.268 N 
ATOM     11  C   UNL     1       0.026  -0.476   0.000  0.00  0.00    +0.174 C 
ATOM     12  C   UNL     1       0.162   0.338   0.000  0.00  0.00    +0.265 C 
ATOM     13  O   UNL     1      -0.513   0.813   0.000  0.00  0.00    -0.271 OA
ATOM     14  N   UNL     1       0.882   0.740   0.000  0.00  0.00    -0.178 NA
ATOM     15  C   UNL     1       1.646   0.427   0.000  0.00  0.00    +0.079 A 
ATOM     16  C   UNL     1       2.216   1.023   0.000  0.00  0.00    +0.028 A 
ATOM     17  C   UNL     1       3.017   0.828   0.000  0.00  0.00    +0.059 A 
ATOM     18 CL   UNL     1       3.587   1.424   0.000  0.00  0.00    -0.082 Cl
ATOM     19  C   UNL     1       3.249   0.036   0.000  0.00  0.00    +0.012 A 
ATOM     20  C   UNL     1       2.679  -0.560   0.000  0.00  0.00    +0.007 A 
ATOM     21  C   UNL     1       1.877  -0.365   0.000  0.00  0.00    +0.069 A 
ATOM     22  C   UNL     1       1.402  -1.039   0.000  0.00  0.00    +0.251 C 
ATOM     23  O   UNL     1       1.804  -1.760   0.000  0.00  0.00    -0.270 OA
ENDROOT
BRANCH   7   6
ATOM      4  C   UNL     1      -2.156  -0.811   0.000  0.00  0.00    +0.252 C 
ATOM      5  O   UNL     1      -2.156  -1.636   0.000  0.00  0.00    -0.272 OA
ATOM      6  N   UNL     1      -1.442  -0.399   0.000  0.00  0.00    -0.204 NA
BRANCH   4   3
ATOM      3  C   UNL     1      -2.871  -0.399   0.000  0.00  0.00    +0.144 C 
BRANCH   3   2
ATOM      1  C   UNL     1      -4.300  -0.399   0.000  0.00  0.00    +0.070 C 
ATOM      2  S   UNL     1      -3.585  -0.811   0.000  0.00  0.00    -0.130 S 
ENDBRANCH   3   2
ENDBRANCH   4   3
ENDBRANCH   7   6
TORSDOF 3
