REMARK  Name = 
REMARK  2 active torsions:
REMARK  status: ('A' for Active; 'I' for Inactive)
REMARK    1  A    between atoms: N_6  and  C_7
REMARK    2  A    between atoms: C_7  and  C_8
REMARK                            x       y       z     vdW  Elec       q    Type
REMARK                         _______ _______ _______ _____ _____    ______ ____
ROOT
ATOM      1  C   UNL     1      -0.171  -0.698   0.000  0.00  0.00    +0.117 C 
ATOM      2  N   UNL     1       0.654  -0.698   0.000  0.00  0.00    -0.261 N 
ATOM      3  C   UNL     1       1.139  -0.030   0.000  0.00  0.00    +0.116 C 
ATOM      4  C   UNL     1       1.923  -0.285   0.000  0.00  0.00    +0.113 C 
ATOM      5  C   UNL     1       2.638   0.127   0.000  0.00  0.00    +0.094 C 
ATOM      6  N   UNL     1       3.352  -0.285   0.000  0.00  0.00    -0.264 NA
ATOM     13  C   UNL     1       3.352  -1.110   0.000  0.00  0.00    +0.094 C 
ATOM     14  C   UNL     1       2.638  -1.523   0.000  0.00  0.00    +0.112 C 
ATOM     15  N   UNL     1       1.923  -1.110   0.000  0.00  0.00    -0.261 N 
ATOM     16  C   UNL     1       1.139  -1.365   0.000  0.00  0.00    +0.307 C 
ATOM     17  O   UNL     1       0.884  -2.150   0.000  0.00  0.00    -0.252 OA
ENDROOT
BRANCH   6   7
ATOM      7  C   UNL     1       4.067   0.127   0.000  0.00  0.00    +0.126 C 
BRANCH   7   8
ATOM      8  C   UNL     1       4.781  -0.285   0.000  0.00  0.00    +0.104 A 
ATOM      9  N   UNL     1       5.535   0.050   0.000  0.00  0.00    -0.240 NA
ATOM     10  C   UNL     1       6.087  -0.563   0.000  0.00  0.00    +0.106 A 
ATOM     11  C   UNL     1       5.674  -1.278   0.000  0.00  0.00    +0.057 A 
ATOM     12  S   UNL     1       4.867  -1.106   0.000  0.00  0.00    -0.069 S 
ENDBRANCH   7   8
ENDBRANCH   6   7
TORSDOF 2
