REMARK  Name = 
REMARK  7 active torsions:
REMARK  status: ('A' for Active; 'I' for Inactive)
REMARK    1  A    between atoms: N_4  and  C_5
REMARK    2  A    between atoms: C_7  and  C_14
REMARK    3  A    between atoms: N_16  and  C_17
REMARK    4  A    between atoms: C_17  and  C_18
REMARK    5  A    between atoms: C_17  and  C_24
REMARK    6  A    between atoms: C_18  and  C_19
REMARK    7  A    between atoms: C_19  and  S_20
REMARK                            x       y       z     vdW  Elec       q    Type
REMARK                         _______ _______ _______ _____ _____    ______ ____
ROOT
ATOM      5  C   UNL     1      -2.904  -0.412   0.000  0.00  0.00    +0.131 C 
ATOM      6  C   UNL     1      -2.622   0.363   0.000  0.00  0.00    +0.064 C 
ATOM      7  C   UNL     1      -1.809   0.506   0.000  0.00  0.00    +0.200 C 
ATOM      8  O   UNL     1      -2.091   1.281   0.000  0.00  0.00    -0.216 OA
ATOM      9  C   UNL     1      -1.279  -0.126   0.000  0.00  0.00    +0.075 C 
ATOM     10  C   UNL     1      -1.561  -0.901   0.000  0.00  0.00    +0.187 C 
ATOM     11  O   UNL     1      -1.031  -1.533   0.000  0.00  0.00    -0.220 OA
ATOM     12  C   UNL     1      -2.373  -1.044   0.000  0.00  0.00    +0.202 C 
ATOM     13  O   UNL     1      -2.656  -1.820   0.000  0.00  0.00    -0.219 OA
ENDROOT
BRANCH   5   4
ATOM      1  C   UNL     1      -4.811  -1.474   0.000  0.00  0.00    +0.096 C 
ATOM      2  C   UNL     1      -3.998  -1.331   0.000  0.00  0.00    +0.242 C 
ATOM      3  O   UNL     1      -3.468  -1.963   0.000  0.00  0.00    -0.273 OA
ATOM      4  N   UNL     1      -3.716  -0.556   0.000  0.00  0.00    -0.204 NA
ENDBRANCH   5   4
BRANCH   7  14
ATOM     14  C   UNL     1      -1.095   0.918   0.000  0.00  0.00    +0.269 C 
ATOM     15  O   UNL     1      -0.380   0.506   0.000  0.00  0.00    -0.271 OA
ATOM     16  N   UNL     1      -1.095   1.744   0.000  0.00  0.00    -0.196 NA
BRANCH  16  17
ATOM     17  C   UNL     1      -0.380   2.156   0.000  0.00  0.00    +0.176 C 
BRANCH  17  24
ATOM     24  C   UNL     1       0.334   1.744   0.000  0.00  0.00    +0.281 C 
ATOM     25  N   UNL     1       1.049   2.156   0.000  0.00  0.00    -0.086 NA
ATOM     26  O   UNL     1       0.334   0.918   0.000  0.00  0.00    -0.270 OA
ENDBRANCH  17  24
BRANCH  17  18
ATOM     18  C   UNL     1      -0.380   2.981   0.000  0.00  0.00    +0.056 C 
BRANCH  18  19
ATOM     19  C   UNL     1       0.334   3.393   0.000  0.00  0.00    +0.153 C 
BRANCH  19  20
ATOM     20  S   UNL     1       0.334   4.218   0.000  0.00  0.00    -0.008 S 
ATOM     21  C   UNL     1       0.334   5.043   0.000  0.00  0.00    +0.176 C 
ATOM     22  O   UNL     1       1.159   4.218   0.000  0.00  0.00    -0.173 OA
ATOM     23  O   UNL     1      -0.491   4.218   0.000  0.00  0.00    -0.173 OA
ENDBRANCH  19  20
ENDBRANCH  18  19
ENDBRANCH  17  18
ENDBRANCH  16  17
ENDBRANCH   7  14
TORSDOF 7
