REMARK  Name = 
REMARK  8 active torsions:
REMARK  status: ('A' for Active; 'I' for Inactive)
REMARK    1  A    between atoms: N_3  and  C_4
REMARK    2  A    between atoms: C_4  and  C_5
REMARK    3  A    between atoms: C_12  and  C_13
REMARK    4  A    between atoms: C_13  and  N_14
REMARK    5  A    between atoms: C_17  and  C_18
REMARK    6  A    between atoms: C_18  and  C_19
REMARK    7  A    between atoms: N_27  and  C_28
REMARK    8  A    between atoms: C_30  and  C_34
REMARK                            x       y       z     vdW  Elec       q    Type
REMARK                         _______ _______ _______ _____ _____    ______ ____
ROOT
ATOM      5  C   UNL     1       1.814  -2.106   0.000  0.00  0.00    +0.079 C 
ATOM      6  C   UNL     1       1.661  -1.343   0.000  0.00  0.00    +0.018 C 
ATOM      7  C   UNL     1       0.923  -1.010   0.000  0.00  0.00    +0.005 C 
ATOM      8  C   UNL     1       0.961  -0.114   0.000  0.00  0.00    +0.017 C 
ATOM      9  C   UNL     1       1.205  -0.720   0.000  0.00  0.00    +0.072 C 
ATOM     10  N   UNL     1       1.065  -1.759   0.000  0.00  0.00    -0.272 NA
ATOM     11  C   UNL     1       0.226  -2.118   0.000  0.00  0.00    +0.073 C 
ATOM     12  C   UNL     1       0.119  -1.362   0.000  0.00  0.00    +0.032 C 
ENDROOT
BRANCH   5   4
ATOM      4  C   UNL     1       2.324  -2.754   0.000  0.00  0.00    +0.133 C 
BRANCH   4   3
ATOM      1  O   UNL     1       3.345  -4.050   0.000  0.00  0.00    -0.249 OA
ATOM      2  C   UNL     1       3.651  -3.284   0.000  0.00  0.00    +0.344 C 
ATOM      3  N   UNL     1       3.141  -2.636   0.000  0.00  0.00    -0.185 NA
ATOM     27  N   UNL     1       4.468  -3.166   0.000  0.00  0.00    -0.161 NA
BRANCH  27  28
ATOM     28  C   UNL     1       4.978  -3.814   0.000  0.00  0.00    +0.076 A 
ATOM     29  C   UNL     1       5.795  -3.696   0.000  0.00  0.00    +0.027 A 
ATOM     30  C   UNL     1       6.305  -4.344   0.000  0.00  0.00    +0.070 A 
ATOM     31  C   UNL     1       5.999  -5.110   0.000  0.00  0.00    +0.010 A 
ATOM     32  C   UNL     1       5.183  -5.228   0.000  0.00  0.00    +0.002 A 
ATOM     33  C   UNL     1       4.672  -4.580   0.000  0.00  0.00    +0.017 A 
BRANCH  30  34
ATOM     34  C   UNL     1       7.122  -4.226   0.000  0.00  0.00    +0.100 C 
ATOM     35  N   UNL     1       7.938  -4.108   0.000  0.00  0.00    -0.191 NA
ENDBRANCH  30  34
ENDBRANCH  27  28
ENDBRANCH   4   3
ENDBRANCH   5   4
BRANCH  12  13
ATOM     13  C   UNL     1      -0.602  -0.960   0.000  0.00  0.00    +0.073 C 
BRANCH  13  14
ATOM     14  N   UNL     1      -1.310  -1.384   0.000  0.00  0.00    -0.273 NA
ATOM     15  C   UNL     1      -1.297  -2.208   0.000  0.00  0.00    +0.072 C 
ATOM     16  C   UNL     1      -2.006  -2.632   0.000  0.00  0.00    +0.018 C 
ATOM     17  C   UNL     1      -2.726  -2.230   0.000  0.00  0.00    +0.007 C 
ATOM     25  C   UNL     1      -2.739  -1.405   0.000  0.00  0.00    +0.018 C 
ATOM     26  C   UNL     1      -2.030  -0.982   0.000  0.00  0.00    +0.072 C 
BRANCH  17  18
ATOM     18  C   UNL     1      -3.434  -2.653   0.000  0.00  0.00    +0.026 C 
BRANCH  18  19
ATOM     19  C   UNL     1      -4.155  -2.251   0.000  0.00  0.00    -0.022 A 
ATOM     20  C   UNL     1      -4.863  -2.675   0.000  0.00  0.00    -0.004 A 
ATOM     21  C   UNL     1      -5.584  -2.273   0.000  0.00  0.00    -0.000 A 
ATOM     22  C   UNL     1      -5.596  -1.448   0.000  0.00  0.00    -0.000 A 
ATOM     23  C   UNL     1      -4.888  -1.025   0.000  0.00  0.00    -0.000 A 
ATOM     24  C   UNL     1      -4.167  -1.427   0.000  0.00  0.00    -0.004 A 
ENDBRANCH  18  19
ENDBRANCH  17  18
ENDBRANCH  13  14
ENDBRANCH  12  13
TORSDOF 8
