REMARK  Name = 
REMARK  4 active torsions:
REMARK  status: ('A' for Active; 'I' for Inactive)
REMARK    1  A    between atoms: C_2  and  C_3
REMARK    2  A    between atoms: C_10  and  C_11
REMARK    3  A    between atoms: C_11  and  N_12
REMARK    4  A    between atoms: C_13  and  C_15
REMARK                            x       y       z     vdW  Elec       q    Type
REMARK                         _______ _______ _______ _____ _____    ______ ____
ROOT
ATOM     11  C   UNL     1      -0.179  -2.836   0.000  0.00  0.00    +0.131 C 
ENDROOT
BRANCH  11  10
ATOM      3  C   UNL     1       1.661  -1.343   0.000  0.00  0.00    +0.016 C 
ATOM      4  C   UNL     1       1.814  -2.106   0.000  0.00  0.00    +0.072 C 
ATOM      5  N   UNL     1       1.065  -1.759   0.000  0.00  0.00    -0.272 NA
ATOM      6  C   UNL     1       1.205  -0.720   0.000  0.00  0.00    +0.072 C 
ATOM      7  C   UNL     1       0.961  -0.114   0.000  0.00  0.00    +0.017 C 
ATOM      8  C   UNL     1       0.923  -1.010   0.000  0.00  0.00    +0.004 C 
ATOM      9  C   UNL     1       0.119  -1.362   0.000  0.00  0.00    +0.018 C 
ATOM     10  C   UNL     1       0.226  -2.118   0.000  0.00  0.00    +0.079 C 
BRANCH   3   2
ATOM      1  C   UNL     1       2.184  -0.013   0.000  0.00  0.00    +0.000 C 
ATOM      2  C   UNL     1       2.307  -0.828   0.000  0.00  0.00    +0.001 C 
ENDBRANCH   3   2
ENDBRANCH  11  10
BRANCH  11  12
ATOM     12  N   UNL     1      -1.004  -2.845   0.000  0.00  0.00    -0.200 NA
ATOM     13  C   UNL     1      -1.408  -3.564   0.000  0.00  0.00    +0.265 C 
ATOM     14  O   UNL     1      -0.988  -4.274   0.000  0.00  0.00    -0.268 OA
BRANCH  13  15
ATOM     15  C   UNL     1      -2.233  -3.573   0.000  0.00  0.00    +0.056 A 
ATOM     16  C   UNL     1      -2.638  -4.292   0.000  0.00  0.00    +0.018 A 
ATOM     17  C   UNL     1      -3.463  -4.301   0.000  0.00  0.00    +0.085 A 
ATOM     18 CL   UNL     1      -3.868  -5.019   0.000  0.00  0.00    -0.080 Cl
ATOM     19  C   UNL     1      -3.883  -3.591   0.000  0.00  0.00    +0.151 A 
ATOM     20  F   UNL     1      -4.708  -3.599   0.000  0.00  0.00    -0.203 F 
ATOM     21  C   UNL     1      -3.478  -2.872   0.000  0.00  0.00    +0.031 A 
ATOM     22  C   UNL     1      -2.654  -2.863   0.000  0.00  0.00    +0.007 A 
ENDBRANCH  13  15
ENDBRANCH  11  12
TORSDOF 4
