REMARK  Name = 
REMARK  6 active torsions:
REMARK  status: ('A' for Active; 'I' for Inactive)
REMARK    1  A    between atoms: C_2  and  C_27
REMARK    2  A    between atoms: N_3  and  C_4
REMARK    3  A    between atoms: N_12  and  C_13
REMARK    4  A    between atoms: C_13  and  C_14
REMARK    5  A    between atoms: C_14  and  C_15
REMARK    6  A    between atoms: C_15  and  C_16
REMARK                            x       y       z     vdW  Elec       q    Type
REMARK                         _______ _______ _______ _____ _____    ______ ____
ROOT
ATOM      4  C   UNL     1      -1.296  -1.150   0.000  0.00  0.00    +0.129 A 
ATOM      5  C   UNL     1      -1.167  -0.335   0.000  0.00  0.00    +0.023 A 
ATOM      6  C   UNL     1      -0.397  -0.039   0.000  0.00  0.00    +0.014 A 
ATOM      7  C   UNL     1       0.244  -0.558   0.000  0.00  0.00    +0.041 A 
ATOM      8  C   UNL     1       1.163  -0.557   0.000  0.00  0.00    +0.054 C 
ATOM      9  C   UNL     1       1.713  -0.121   0.000  0.00  0.00    +0.011 C 
ATOM     10  C   UNL     1       1.582  -0.925   0.000  0.00  0.00    +0.039 C 
ATOM     11  C   UNL     1       1.629  -1.912   0.000  0.00  0.00    +0.074 C 
ATOM     12  N   UNL     1       0.813  -2.091   0.000  0.00  0.00    -0.272 NA
ATOM     22  C   UNL     1       1.225  -1.510   0.000  0.00  0.00    +0.078 C 
ATOM     23  C   UNL     1       0.622  -0.936   0.000  0.00  0.00    +0.110 C 
ATOM     24  N   UNL     1       0.115  -1.373   0.000  0.00  0.00    -0.298 N 
ATOM     25  C   UNL     1      -0.655  -1.669   0.000  0.00  0.00    +0.276 A 
ATOM     26  O   UNL     1      -0.784  -2.484   0.000  0.00  0.00    -0.266 OA
ENDROOT
BRANCH   4   3
ATOM      1  O   UNL     1      -3.478  -1.222   0.000  0.00  0.00    -0.273 OA
ATOM      2  C   UNL     1      -2.707  -0.926   0.000  0.00  0.00    +0.245 C 
ATOM      3  N   UNL     1      -2.066  -1.445   0.000  0.00  0.00    -0.174 NA
BRANCH   2  27
ATOM     27  C   UNL     1      -2.578  -0.111   0.000  0.00  0.00    +0.079 C 
ATOM     28  C   UNL     1      -3.220   0.408   0.000  0.00  0.00    +0.009 C 
ATOM     29  C   UNL     1      -3.091   1.223   0.000  0.00  0.00    +0.000 C 
ATOM     30  C   UNL     1      -2.321   1.518   0.000  0.00  0.00    +0.000 C 
ATOM     31  C   UNL     1      -1.679   0.999   0.000  0.00  0.00    +0.000 C 
ATOM     32  C   UNL     1      -1.808   0.184   0.000  0.00  0.00    +0.009 C 
ENDBRANCH   2  27
ENDBRANCH   4   3
BRANCH  12  13
ATOM     13  C   UNL     1       0.125  -2.547   0.000  0.00  0.00    +0.072 C 
BRANCH  13  14
ATOM     14  C   UNL     1       0.176  -3.370   0.000  0.00  0.00    +0.022 C 
BRANCH  14  15
ATOM     15  C   UNL     1      -0.512  -3.826   0.000  0.00  0.00    +0.028 C 
BRANCH  15  16
ATOM     16  C   UNL     1      -0.461  -4.650   0.000  0.00  0.00    -0.022 A 
ATOM     17  C   UNL     1       0.277  -5.017   0.000  0.00  0.00    -0.004 A 
ATOM     18  C   UNL     1       0.328  -5.841   0.000  0.00  0.00    -0.000 A 
ATOM     19  C   UNL     1      -0.360  -6.296   0.000  0.00  0.00    -0.000 A 
ATOM     20  C   UNL     1      -1.098  -5.929   0.000  0.00  0.00    -0.000 A 
ATOM     21  C   UNL     1      -1.149  -5.105   0.000  0.00  0.00    -0.004 A 
ENDBRANCH  15  16
ENDBRANCH  14  15
ENDBRANCH  13  14
ENDBRANCH  12  13
TORSDOF 6
