REMARK  Name = 
REMARK  8 active torsions:
REMARK  status: ('A' for Active; 'I' for Inactive)
REMARK    1  A    between atoms: O_2  and  C_3
REMARK    2  A    between atoms: C_8  and  N_9
REMARK    3  A    between atoms: C_15  and  C_17
REMARK    4  A    between atoms: C_17  and  C_18
REMARK    5  A    between atoms: C_23  and  C_24
REMARK    6  A    between atoms: C_24  and  C_25
REMARK    7  A    between atoms: C_28  and  C_29
REMARK    8  A    between atoms: C_29  and  N_30
REMARK                            x       y       z     vdW  Elec       q    Type
REMARK                         _______ _______ _______ _____ _____    ______ ____
ROOT
ATOM     18  C   UNL     1       0.107   0.763   0.000  0.00  0.00    +0.012 C 
ATOM     19  C   UNL     1       0.821   1.176   0.000  0.00  0.00    +0.019 C 
ATOM     20  C   UNL     1       1.536   0.763   0.000  0.00  0.00    +0.089 C 
ATOM     21  N   UNL     1       1.536  -0.062   0.000  0.00  0.00    -0.218 NA
ATOM     22  C   UNL     1       0.821  -0.474   0.000  0.00  0.00    +0.089 C 
ATOM     23  C   UNL     1       0.107  -0.062   0.000  0.00  0.00    +0.024 C 
ENDROOT
BRANCH  18  17
ATOM     17  C   UNL     1      -0.608   1.176   0.000  0.00  0.00    +0.085 C 
BRANCH  17  15
ATOM      9  N   UNL     1      -2.751   3.238   0.000  0.00  0.00    -0.302 N 
ATOM     10  C   UNL     1      -2.037   3.651   0.000  0.00  0.00    +0.112 C 
ATOM     11  C   UNL     1      -1.322   3.238   0.000  0.00  0.00    +0.115 C 
ATOM     12  N   UNL     1      -1.322   2.413   0.000  0.00  0.00    -0.276 N 
ATOM     13  C   UNL     1      -2.037   2.001   0.000  0.00  0.00    +0.115 C 
ATOM     14  C   UNL     1      -2.751   2.413   0.000  0.00  0.00    +0.112 C 
ATOM     15  C   UNL     1      -0.608   2.001   0.000  0.00  0.00    +0.226 C 
ATOM     16  O   UNL     1       0.107   2.413   0.000  0.00  0.00    -0.275 OA
BRANCH   9   8
ATOM      3  C   UNL     1      -4.180   3.238   0.000  0.00  0.00    +0.152 A 
ATOM      4  C   UNL     1      -4.895   3.651   0.000  0.00  0.00    +0.038 A 
ATOM      5  C   UNL     1      -4.895   4.476   0.000  0.00  0.00    +0.003 A 
ATOM      6  C   UNL     1      -4.180   4.888   0.000  0.00  0.00    +0.001 A 
ATOM      7  C   UNL     1      -3.466   4.476   0.000  0.00  0.00    +0.018 A 
ATOM      8  C   UNL     1      -3.466   3.651   0.000  0.00  0.00    +0.082 A 
BRANCH   3   2
ATOM      1  C   UNL     1      -4.895   2.001   0.000  0.00  0.00    +0.253 C 
ATOM      2  O   UNL     1      -4.180   2.413   0.000  0.00  0.00    -0.470 OA
ENDBRANCH   3   2
ENDBRANCH   9   8
ENDBRANCH  17  15
ENDBRANCH  18  17
BRANCH  23  24
ATOM     24  C   UNL     1      -0.608  -0.474   0.000  0.00  0.00    +0.051 C 
BRANCH  24  25
ATOM     25  C   UNL     1      -0.608  -1.299   0.000  0.00  0.00    +0.100 A 
ATOM     26  N   UNL     1       0.060  -1.784   0.000  0.00  0.00    -0.082 NA
ATOM     27  O   UNL     1      -0.195  -2.569   0.000  0.00  0.00    -0.357 OA
ATOM     28  C   UNL     1      -1.020  -2.569   0.000  0.00  0.00    +0.170 A 
ATOM     36  C   UNL     1      -1.275  -1.784   0.000  0.00  0.00    +0.055 A 
BRANCH  28  29
ATOM     29  C   UNL     1      -1.505  -3.236   0.000  0.00  0.00    +0.141 C 
BRANCH  29  30
ATOM     30  N   UNL     1      -1.170  -3.990   0.000  0.00  0.00    -0.262 NA
ATOM     31  C   UNL     1      -0.349  -4.076   0.000  0.00  0.00    +0.105 C 
ATOM     32  C   UNL     1      -0.014  -4.830   0.000  0.00  0.00    +0.159 C 
ATOM     33  O   UNL     1      -0.498  -5.497   0.000  0.00  0.00    -0.351 OA
ATOM     34  C   UNL     1      -1.319  -5.411   0.000  0.00  0.00    +0.159 C 
ATOM     35  C   UNL     1      -1.655  -4.657   0.000  0.00  0.00    +0.105 C 
ENDBRANCH  29  30
ENDBRANCH  28  29
ENDBRANCH  24  25
ENDBRANCH  23  24
TORSDOF 8
