REMARK  Name = 
REMARK  6 active torsions:
REMARK  status: ('A' for Active; 'I' for Inactive)
REMARK    1  A    between atoms: N_2  and  C_4
REMARK    2  A    between atoms: C_7  and  C_10
REMARK    3  A    between atoms: N_15  and  C_16
REMARK    4  A    between atoms: C_20  and  N_24
REMARK    5  A    between atoms: C_25  and  C_27
REMARK    6  A    between atoms: C_32  and  C_33
REMARK                            x       y       z     vdW  Elec       q    Type
REMARK                         _______ _______ _______ _____ _____    ______ ____
ROOT
ATOM     16  C   UNL     1       1.270  -0.922   0.000  0.00  0.00    +0.154 C 
ATOM     17  C   UNL     1       0.785  -0.255   0.000  0.00  0.00    +0.166 C 
ATOM     18  O   UNL     1       1.270   0.412   0.000  0.00  0.00    -0.350 OA
ATOM     19  C   UNL     1       2.054   0.158   0.000  0.00  0.00    +0.166 C 
ATOM     20  C   UNL     1       2.839   0.412   0.000  0.00  0.00    +0.155 C 
ATOM     21  C   UNL     1       3.324  -0.255   0.000  0.00  0.00    +0.166 C 
ATOM     22  O   UNL     1       2.839  -0.922   0.000  0.00  0.00    -0.350 OA
ATOM     23  C   UNL     1       2.054  -0.667   0.000  0.00  0.00    +0.166 C 
ENDROOT
BRANCH  16  15
ATOM     10  C   UNL     1      -0.854  -2.835   0.000  0.00  0.00    +0.086 A 
ATOM     11  C   UNL     1      -1.406  -2.222   0.000  0.00  0.00    +0.040 A 
ATOM     12  C   UNL     1      -1.151  -1.437   0.000  0.00  0.00    +0.103 A 
ATOM     13  N   UNL     1      -0.344  -1.265   0.000  0.00  0.00    -0.211 NA
ATOM     14  C   UNL     1       0.208  -1.879   0.000  0.00  0.00    +0.237 A 
ATOM     15  N   UNL     1       1.015  -1.707   0.000  0.00  0.00    -0.200 NA
ATOM     36  N   UNL     1      -0.047  -2.663   0.000  0.00  0.00    -0.212 NA
BRANCH  10   7
ATOM      4  C   UNL     1      -1.619  -5.189   0.000  0.00  0.00    +0.048 A 
ATOM      5  C   UNL     1      -2.171  -4.575   0.000  0.00  0.00    +0.015 A 
ATOM      6  C   UNL     1      -1.916  -3.791   0.000  0.00  0.00    +0.003 A 
ATOM      7  C   UNL     1      -1.109  -3.619   0.000  0.00  0.00    +0.018 A 
ATOM      8  C   UNL     1      -0.557  -4.232   0.000  0.00  0.00    +0.003 A 
ATOM      9  C   UNL     1      -0.812  -5.017   0.000  0.00  0.00    +0.015 A 
BRANCH   4   2
ATOM      1  C   UNL     1      -1.322  -6.586   0.000  0.00  0.00    +0.112 C 
ATOM      2  N   UNL     1      -1.874  -5.973   0.000  0.00  0.00    -0.304 N 
ATOM      3  C   UNL     1      -2.681  -6.145   0.000  0.00  0.00    +0.112 C 
ENDBRANCH   4   2
ENDBRANCH  10   7
ENDBRANCH  16  15
BRANCH  20  24
ATOM     24  N   UNL     1       3.094   1.197   0.000  0.00  0.00    -0.198 NA
ATOM     25  C   UNL     1       2.542   1.810   0.000  0.00  0.00    +0.265 C 
ATOM     26  O   UNL     1       1.735   1.639   0.000  0.00  0.00    -0.268 OA
BRANCH  25  27
ATOM     27  C   UNL     1       2.797   2.595   0.000  0.00  0.00    +0.061 A 
ATOM     28  C   UNL     1       2.245   3.208   0.000  0.00  0.00    +0.005 A 
ATOM     29  C   UNL     1       2.499   3.993   0.000  0.00  0.00    +0.000 A 
ATOM     30  C   UNL     1       3.307   4.164   0.000  0.00  0.00    +0.000 A 
ATOM     31  C   UNL     1       3.858   3.551   0.000  0.00  0.00    +0.007 A 
ATOM     32  C   UNL     1       3.604   2.766   0.000  0.00  0.00    +0.084 A 
BRANCH  32  33
ATOM     33  C   UNL     1       4.156   2.153   0.000  0.00  0.00    +0.388 C 
ATOM     34  O   UNL     1       3.901   1.369   0.000  0.00  0.00    -0.241 OA
ATOM     35  O   UNL     1       4.963   2.325   0.000  0.00  0.00    -0.241 OA
ENDBRANCH  32  33
ENDBRANCH  25  27
ENDBRANCH  20  24
TORSDOF 6
