REMARK  Name = 
REMARK  8 active torsions:
REMARK  status: ('A' for Active; 'I' for Inactive)
REMARK    1  A    between atoms: C_2  and  C_3
REMARK    2  A    between atoms: C_8  and  C_9
REMARK    3  A    between atoms: C_9  and  C_10
REMARK    4  A    between atoms: N_12  and  CA_13
REMARK    5  A    between atoms: CA_13  and  C_14
REMARK    6  A    between atoms: CA_13  and  CB_16
REMARK    7  A    between atoms: CB_16  and  CG_17
REMARK    8  A    between atoms: C_20  and  C_22
REMARK                            x       y       z     vdW  Elec       q    Type
REMARK                         _______ _______ _______ _____ _____    ______ ____
ROOT
ATOM      3  C   UNK A   0      -4.287  -4.125   0.000  0.00  0.00    +0.020 C 
ATOM      4  C   UNK A   0      -5.001  -3.712   0.000  0.00  0.00    +0.094 C 
ATOM      5  N   UNK A   0      -5.001  -2.888   0.000  0.00  0.00    -0.276 N 
ATOM      6  C   UNK A   0      -4.287  -2.475   0.000  0.00  0.00    +0.094 C 
ATOM      7  C   UNK A   0      -3.572  -2.888   0.000  0.00  0.00    +0.022 C 
ATOM      8  C   UNK A   0      -3.572  -3.712   0.000  0.00  0.00    +0.012 C 
ATOM     20  C   UNK A   0      -5.716  -2.475   0.000  0.00  0.00    +0.249 C 
ATOM     21  O   UNK A   0      -5.716  -1.650   0.000  0.00  0.00    -0.270 OA
ENDROOT
BRANCH  20  22
ATOM     22  C   UNK A   0      -6.430  -2.888   0.000  0.00  0.00    +0.054 A 
ATOM     23  C   UNK A   0      -6.430  -3.712   0.000  0.00  0.00    +0.007 A 
ATOM     24  C   UNK A   0      -7.145  -4.125   0.000  0.00  0.00    +0.030 A 
ATOM     25  C   UNK A   0      -7.859  -3.712   0.000  0.00  0.00    +0.140 A 
ATOM     26  F   UNK A   0      -8.574  -4.125   0.000  0.00  0.00    -0.204 F 
ATOM     27  C   UNK A   0      -7.859  -2.888   0.000  0.00  0.00    +0.030 A 
ATOM     28  C   UNK A   0      -7.145  -2.475   0.000  0.00  0.00    +0.007 A 
ENDBRANCH  20  22
BRANCH   3   2
ATOM      1  C   UNK A   0      -3.572  -5.362   0.000  0.00  0.00    +0.000 C 
ATOM      2  C   UNK A   0      -4.287  -4.950   0.000  0.00  0.00    +0.002 C 
ENDBRANCH   3   2
BRANCH   8   9
ATOM      9  C   UNK A   0      -2.858  -4.125   0.000  0.00  0.00    +0.087 C 
BRANCH   9  10
ATOM     10  C   UNK A   0      -2.143  -3.712   0.000  0.00  0.00    +0.241 C 
ATOM     11  O   UNK A   0      -2.143  -2.888   0.000  0.00  0.00    -0.273 OA
ATOM     12  N   LEU A   1      -1.429  -4.125   0.000  0.00  0.00    -0.204 NA
BRANCH  12  13
ATOM     13  CA  LEU A   1      -0.715  -3.712   0.000  0.00  0.00    +0.128 C 
BRANCH  13  14
ATOM     14  C   LEU A   1      -0.715  -2.888   0.000  0.00  0.00    +0.204 C 
ATOM     15  O   LEU A   1       0.000  -2.475   0.000  0.00  0.00    -0.219 OA
ENDBRANCH  13  14
BRANCH  13  16
ATOM     16  CB  LEU A   1       0.000  -4.125   0.000  0.00  0.00    +0.024 C 
BRANCH  16  17
ATOM     17  CG  LEU A   1       0.715  -3.712   0.000  0.00  0.00    +0.002 C 
ATOM     18  CD1 LEU A   1       1.429  -4.125   0.000  0.00  0.00    +0.000 C 
ATOM     19  CD2 LEU A   1       0.715  -2.888   0.000  0.00  0.00    +0.000 C 
ENDBRANCH  16  17
ENDBRANCH  13  16
ENDBRANCH  12  13
ENDBRANCH   9  10
ENDBRANCH   8   9
TORSDOF 8
