REMARK  Name = 
REMARK  4 active torsions:
REMARK  status: ('A' for Active; 'I' for Inactive)
REMARK    1  A    between atoms: O_2  and  C_3
REMARK    2  A    between atoms: C_3  and  C_5
REMARK    3  A    between atoms: C_11  and  C_13
REMARK    4  A    between atoms: C_19  and  C_21
REMARK                            x       y       z     vdW  Elec       q    Type
REMARK                         _______ _______ _______ _____ _____    ______ ____
ROOT
ATOM      5  C   UNL     1       2.143  -1.238   0.000  0.00  0.00    +0.195 C 
ATOM      6  C   UNL     1       2.858  -1.650   0.000  0.00  0.00    +0.125 C 
ATOM      7  N   UNL     1       2.858  -2.475   0.000  0.00  0.00    -0.272 N 
ATOM      8  C   UNL     1       2.143  -2.888   0.000  0.00  0.00    +0.115 C 
ATOM      9  C   UNL     1       1.429  -2.475   0.000  0.00  0.00    +0.115 C 
ATOM     10  N   UNL     1       1.429  -1.650   0.000  0.00  0.00    -0.268 N 
ATOM     11  C   UNL     1       0.715  -1.238   0.000  0.00  0.00    +0.226 C 
ATOM     12  O   UNL     1       0.715  -0.412   0.000  0.00  0.00    -0.275 OA
ATOM     19  C   UNL     1       3.572  -2.888   0.000  0.00  0.00    +0.249 C 
ATOM     20  O   UNL     1       4.287  -2.475   0.000  0.00  0.00    -0.270 OA
ENDROOT
BRANCH  19  21
ATOM     21  C   UNL     1       3.572  -3.712   0.000  0.00  0.00    +0.056 A 
ATOM     22  C   UNL     1       4.287  -4.125   0.000  0.00  0.00    +0.005 A 
ATOM     23  C   UNL     1       4.287  -4.950   0.000  0.00  0.00    +0.002 A 
ATOM     24  C   UNL     1       3.572  -5.362   0.000  0.00  0.00    +0.030 A 
ATOM     25  C   UNL     1       2.858  -4.950   0.000  0.00  0.00    +0.140 A 
ATOM     26  F   UNL     1       2.143  -5.362   0.000  0.00  0.00    -0.204 F 
ATOM     27  C   UNL     1       2.858  -4.125   0.000  0.00  0.00    +0.034 A 
ENDBRANCH  19  21
BRANCH  11  13
ATOM     13  C   UNL     1       0.000  -1.650   0.000  0.00  0.00    +0.077 C 
ATOM     14  C   UNL     1       0.000  -2.475   0.000  0.00  0.00    +0.009 C 
ATOM     15  C   UNL     1      -0.715  -2.888   0.000  0.00  0.00    +0.000 C 
ATOM     16  C   UNL     1      -1.429  -2.475   0.000  0.00  0.00    +0.000 C 
ATOM     17  C   UNL     1      -1.429  -1.650   0.000  0.00  0.00    +0.000 C 
ATOM     18  C   UNL     1      -0.715  -1.238   0.000  0.00  0.00    +0.009 C 
ENDBRANCH  11  13
BRANCH   5   3
ATOM      3  C   UNL     1       2.143  -0.412   0.000  0.00  0.00    +0.337 C 
ATOM      4  O   UNL     1       2.858   0.000   0.000  0.00  0.00    -0.248 OA
BRANCH   3   2
ATOM      1  C   UNL     1       1.429   0.825   0.000  0.00  0.00    +0.256 C 
ATOM      2  O   UNL     1       1.429   0.000   0.000  0.00  0.00    -0.443 OA
ENDBRANCH   3   2
ENDBRANCH   5   3
TORSDOF 4
