REMARK  Name = 
REMARK  6 active torsions:
REMARK  status: ('A' for Active; 'I' for Inactive)
REMARK    1  A    between atoms: C_2  and  C_5
REMARK    2  A    between atoms: N_10  and  C_11
REMARK    3  A    between atoms: C_15  and  N_19
REMARK    4  A    between atoms: N_19  and  S_20
REMARK    5  A    between atoms: S_20  and  C_23
REMARK    6  A    between atoms: C_28  and  C_29
REMARK                            x       y       z     vdW  Elec       q    Type
REMARK                         _______ _______ _______ _____ _____    ______ ____
ROOT
ATOM     11  C   UNL     1       1.270  -0.922   0.000  0.00  0.00    +0.154 C 
ATOM     12  C   UNL     1       0.785  -0.255   0.000  0.00  0.00    +0.166 C 
ATOM     13  O   UNL     1       1.270   0.412   0.000  0.00  0.00    -0.350 OA
ATOM     14  C   UNL     1       2.054   0.158   0.000  0.00  0.00    +0.164 C 
ATOM     15  C   UNL     1       2.839   0.412   0.000  0.00  0.00    +0.157 C 
ATOM     16  C   UNL     1       3.324  -0.255   0.000  0.00  0.00    +0.164 C 
ATOM     17  O   UNL     1       2.839  -0.922   0.000  0.00  0.00    -0.350 OA
ATOM     18  C   UNL     1       2.054  -0.667   0.000  0.00  0.00    +0.166 C 
ENDROOT
BRANCH  11  10
ATOM      5  C   UNL     1      -0.854  -2.835   0.000  0.00  0.00    +0.063 A 
ATOM      6  C   UNL     1      -1.406  -2.222   0.000  0.00  0.00    +0.035 A 
ATOM      7  C   UNL     1      -1.151  -1.437   0.000  0.00  0.00    +0.103 A 
ATOM      8  N   UNL     1      -0.344  -1.265   0.000  0.00  0.00    -0.211 NA
ATOM      9  C   UNL     1       0.208  -1.879   0.000  0.00  0.00    +0.236 A 
ATOM     10  N   UNL     1       1.015  -1.707   0.000  0.00  0.00    -0.200 NA
ATOM     31  N   UNL     1      -0.047  -2.663   0.000  0.00  0.00    -0.217 NA
BRANCH   5   2
ATOM      1  C   UNL     1      -1.364  -4.404   0.000  0.00  0.00    +0.006 C 
ATOM      2  C   UNL     1      -1.109  -3.619   0.000  0.00  0.00    +0.036 C 
ATOM      3  C   UNL     1      -0.325  -3.874   0.000  0.00  0.00    +0.006 C 
ATOM      4  C   UNL     1      -1.894  -3.364   0.000  0.00  0.00    +0.006 C 
ENDBRANCH   5   2
ENDBRANCH  11  10
BRANCH  15  19
ATOM     19  N   UNL     1       3.094   1.197   0.000  0.00  0.00    -0.074 NA
BRANCH  19  20
ATOM     20  S   UNL     1       3.901   1.369   0.000  0.00  0.00    +0.078 S 
ATOM     21  O   UNL     1       4.072   0.562   0.000  0.00  0.00    -0.152 OA
ATOM     22  O   UNL     1       3.729   2.176   0.000  0.00  0.00    -0.152 OA
BRANCH  20  23
ATOM     23  C   UNL     1       4.708   1.540   0.000  0.00  0.00    +0.133 A 
ATOM     24  C   UNL     1       4.963   2.325   0.000  0.00  0.00    +0.021 A 
ATOM     25  C   UNL     1       5.770   2.496   0.000  0.00  0.00    +0.001 A 
ATOM     26  C   UNL     1       6.322   1.883   0.000  0.00  0.00    +0.001 A 
ATOM     27  C   UNL     1       6.067   1.099   0.000  0.00  0.00    +0.012 A 
ATOM     28  C   UNL     1       5.260   0.927   0.000  0.00  0.00    +0.087 A 
BRANCH  28  29
ATOM     29  C   UNL     1       5.005   0.142   0.000  0.00  0.00    +0.102 C 
ATOM     30  N   UNL     1       4.750  -0.642   0.000  0.00  0.00    -0.191 NA
ENDBRANCH  28  29
ENDBRANCH  20  23
ENDBRANCH  19  20
ENDBRANCH  15  19
TORSDOF 6
