REMARK  Name = 
REMARK  7 active torsions:
REMARK  status: ('A' for Active; 'I' for Inactive)
REMARK    1  A    between atoms: C_2  and  N_3
REMARK    2  A    between atoms: N_3  and  C_4
REMARK    3  A    between atoms: C_6  and  C_8
REMARK    4  A    between atoms: C_8  and  C_9
REMARK    5  A    between atoms: C_9  and  C_10
REMARK    6  A    between atoms: C_17  and  N_20
REMARK    7  A    between atoms: C_21  and  C_23
REMARK                            x       y       z     vdW  Elec       q    Type
REMARK                         _______ _______ _______ _____ _____    ______ ____
ROOT
ATOM     10  C   UNL     1       1.459  -1.760   0.000  0.00  0.00    +0.080 C 
ATOM     11  C   UNL     1       1.046  -1.046   0.000  0.00  0.00    +0.131 C 
ATOM     12  N   UNL     1       1.459  -0.332   0.000  0.00  0.00    -0.203 NA
ATOM     13  C   UNL     1       2.284  -0.332   0.000  0.00  0.00    +0.256 C 
ATOM     14  O   UNL     1       2.696   0.383   0.000  0.00  0.00    -0.272 OA
ATOM     15  C   UNL     1       2.696  -1.046   0.000  0.00  0.00    +0.138 C 
ATOM     16  C   UNL     1       3.503  -1.218   0.000  0.00  0.00    +0.048 C 
ATOM     17  C   UNL     1       3.589  -2.038   0.000  0.00  0.00    +0.113 C 
ATOM     18  C   UNL     1       2.836  -2.374   0.000  0.00  0.00    +0.094 C 
ATOM     19  N   UNL     1       2.284  -1.760   0.000  0.00  0.00    -0.265 NA
ENDROOT
BRANCH  17  20
ATOM     20  N   UNL     1       4.304  -2.451   0.000  0.00  0.00    -0.202 NA
ATOM     21  C   UNL     1       5.018  -2.038   0.000  0.00  0.00    +0.271 C 
ATOM     22  O   UNL     1       5.018  -1.213   0.000  0.00  0.00    -0.268 OA
BRANCH  21  23
ATOM     23  C   UNL     1       5.733  -2.451   0.000  0.00  0.00    +0.084 A 
ATOM     24  C   UNL     1       6.486  -2.115   0.000  0.00  0.00    +0.012 A 
ATOM     25  C   UNL     1       7.038  -2.728   0.000  0.00  0.00    +0.008 A 
ATOM     26  C   UNL     1       6.626  -3.443   0.000  0.00  0.00    +0.036 A 
ATOM     27  S   UNL     1       5.819  -3.271   0.000  0.00  0.00    -0.082 S 
ENDBRANCH  21  23
ENDBRANCH  17  20
BRANCH  10   9
ATOM      9  C   UNL     1       1.046  -2.475   0.000  0.00  0.00    +0.027 C 
BRANCH   9   8
ATOM      8  C   UNL     1       0.221  -2.475   0.000  0.00  0.00    +0.087 C 
BRANCH   8   6
ATOM      3  N   UNL     1      -1.016  -3.189   0.000  0.00  0.00    -0.280 N 
ATOM      6  C   UNL     1      -0.191  -3.189   0.000  0.00  0.00    +0.226 C 
ATOM      7  O   UNL     1       0.221  -3.904   0.000  0.00  0.00    -0.275 OA
BRANCH   3   2
ATOM      1  C   UNL     1      -2.254  -3.904   0.000  0.00  0.00    +0.023 C 
ATOM      2  C   UNL     1      -1.429  -3.904   0.000  0.00  0.00    +0.093 C 
ENDBRANCH   3   2
BRANCH   3   4
ATOM      4  C   UNL     1      -1.429  -2.475   0.000  0.00  0.00    +0.093 C 
ATOM      5  C   UNL     1      -1.016  -1.760   0.000  0.00  0.00    +0.023 C 
ENDBRANCH   3   4
ENDBRANCH   8   6
ENDBRANCH   9   8
ENDBRANCH  10   9
TORSDOF 7
