REMARK  Name = 
REMARK  5 active torsions:
REMARK  status: ('A' for Active; 'I' for Inactive)
REMARK    1  A    between atoms: C_2  and  C_3
REMARK    2  A    between atoms: C_8  and  C_9
REMARK    3  A    between atoms: C_9  and  C_10
REMARK    4  A    between atoms: N_12  and  C_13
REMARK    5  A    between atoms: C_13  and  C_14
REMARK                            x       y       z     vdW  Elec       q    Type
REMARK                         _______ _______ _______ _____ _____    ______ ____
ROOT
ATOM      3  C   UNL     1      -4.287  -4.125   0.000  0.00  0.00    +0.020 C 
ATOM      4  C   UNL     1      -5.001  -3.712   0.000  0.00  0.00    +0.095 C 
ATOM      5  N   UNL     1      -5.001  -2.888   0.000  0.00  0.00    -0.264 N 
ATOM      6  C   UNL     1      -4.287  -2.475   0.000  0.00  0.00    +0.095 C 
ATOM      7  C   UNL     1      -3.572  -2.888   0.000  0.00  0.00    +0.022 C 
ATOM      8  C   UNL     1      -3.572  -3.712   0.000  0.00  0.00    +0.012 C 
ATOM     20  C   UNL     1      -5.716  -2.475   0.000  0.00  0.00    +0.307 C 
ATOM     21  O   UNL     1      -5.716  -1.650   0.000  0.00  0.00    -0.252 OA
ATOM     22  N   UNL     1      -6.430  -2.888   0.000  0.00  0.00    -0.259 N 
ATOM     23  C   UNL     1      -6.430  -3.712   0.000  0.00  0.00    +0.127 C 
ATOM     24  C   UNL     1      -7.145  -4.125   0.000  0.00  0.00    +0.164 C 
ATOM     25  O   UNL     1      -7.859  -3.712   0.000  0.00  0.00    -0.350 OA
ATOM     26  C   UNL     1      -7.859  -2.888   0.000  0.00  0.00    +0.164 C 
ATOM     27  C   UNL     1      -7.145  -2.475   0.000  0.00  0.00    +0.127 C 
ENDROOT
BRANCH   3   2
ATOM      1  C   UNL     1      -3.572  -5.362   0.000  0.00  0.00    +0.000 C 
ATOM      2  C   UNL     1      -4.287  -4.950   0.000  0.00  0.00    +0.002 C 
ENDBRANCH   3   2
BRANCH   8   9
ATOM      9  C   UNL     1      -2.858  -4.125   0.000  0.00  0.00    +0.087 C 
BRANCH   9  10
ATOM     10  C   UNL     1      -2.143  -3.712   0.000  0.00  0.00    +0.242 C 
ATOM     11  O   UNL     1      -2.143  -2.888   0.000  0.00  0.00    -0.273 OA
ATOM     12  N   UNL     1      -1.429  -4.125   0.000  0.00  0.00    -0.201 NA
BRANCH  12  13
ATOM     13  C   UNL     1      -0.715  -3.712   0.000  0.00  0.00    +0.141 C 
BRANCH  13  14
ATOM     14  C   UNL     1       0.000  -4.125   0.000  0.00  0.00    -0.001 A 
ATOM     15  C   UNL     1       0.715  -3.712   0.000  0.00  0.00    -0.003 A 
ATOM     16  C   UNL     1       1.429  -4.125   0.000  0.00  0.00    -0.000 A 
ATOM     17  C   UNL     1       1.429  -4.950   0.000  0.00  0.00    -0.000 A 
ATOM     18  C   UNL     1       0.715  -5.362   0.000  0.00  0.00    -0.000 A 
ATOM     19  C   UNL     1       0.000  -4.950   0.000  0.00  0.00    -0.003 A 
ENDBRANCH  13  14
ENDBRANCH  12  13
ENDBRANCH   9  10
ENDBRANCH   8   9
TORSDOF 5
