REMARK  Name = 
REMARK  7 active torsions:
REMARK  status: ('A' for Active; 'I' for Inactive)
REMARK    1  A    between atoms: C_2  and  C_3
REMARK    2  A    between atoms: C_3  and  C_4
REMARK    3  A    between atoms: C_9  and  C_10
REMARK    4  A    between atoms: C_10  and  C_11
REMARK    5  A    between atoms: C_14  and  C_15
REMARK    6  A    between atoms: C_15  and  S_16
REMARK    7  A    between atoms: S_16  and  C_17
REMARK                            x       y       z     vdW  Elec       q    Type
REMARK                         _______ _______ _______ _____ _____    ______ ____
ROOT
ATOM      4  C   UNL     1       2.143  -0.412   0.000  0.00  0.00    +0.012 C 
ATOM      5  C   UNL     1       2.858   0.000   0.000  0.00  0.00    +0.019 C 
ATOM      6  C   UNL     1       3.572  -0.412   0.000  0.00  0.00    +0.089 C 
ATOM      7  N   UNL     1       3.572  -1.238   0.000  0.00  0.00    -0.218 NA
ATOM      8  C   UNL     1       2.858  -1.650   0.000  0.00  0.00    +0.089 C 
ATOM      9  C   UNL     1       2.143  -1.238   0.000  0.00  0.00    +0.024 C 
ENDROOT
BRANCH   4   3
ATOM      3  C   UNL     1       1.429   0.000   0.000  0.00  0.00    +0.087 C 
BRANCH   3   2
ATOM      1  O   UNL     1       2.143   1.238   0.000  0.00  0.00    -0.273 OA
ATOM      2  C   UNL     1       1.429   0.825   0.000  0.00  0.00    +0.247 C 
ATOM     24  N   UNL     1       0.715   1.238   0.000  0.00  0.00    -0.154 NA
ATOM     25  C   UNL     1       0.715   2.062   0.000  0.00  0.00    +0.186 A 
ATOM     26  N   UNL     1       0.047   2.547   0.000  0.00  0.00    -0.221 NA
ATOM     27  C   UNL     1       0.302   3.332   0.000  0.00  0.00    +0.108 A 
ATOM     28  C   UNL     1       1.127   3.332   0.000  0.00  0.00    +0.059 A 
ATOM     29  S   UNL     1       1.382   2.547   0.000  0.00  0.00    -0.049 S 
ENDBRANCH   3   2
ENDBRANCH   4   3
BRANCH   9  10
ATOM     10  C   UNL     1       1.429  -1.650   0.000  0.00  0.00    +0.051 C 
BRANCH  10  11
ATOM     11  C   UNL     1       1.429  -2.475   0.000  0.00  0.00    +0.100 A 
ATOM     12  N   UNL     1       2.096  -2.960   0.000  0.00  0.00    -0.082 NA
ATOM     13  O   UNL     1       1.841  -3.744   0.000  0.00  0.00    -0.357 OA
ATOM     14  C   UNL     1       1.016  -3.744   0.000  0.00  0.00    +0.165 A 
ATOM     23  C   UNL     1       0.761  -2.960   0.000  0.00  0.00    +0.054 A 
BRANCH  14  15
ATOM     15  C   UNL     1       0.531  -4.412   0.000  0.00  0.00    +0.129 C 
BRANCH  15  16
ATOM     16  S   UNL     1       0.867  -5.166   0.000  0.00  0.00    -0.105 S 
BRANCH  16  17
ATOM     17  C   UNL     1       0.382  -5.833   0.000  0.00  0.00    +0.026 A 
ATOM     18  C   UNL     1       0.718  -6.587   0.000  0.00  0.00    +0.006 A 
ATOM     19  C   UNL     1       0.233  -7.254   0.000  0.00  0.00    +0.001 A 
ATOM     20  C   UNL     1      -0.588  -7.168   0.000  0.00  0.00    +0.000 A 
ATOM     21  C   UNL     1      -0.923  -6.414   0.000  0.00  0.00    +0.001 A 
ATOM     22  C   UNL     1      -0.438  -5.747   0.000  0.00  0.00    +0.006 A 
ENDBRANCH  16  17
ENDBRANCH  15  16
ENDBRANCH  14  15
ENDBRANCH  10  11
ENDBRANCH   9  10
TORSDOF 7
