REMARK  Name = 
REMARK  8 active torsions:
REMARK  status: ('A' for Active; 'I' for Inactive)
REMARK    1  A    between atoms: O_2  and  C_3
REMARK    2  A    between atoms: C_3  and  C_4
REMARK    3  A    between atoms: C_4  and  O_5
REMARK    4  A    between atoms: O_5  and  C_6
REMARK    5  A    between atoms: C_8  and  C_12
REMARK    6  A    between atoms: C_15  and  C_17
REMARK    7  A    between atoms: N_21  and  C_22
REMARK    8  A    between atoms: C_22  and  C_23
REMARK                            x       y       z     vdW  Elec       q    Type
REMARK                         _______ _______ _______ _____ _____    ______ ____
ROOT
ATOM     12  C   UNL     1      -1.322   2.290   0.000  0.00  0.00    +0.204 A 
ATOM     13  N   UNL     1      -0.655   1.805   0.000  0.00  0.00    -0.056 NA
ATOM     14  O   UNL     1      -0.910   1.021   0.000  0.00  0.00    -0.336 OA
ATOM     15  C   UNL     1      -1.735   1.021   0.000  0.00  0.00    +0.251 A 
ATOM     16  N   UNL     1      -1.990   1.805   0.000  0.00  0.00    -0.190 NA
ENDROOT
BRANCH  12   8
ATOM      6  C   UNL     1      -0.608   4.353   0.000  0.00  0.00    +0.225 A 
ATOM      7  C   UNL     1      -0.608   3.528   0.000  0.00  0.00    +0.061 A 
ATOM      8  C   UNL     1      -1.322   3.115   0.000  0.00  0.00    +0.045 A 
ATOM      9  C   UNL     1      -2.037   3.528   0.000  0.00  0.00    +0.024 A 
ATOM     10  C   UNL     1      -2.037   4.353   0.000  0.00  0.00    +0.102 A 
ATOM     11  N   UNL     1      -1.322   4.765   0.000  0.00  0.00    -0.210 NA
BRANCH   6   5
ATOM      5  O   UNL     1       0.107   4.765   0.000  0.00  0.00    -0.457 OA
BRANCH   5   4
ATOM      4  C   UNL     1       0.107   5.590   0.000  0.00  0.00    +0.239 C 
BRANCH   4   3
ATOM      3  C   UNL     1       0.821   6.003   0.000  0.00  0.00    +0.189 C 
BRANCH   3   2
ATOM      1  C   UNL     1       1.536   7.240   0.000  0.00  0.00    +0.174 C 
ATOM      2  O   UNL     1       0.821   6.828   0.000  0.00  0.00    -0.347 OA
ENDBRANCH   3   2
ENDBRANCH   4   3
ENDBRANCH   5   4
ENDBRANCH   6   5
ENDBRANCH  12   8
BRANCH  15  17
ATOM     17  C   UNL     1      -2.220   0.353   0.000  0.00  0.00    +0.138 C 
ATOM     18  C   UNL     1      -1.965  -0.431   0.000  0.00  0.00    +0.027 C 
ATOM     19  C   UNL     1      -2.632  -0.916   0.000  0.00  0.00    +0.019 C 
ATOM     20  C   UNL     1      -3.300  -0.431   0.000  0.00  0.00    +0.073 C 
ATOM     21  N   UNL     1      -3.045   0.353   0.000  0.00  0.00    -0.260 NA
BRANCH  21  22
ATOM     22  C   UNL     1      -3.530   1.021   0.000  0.00  0.00    +0.139 C 
BRANCH  22  23
ATOM     23  C   UNL     1      -4.350   0.934   0.000  0.00  0.00    +0.155 A 
ATOM     24  N   UNL     1      -4.763   0.220   0.000  0.00  0.00    -0.226 NA
ATOM     25  C   UNL     1      -5.569   0.392   0.000  0.00  0.00    +0.121 A 
ATOM     26  C   UNL     1      -5.656   1.212   0.000  0.00  0.00    +0.121 A 
ATOM     27  N   UNL     1      -4.902   1.548   0.000  0.00  0.00    -0.226 NA
ENDBRANCH  22  23
ENDBRANCH  21  22
ENDBRANCH  15  17
TORSDOF 8
