REMARK  Name = 
REMARK  7 active torsions:
REMARK  status: ('A' for Active; 'I' for Inactive)
REMARK    1  A    between atoms: C_2  and  N_4
REMARK    2  A    between atoms: N_4  and  C_5
REMARK    3  A    between atoms: C_5  and  C_6
REMARK    4  A    between atoms: C_8  and  C_9
REMARK    5  A    between atoms: C_13  and  N_14
REMARK    6  A    between atoms: N_14  and  C_16
REMARK    7  A    between atoms: C_16  and  C_17
REMARK                            x       y       z     vdW  Elec       q    Type
REMARK                         _______ _______ _______ _____ _____    ______ ____
ROOT
ATOM      6  C   UNL     1       0.000  -2.475   0.000  0.00  0.00    +0.150 C 
ATOM      7  O   UNL     1      -0.667  -2.960   0.000  0.00  0.00    -0.350 OA
ATOM      8  C   UNL     1      -0.412  -3.744   0.000  0.00  0.00    +0.180 C 
ATOM     11  C   UNL     1       0.412  -3.744   0.000  0.00  0.00    +0.198 C 
ATOM     12  O   UNL     1       0.897  -4.412   0.000  0.00  0.00    -0.219 OA
ATOM     13  C   UNL     1       0.667  -2.960   0.000  0.00  0.00    +0.120 C 
ENDROOT
BRANCH   8   9
ATOM      9  C   UNL     1      -0.897  -4.412   0.000  0.00  0.00    +0.214 C 
ATOM     10  O   UNL     1      -1.718  -4.326   0.000  0.00  0.00    -0.218 OA
ENDBRANCH   8   9
BRANCH  13  14
ATOM     14  N   UNL     1       1.452  -2.705   0.000  0.00  0.00    -0.265 NA
ATOM     15  C   UNL     1       1.624  -1.898   0.000  0.00  0.00    +0.090 C 
BRANCH  14  16
ATOM     16  C   UNL     1       2.065  -3.257   0.000  0.00  0.00    +0.099 C 
BRANCH  16  17
ATOM     17  C   UNL     1       2.850  -3.002   0.000  0.00  0.00    -0.006 A 
ATOM     18  C   UNL     1       3.021  -2.195   0.000  0.00  0.00    -0.003 A 
ATOM     19  C   UNL     1       3.806  -1.940   0.000  0.00  0.00    -0.000 A 
ATOM     20  C   UNL     1       4.419  -2.492   0.000  0.00  0.00    -0.000 A 
ATOM     21  C   UNL     1       4.247  -3.299   0.000  0.00  0.00    -0.000 A 
ATOM     22  C   UNL     1       3.463  -3.554   0.000  0.00  0.00    -0.003 A 
ENDBRANCH  16  17
ENDBRANCH  14  16
ENDBRANCH  13  14
BRANCH   6   5
ATOM      5  C   UNL     1       0.000  -1.650   0.000  0.00  0.00    +0.120 C 
BRANCH   5   4
ATOM      4  N   UNL     1      -0.715  -1.238   0.000  0.00  0.00    -0.217 NA
BRANCH   4   2
ATOM      1  C   UNL     1      -1.429   0.000   0.000  0.00  0.00    +0.019 C 
ATOM      2  C   UNL     1      -0.715  -0.412   0.000  0.00  0.00    +0.073 C 
ATOM      3  C   UNL     1       0.000   0.000   0.000  0.00  0.00    +0.019 C 
ENDBRANCH   4   2
ENDBRANCH   5   4
ENDBRANCH   6   5
TORSDOF 7
