REMARK  Name = 
REMARK  7 active torsions:
REMARK  status: ('A' for Active; 'I' for Inactive)
REMARK    1  A    between atoms: C_2  and  C_4
REMARK    2  A    between atoms: C_7  and  S_10
REMARK    3  A    between atoms: S_10  and  N_13
REMARK    4  A    between atoms: C_16  and  C_17
REMARK    5  A    between atoms: C_17  and  C_18
REMARK    6  A    between atoms: C_21  and  C_22
REMARK    7  A    between atoms: C_22  and  C_23
REMARK                            x       y       z     vdW  Elec       q    Type
REMARK                         _______ _______ _______ _____ _____    ______ ____
ROOT
ATOM     13  N   UNL     1      -2.143   1.238   0.000  0.00  0.00    -0.156 NA
ATOM     14  C   UNL     1      -2.143   2.062   0.000  0.00  0.00    +0.096 C 
ATOM     15  C   UNL     1      -1.429   2.475   0.000  0.00  0.00    +0.020 C 
ATOM     16  C   UNL     1      -0.715   2.062   0.000  0.00  0.00    +0.014 C 
ATOM     21  C   UNL     1      -0.715   1.238   0.000  0.00  0.00    +0.024 C 
ATOM     33  C   UNL     1      -1.429   0.825   0.000  0.00  0.00    +0.096 C 
ENDROOT
BRANCH  13  10
ATOM     10  S   UNL     1      -2.858   0.825   0.000  0.00  0.00    +0.063 S 
ATOM     11  O   UNL     1      -2.445   0.111   0.000  0.00  0.00    -0.153 OA
ATOM     12  O   UNL     1      -3.270   1.540   0.000  0.00  0.00    -0.153 OA
BRANCH  10   7
ATOM      4  C   UNL     1      -5.001  -0.412   0.000  0.00  0.00    +0.057 A 
ATOM      5  C   UNL     1      -5.001   0.412   0.000  0.00  0.00    +0.006 A 
ATOM      6  C   UNL     1      -4.287   0.825   0.000  0.00  0.00    +0.020 A 
ATOM      7  C   UNL     1      -3.572   0.412   0.000  0.00  0.00    +0.122 A 
ATOM      8  C   UNL     1      -3.572  -0.412   0.000  0.00  0.00    +0.020 A 
ATOM      9  C   UNL     1      -4.287  -0.825   0.000  0.00  0.00    +0.006 A 
BRANCH   4   2
ATOM      1  N   UNL     1      -5.716  -1.650   0.000  0.00  0.00    -0.084 NA
ATOM      2  C   UNL     1      -5.716  -0.825   0.000  0.00  0.00    +0.284 C 
ATOM      3  O   UNL     1      -6.430  -0.412   0.000  0.00  0.00    -0.267 OA
ENDBRANCH   4   2
ENDBRANCH  10   7
ENDBRANCH  13  10
BRANCH  16  17
ATOM     17  C   UNL     1       0.000   2.475   0.000  0.00  0.00    +0.114 C 
BRANCH  17  18
ATOM     18  C   UNL     1       0.000   3.300   0.000  0.00  0.00    +0.365 C 
ATOM     19  O   UNL     1      -0.715   3.712   0.000  0.00  0.00    -0.246 OA
ATOM     20  O   UNL     1       0.715   3.712   0.000  0.00  0.00    -0.246 OA
ENDBRANCH  17  18
ENDBRANCH  16  17
BRANCH  21  22
ATOM     22  C   UNL     1       0.000   0.825   0.000  0.00  0.00    +0.047 C 
BRANCH  22  23
ATOM     23  C   UNL     1       0.000   0.000   0.000  0.00  0.00    +0.053 C 
ATOM     24  N   UNL     1      -0.715  -0.412   0.000  0.00  0.00    -0.274 NA
ATOM     25  C   UNL     1      -0.715  -1.238   0.000  0.00  0.00    +0.130 C 
ATOM     26  C   UNL     1       0.000  -1.650   0.000  0.00  0.00    +0.053 C 
ATOM     27  C   UNL     1       0.715  -1.238   0.000  0.00  0.00    -0.019 A 
ATOM     28  C   UNL     1       0.715  -0.412   0.000  0.00  0.00    +0.009 A 
ATOM     29  C   UNL     1       1.429   0.000   0.000  0.00  0.00    +0.001 A 
ATOM     30  C   UNL     1       2.143  -0.412   0.000  0.00  0.00    +0.000 A 
ATOM     31  C   UNL     1       2.143  -1.238   0.000  0.00  0.00    -0.000 A 
ATOM     32  C   UNL     1       1.429  -1.650   0.000  0.00  0.00    -0.004 A 
ENDBRANCH  22  23
ENDBRANCH  21  22
TORSDOF 7
