REMARK  Name = 
REMARK  7 active torsions:
REMARK  status: ('A' for Active; 'I' for Inactive)
REMARK    1  A    between atoms: C_2  and  C_3
REMARK    2  A    between atoms: C_3  and  C_4
REMARK    3  A    between atoms: C_4  and  C_5
REMARK    4  A    between atoms: C_7  and  C_8
REMARK    5  A    between atoms: C_8  and  C_9
REMARK    6  A    between atoms: C_14  and  C_15
REMARK    7  A    between atoms: C_15  and  C_16
REMARK                            x       y       z     vdW  Elec       q    Type
REMARK                         _______ _______ _______ _____ _____    ______ ____
ROOT
ATOM      9  C   UNL     1       5.898  -4.387   0.000  0.00  0.00    +0.024 C 
ATOM     10  C   UNL     1       6.234  -3.634   0.000  0.00  0.00    +0.089 C 
ATOM     11  N   UNL     1       7.054  -3.547   0.000  0.00  0.00    -0.218 NA
ATOM     12  C   UNL     1       7.539  -4.215   0.000  0.00  0.00    +0.089 C 
ATOM     13  C   UNL     1       7.203  -4.969   0.000  0.00  0.00    +0.019 C 
ATOM     14  C   UNL     1       6.383  -5.055   0.000  0.00  0.00    +0.012 C 
ENDROOT
BRANCH   9   8
ATOM      8  C   UNL     1       5.077  -4.474   0.000  0.00  0.00    +0.051 C 
BRANCH   8   7
ATOM      5  C   UNL     1       4.180  -2.537   0.000  0.00  0.00    +0.154 A 
ATOM      6  C   UNL     1       4.848  -3.022   0.000  0.00  0.00    +0.054 A 
ATOM      7  C   UNL     1       4.593  -3.806   0.000  0.00  0.00    +0.100 A 
ATOM     25  N   UNL     1       3.768  -3.806   0.000  0.00  0.00    -0.082 NA
ATOM     26  O   UNL     1       3.513  -3.022   0.000  0.00  0.00    -0.358 OA
BRANCH   5   4
ATOM      4  C   UNL     1       4.180  -1.712   0.000  0.00  0.00    +0.067 C 
BRANCH   4   3
ATOM      3  C   UNL     1       3.466  -1.299   0.000  0.00  0.00    +0.008 C 
BRANCH   3   2
ATOM      1  C   UNL     1       2.751  -0.062   0.000  0.00  0.00    +0.000 C 
ATOM      2  C   UNL     1       3.466  -0.474   0.000  0.00  0.00    +0.000 C 
ENDBRANCH   3   2
ENDBRANCH   4   3
ENDBRANCH   5   4
ENDBRANCH   8   7
ENDBRANCH   9   8
BRANCH  14  15
ATOM     15  C   UNL     1       6.047  -5.809   0.000  0.00  0.00    +0.085 C 
BRANCH  15  16
ATOM     16  C   UNL     1       6.532  -6.476   0.000  0.00  0.00    +0.226 C 
ATOM     17  O   UNL     1       7.353  -6.390   0.000  0.00  0.00    -0.275 OA
ATOM     18  N   UNL     1       6.197  -7.230   0.000  0.00  0.00    -0.277 N 
ATOM     19  C   UNL     1       6.682  -7.897   0.000  0.00  0.00    +0.111 C 
ATOM     20  C   UNL     1       6.346  -8.651   0.000  0.00  0.00    +0.094 C 
ATOM     21  N   UNL     1       5.526  -8.737   0.000  0.00  0.00    -0.269 NA
ATOM     22  C   UNL     1       5.190  -9.491   0.000  0.00  0.00    +0.090 C 
ATOM     23  C   UNL     1       5.041  -8.069   0.000  0.00  0.00    +0.094 C 
ATOM     24  C   UNL     1       5.376  -7.316   0.000  0.00  0.00    +0.111 C 
ENDBRANCH  15  16
ENDBRANCH  14  15
TORSDOF 7
