REMARK  Name = 
REMARK  10 active torsions:
REMARK  status: ('A' for Active; 'I' for Inactive)
REMARK    1  A    between atoms: O_2  and  C_3
REMARK    2  A    between atoms: C_6  and  C_7
REMARK    3  A    between atoms: C_7  and  N_8
REMARK    4  A    between atoms: C_9  and  C_11
REMARK    5  A    between atoms: C_11  and  C_12
REMARK    6  A    between atoms: C_17  and  C_18
REMARK    7  A    between atoms: C_18  and  C_19
REMARK    8  A    between atoms: C_22  and  C_23
REMARK    9  A    between atoms: C_23  and  O_24
REMARK   10  A    between atoms: O_24  and  C_25
REMARK                            x       y       z     vdW  Elec       q    Type
REMARK                         _______ _______ _______ _____ _____    ______ ____
ROOT
ATOM     12  C   UNL     1       2.143  -0.412   0.000  0.00  0.00    +0.012 C 
ATOM     13  C   UNL     1       2.858   0.000   0.000  0.00  0.00    +0.019 C 
ATOM     14  C   UNL     1       3.572  -0.412   0.000  0.00  0.00    +0.089 C 
ATOM     15  N   UNL     1       3.572  -1.238   0.000  0.00  0.00    -0.218 NA
ATOM     16  C   UNL     1       2.858  -1.650   0.000  0.00  0.00    +0.089 C 
ATOM     17  C   UNL     1       2.143  -1.238   0.000  0.00  0.00    +0.024 C 
ENDROOT
BRANCH  12  11
ATOM     11  C   UNL     1       1.429   0.000   0.000  0.00  0.00    +0.087 C 
BRANCH  11   9
ATOM      8  N   UNL     1       2.143   1.238   0.000  0.00  0.00    -0.201 NA
ATOM      9  C   UNL     1       1.429   0.825   0.000  0.00  0.00    +0.242 C 
ATOM     10  O   UNL     1       0.715   1.238   0.000  0.00  0.00    -0.273 OA
BRANCH   8   7
ATOM      7  C   UNL     1       2.858   0.825   0.000  0.00  0.00    +0.141 C 
BRANCH   7   6
ATOM      3  C   UNL     1       5.001   2.062   0.000  0.00  0.00    +0.139 A 
ATOM      4  C   UNL     1       5.001   1.238   0.000  0.00  0.00    +0.037 A 
ATOM      5  C   UNL     1       4.287   0.825   0.000  0.00  0.00    +0.001 A 
ATOM      6  C   UNL     1       3.572   1.238   0.000  0.00  0.00    -0.000 A 
ATOM     32  C   UNL     1       3.572   2.062   0.000  0.00  0.00    +0.001 A 
ATOM     33  C   UNL     1       4.287   2.475   0.000  0.00  0.00    +0.037 A 
BRANCH   3   2
ATOM      1  C   UNL     1       5.716   3.300   0.000  0.00  0.00    +0.252 C 
ATOM      2  O   UNL     1       5.716   2.475   0.000  0.00  0.00    -0.471 OA
ENDBRANCH   3   2
ENDBRANCH   7   6
ENDBRANCH   8   7
ENDBRANCH  11   9
ENDBRANCH  12  11
BRANCH  17  18
ATOM     18  C   UNL     1       1.429  -1.650   0.000  0.00  0.00    +0.051 C 
BRANCH  18  19
ATOM     19  C   UNL     1       1.429  -2.475   0.000  0.00  0.00    +0.100 A 
ATOM     20  N   UNL     1       2.096  -2.960   0.000  0.00  0.00    -0.082 NA
ATOM     21  O   UNL     1       1.841  -3.744   0.000  0.00  0.00    -0.354 OA
ATOM     22  C   UNL     1       1.016  -3.744   0.000  0.00  0.00    +0.198 A 
ATOM     31  C   UNL     1       0.761  -2.960   0.000  0.00  0.00    +0.057 A 
BRANCH  22  23
ATOM     23  C   UNL     1       0.531  -4.412   0.000  0.00  0.00    +0.272 C 
BRANCH  23  24
ATOM     24  O   UNL     1       0.867  -5.166   0.000  0.00  0.00    -0.467 OA
BRANCH  24  25
ATOM     25  C   UNL     1       0.382  -5.833   0.000  0.00  0.00    +0.139 A 
ATOM     26  C   UNL     1       0.718  -6.587   0.000  0.00  0.00    +0.037 A 
ATOM     27  C   UNL     1       0.233  -7.254   0.000  0.00  0.00    +0.003 A 
ATOM     28  C   UNL     1      -0.588  -7.168   0.000  0.00  0.00    +0.000 A 
ATOM     29  C   UNL     1      -0.923  -6.414   0.000  0.00  0.00    +0.003 A 
ATOM     30  C   UNL     1      -0.438  -5.747   0.000  0.00  0.00    +0.037 A 
ENDBRANCH  24  25
ENDBRANCH  23  24
ENDBRANCH  22  23
ENDBRANCH  18  19
ENDBRANCH  17  18
TORSDOF 10
