REMARK  Name = 
REMARK  6 active torsions:
REMARK  status: ('A' for Active; 'I' for Inactive)
REMARK    1  A    between atoms: C_5  and  C_6
REMARK    2  A    between atoms: C_6  and  C_7
REMARK    3  A    between atoms: N_9  and  C_10
REMARK    4  A    between atoms: C_14  and  C_15
REMARK    5  A    between atoms: C_15  and  N_16
REMARK    6  A    between atoms: C_17  and  C_19
REMARK                            x       y       z     vdW  Elec       q    Type
REMARK                         _______ _______ _______ _____ _____    ______ ____
ROOT
ATOM      1  O   UNL     1      10.803  -0.476   0.000  0.00  0.00    -0.218 OA
ATOM      2  C   UNL     1       9.983  -0.390   0.000  0.00  0.00    +0.213 C 
ATOM      3  C   UNL     1       9.431  -1.003   0.000  0.00  0.00    +0.212 C 
ATOM      4  O   UNL     1       9.602  -1.810   0.000  0.00  0.00    -0.218 OA
ATOM      5  C   UNL     1       8.677  -0.667   0.000  0.00  0.00    +0.157 C 
ATOM     13  O   UNL     1       8.764   0.153   0.000  0.00  0.00    -0.351 OA
ATOM     14  C   UNL     1       9.570   0.325   0.000  0.00  0.00    +0.170 C 
ENDROOT
BRANCH   5   6
ATOM      6  C   UNL     1       7.963  -1.080   0.000  0.00  0.00    +0.119 C 
BRANCH   6   7
ATOM      7  C   UNL     1       7.963  -1.905   0.000  0.00  0.00    +0.244 C 
ATOM      8  O   UNL     1       8.677  -2.317   0.000  0.00  0.00    -0.273 OA
ATOM      9  N   UNL     1       7.248  -2.317   0.000  0.00  0.00    -0.207 NA
BRANCH   9  10
ATOM     10  C   UNL     1       7.248  -3.143   0.000  0.00  0.00    +0.095 C 
ATOM     11  C   UNL     1       7.661  -3.857   0.000  0.00  0.00    +0.023 C 
ATOM     12  C   UNL     1       6.836  -3.857   0.000  0.00  0.00    +0.023 C 
ENDBRANCH   9  10
ENDBRANCH   6   7
ENDBRANCH   5   6
BRANCH  14  15
ATOM     15  C   UNL     1       9.906   1.078   0.000  0.00  0.00    +0.147 C 
BRANCH  15  16
ATOM     16  N   UNL     1      10.727   1.165   0.000  0.00  0.00    -0.203 NA
ATOM     17  C   UNL     1      11.062   1.918   0.000  0.00  0.00    +0.241 C 
ATOM     18  O   UNL     1      10.577   2.586   0.000  0.00  0.00    -0.273 OA
BRANCH  17  19
ATOM     19  C   UNL     1      11.883   2.004   0.000  0.00  0.00    +0.078 C 
ATOM     20  C   UNL     1      12.295   2.719   0.000  0.00  0.00    +0.009 C 
ATOM     21  C   UNL     1      13.102   2.547   0.000  0.00  0.00    +0.001 C 
ATOM     22  C   UNL     1      13.188   1.727   0.000  0.00  0.00    +0.001 C 
ATOM     23  C   UNL     1      12.435   1.391   0.000  0.00  0.00    +0.009 C 
ENDBRANCH  17  19
ENDBRANCH  15  16
ENDBRANCH  14  15
TORSDOF 6
