REMARK  Name = 
REMARK  5 active torsions:
REMARK  status: ('A' for Active; 'I' for Inactive)
REMARK    1  A    between atoms: C_2  and  C_3
REMARK    2  A    between atoms: C_3  and  N_4
REMARK    3  A    between atoms: C_5  and  C_7
REMARK    4  A    between atoms: C_18  and  C_19
REMARK    5  A    between atoms: C_19  and  C_20
REMARK                            x       y       z     vdW  Elec       q    Type
REMARK                         _______ _______ _______ _____ _____    ______ ____
ROOT
ATOM      7  C   UNL     1       3.285  -3.054   0.000  0.00  0.00    +0.155 C 
ATOM      8  C   UNL     1       3.223  -2.232   0.000  0.00  0.00    +0.055 C 
ATOM      9  C   UNL     1       3.828  -1.671   0.000  0.00  0.00    +0.000 A 
ATOM     10  C   UNL     1       3.693  -0.857   0.000  0.00  0.00    +0.095 A 
ATOM     11  N   UNL     1       4.425  -0.477   0.000  0.00  0.00    -0.244 NA
ATOM     12  C   UNL     1       5.013  -1.056   0.000  0.00  0.00    +0.081 A 
ATOM     13  C   UNL     1       4.644  -1.794   0.000  0.00  0.00    +0.013 A 
ATOM     14  C   UNL     1       5.056  -2.508   0.000  0.00  0.00    -0.005 A 
ATOM     15  C   UNL     1       5.922  -2.433   0.000  0.00  0.00    -0.003 A 
ATOM     16  C   UNL     1       6.291  -1.695   0.000  0.00  0.00    +0.001 A 
ATOM     17  C   UNL     1       5.836  -1.006   0.000  0.00  0.00    +0.019 A 
ATOM     18  C   UNL     1       4.755  -3.276   0.000  0.00  0.00    +0.095 C 
ATOM     23  N   UNL     1       3.967  -3.519   0.000  0.00  0.00    -0.207 NA
ENDROOT
BRANCH   7   5
ATOM      4  N   UNL     1       1.856  -3.054   0.000  0.00  0.00    -0.204 NA
ATOM      5  C   UNL     1       2.570  -3.467   0.000  0.00  0.00    +0.258 C 
ATOM      6  O   UNL     1       2.570  -4.292   0.000  0.00  0.00    -0.272 OA
BRANCH   4   3
ATOM      3  C   UNL     1       1.141  -3.467   0.000  0.00  0.00    +0.115 C 
BRANCH   3   2
ATOM      1  C   UNL     1      -0.287  -3.467   0.000  0.00  0.00    +0.002 C 
ATOM      2  C   UNL     1       0.427  -3.054   0.000  0.00  0.00    +0.023 C 
ENDBRANCH   3   2
ENDBRANCH   4   3
ENDBRANCH   7   5
BRANCH  18  19
ATOM     19  C   UNL     1       5.316  -3.881   0.000  0.00  0.00    +0.022 C 
BRANCH  19  20
ATOM     20  C   UNL     1       6.120  -3.697   0.000  0.00  0.00    +0.002 C 
ATOM     21  C   UNL     1       6.364  -2.909   0.000  0.00  0.00    +0.000 C 
ATOM     22  C   UNL     1       6.681  -4.302   0.000  0.00  0.00    +0.000 C 
ENDBRANCH  19  20
ENDBRANCH  18  19
TORSDOF 5
