REMARK  Name = 
REMARK  3 active torsions:
REMARK  status: ('A' for Active; 'I' for Inactive)
REMARK    1  A    between atoms: N_3  and  C_4
REMARK    2  A    between atoms: C_4  and  C_5
REMARK    3  A    between atoms: N_14  and  C_18
REMARK                            x       y       z     vdW  Elec       q    Type
REMARK                         _______ _______ _______ _____ _____    ______ ____
ROOT
ATOM      1  O   UNL     1       0.884  -2.150   0.000  0.00  0.00    -0.252 OA
ATOM      2  C   UNL     1       1.139  -1.365   0.000  0.00  0.00    +0.308 C 
ATOM      3  N   UNL     1       0.654  -0.698   0.000  0.00  0.00    -0.258 N 
ATOM     11  C   UNL     1       1.139  -0.030   0.000  0.00  0.00    +0.116 C 
ATOM     12  C   UNL     1       1.923  -0.285   0.000  0.00  0.00    +0.113 C 
ATOM     13  C   UNL     1       2.638   0.127   0.000  0.00  0.00    +0.094 C 
ATOM     14  N   UNL     1       3.352  -0.285   0.000  0.00  0.00    -0.271 NA
ATOM     15  C   UNL     1       3.352  -1.110   0.000  0.00  0.00    +0.094 C 
ATOM     16  C   UNL     1       2.638  -1.523   0.000  0.00  0.00    +0.112 C 
ATOM     17  N   UNL     1       1.923  -1.110   0.000  0.00  0.00    -0.261 N 
ENDROOT
BRANCH  14  18
ATOM     18  C   UNL     1       4.067   0.127   0.000  0.00  0.00    +0.058 C 
ATOM     19  C   UNL     1       4.280   0.924   0.000  0.00  0.00    +0.016 C 
ATOM     20  C   UNL     1       5.077   0.710   0.000  0.00  0.00    +0.003 C 
ATOM     21  C   UNL     1       4.864  -0.086   0.000  0.00  0.00    +0.016 C 
ENDBRANCH  14  18
BRANCH   3   4
ATOM      4  C   UNL     1      -0.171  -0.698   0.000  0.00  0.00    +0.123 C 
BRANCH   4   5
ATOM      5  C   UNL     1      -0.584  -1.412   0.000  0.00  0.00    +0.017 A 
ATOM      6  C   UNL     1      -0.171  -2.127   0.000  0.00  0.00    +0.001 A 
ATOM      7  C   UNL     1      -0.584  -2.841   0.000  0.00  0.00    +0.020 A 
ATOM      8  C   UNL     1      -1.409  -2.841   0.000  0.00  0.00    +0.099 A 
ATOM      9  N   UNL     1      -1.821  -2.127   0.000  0.00  0.00    -0.243 NA
ATOM     10  C   UNL     1      -1.409  -1.412   0.000  0.00  0.00    +0.096 A 
ENDBRANCH   4   5
ENDBRANCH   3   4
TORSDOF 3
