REMARK  Name = 
REMARK  3 active torsions:
REMARK  status: ('A' for Active; 'I' for Inactive)
REMARK    1  A    between atoms: C_9  and  O_11
REMARK    2  A    between atoms: O_11  and  C_12
REMARK    3  A    between atoms: C_15  and  S_18
REMARK                            x       y       z     vdW  Elec       q    Type
REMARK                         _______ _______ _______ _____ _____    ______ ____
ROOT
ATOM     11  O   UNL     1       3.457   0.634   0.000  0.00  0.00    -0.475 OA
ENDROOT
BRANCH  11   9
ATOM      1  C   UNL     1      -0.093   0.403   0.000  0.00  0.00    +0.095 C 
ATOM      2  C   UNL     1       0.712   0.220   0.000  0.00  0.00    +0.226 C 
ATOM      3  O   UNL     1       0.955  -0.569   0.000  0.00  0.00    -0.275 OA
ATOM      4  N   UNL     1       1.273   0.825   0.000  0.00  0.00    -0.273 N 
ATOM      5  C   UNL     1       0.971   1.593   0.000  0.00  0.00    +0.126 C 
ATOM      6  C   UNL     1       1.384   2.307   0.000  0.00  0.00    +0.164 C 
ATOM      7  O   UNL     1       2.200   2.430   0.000  0.00  0.00    -0.348 OA
ATOM      8  C   UNL     1       2.804   1.869   0.000  0.00  0.00    +0.187 C 
ATOM      9  C   UNL     1       2.743   1.046   0.000  0.00  0.00    +0.215 C 
ATOM     10  C   UNL     1       2.061   0.581   0.000  0.00  0.00    +0.139 C 
ENDBRANCH  11   9
BRANCH  11  12
ATOM     12  C   UNL     1       3.457  -0.191   0.000  0.00  0.00    +0.139 A 
ATOM     13  C   UNL     1       4.172  -0.604   0.000  0.00  0.00    +0.038 A 
ATOM     14  C   UNL     1       4.172  -1.429   0.000  0.00  0.00    +0.021 A 
ATOM     15  C   UNL     1       3.457  -1.841   0.000  0.00  0.00    +0.106 A 
ATOM     16  C   UNL     1       2.743  -1.429   0.000  0.00  0.00    +0.021 A 
ATOM     17  C   UNL     1       2.743  -0.604   0.000  0.00  0.00    +0.038 A 
BRANCH  15  18
ATOM     18  S   UNL     1       3.457  -2.666   0.000  0.00  0.00    +0.010 S 
ATOM     19  C   UNL     1       3.457  -3.491   0.000  0.00  0.00    +0.182 C 
ATOM     20  O   UNL     1       2.632  -2.666   0.000  0.00  0.00    -0.169 OA
ATOM     21  O   UNL     1       4.282  -2.666   0.000  0.00  0.00    -0.169 OA
ENDBRANCH  15  18
ENDBRANCH  11  12
TORSDOF 3
