REMARK  Name = 
REMARK  8 active torsions:
REMARK  status: ('A' for Active; 'I' for Inactive)
REMARK    1  A    between atoms: N_2  and  C_4
REMARK    2  A    between atoms: C_4  and  C_5
REMARK    3  A    between atoms: C_5  and  N_6
REMARK    4  A    between atoms: C_7  and  C_9
REMARK    5  A    between atoms: C_9  and  C_10
REMARK    6  A    between atoms: C_12  and  C_13
REMARK    7  A    between atoms: C_13  and  N_14
REMARK    8  A    between atoms: C_15  and  C_17
REMARK                            x       y       z     vdW  Elec       q    Type
REMARK                         _______ _______ _______ _____ _____    ______ ____
ROOT
ATOM     10  C   UNL     1       9.257  -6.726   0.000  0.00  0.00    +0.157 C 
ATOM     11  O   UNL     1      10.010  -6.390   0.000  0.00  0.00    -0.351 OA
ATOM     12  C   UNL     1      10.562  -7.003   0.000  0.00  0.00    +0.170 C 
ATOM     26  C   UNL     1      10.150  -7.718   0.000  0.00  0.00    +0.213 C 
ATOM     27  O   UNL     1      10.485  -8.471   0.000  0.00  0.00    -0.218 OA
ATOM     28  C   UNL     1       9.343  -7.546   0.000  0.00  0.00    +0.212 C 
ATOM     29  O   UNL     1       8.730  -8.098   0.000  0.00  0.00    -0.218 OA
ENDROOT
BRANCH  10   9
ATOM      9  C   UNL     1       8.542  -6.313   0.000  0.00  0.00    +0.119 C 
BRANCH   9   7
ATOM      6  N   UNL     1       7.113  -6.313   0.000  0.00  0.00    -0.204 NA
ATOM      7  C   UNL     1       7.828  -6.726   0.000  0.00  0.00    +0.244 C 
ATOM      8  O   UNL     1       7.828  -7.551   0.000  0.00  0.00    -0.273 OA
BRANCH   6   5
ATOM      5  C   UNL     1       6.399  -6.726   0.000  0.00  0.00    +0.132 C 
BRANCH   5   4
ATOM      4  C   UNL     1       5.684  -6.313   0.000  0.00  0.00    +0.096 C 
BRANCH   4   2
ATOM      1  C   UNL     1       4.255  -6.313   0.000  0.00  0.00    +0.090 C 
ATOM      2  N   UNL     1       4.970  -6.726   0.000  0.00  0.00    -0.269 NA
ATOM      3  C   UNL     1       4.970  -7.551   0.000  0.00  0.00    +0.090 C 
ENDBRANCH   4   2
ENDBRANCH   5   4
ENDBRANCH   6   5
ENDBRANCH   9   7
ENDBRANCH  10   9
BRANCH  12  13
ATOM     13  C   UNL     1      11.383  -6.917   0.000  0.00  0.00    +0.148 C 
BRANCH  13  14
ATOM     14  N   UNL     1      11.868  -7.584   0.000  0.00  0.00    -0.199 NA
ATOM     15  C   UNL     1      12.688  -7.498   0.000  0.00  0.00    +0.265 C 
ATOM     16  O   UNL     1      13.024  -6.744   0.000  0.00  0.00    -0.268 OA
BRANCH  15  17
ATOM     17  C   UNL     1      13.173  -8.165   0.000  0.00  0.00    +0.058 A 
ATOM     18  C   UNL     1      13.994  -8.079   0.000  0.00  0.00    +0.008 A 
ATOM     19  C   UNL     1      14.479  -8.747   0.000  0.00  0.00    +0.040 A 
ATOM     20  C   UNL     1      14.143  -9.500   0.000  0.00  0.00    +0.176 A 
ATOM     21  O   UNL     1      14.479 -10.254   0.000  0.00  0.00    -0.435 OA
ATOM     22  C   UNL     1      13.865 -10.806   0.000  0.00  0.00    +0.429 C 
ATOM     23  O   UNL     1      13.151 -10.393   0.000  0.00  0.00    -0.435 OA
ATOM     24  C   UNL     1      13.322  -9.587   0.000  0.00  0.00    +0.177 A 
ATOM     25  C   UNL     1      12.838  -8.919   0.000  0.00  0.00    +0.045 A 
ENDBRANCH  15  17
ENDBRANCH  13  14
ENDBRANCH  12  13
TORSDOF 8
