REMARK  Name = 
REMARK  6 active torsions:
REMARK  status: ('A' for Active; 'I' for Inactive)
REMARK    1  A    between atoms: O_2  and  C_3
REMARK    2  A    between atoms: C_6  and  S_9
REMARK    3  A    between atoms: S_9  and  N_12
REMARK    4  A    between atoms: N_19  and  C_20
REMARK    5  A    between atoms: C_20  and  C_21
REMARK    6  A    between atoms: C_23  and  C_27
REMARK                            x       y       z     vdW  Elec       q    Type
REMARK                         _______ _______ _______ _____ _____    ______ ____
ROOT
ATOM     12  N   UNL     1       0.654  -0.698   0.000  0.00  0.00    -0.151 NA
ATOM     13  C   UNL     1       1.139  -0.030   0.000  0.00  0.00    +0.127 C 
ATOM     14  C   UNL     1       1.923  -0.285   0.000  0.00  0.00    +0.153 C 
ATOM     15  O   UNL     1       2.638   0.127   0.000  0.00  0.00    -0.344 OA
ATOM     16  C   UNL     1       3.352  -0.285   0.000  0.00  0.00    +0.227 C 
ATOM     17  C   UNL     1       3.352  -1.110   0.000  0.00  0.00    +0.256 C 
ATOM     18  O   UNL     1       4.067  -1.523   0.000  0.00  0.00    -0.272 OA
ATOM     19  N   UNL     1       2.638  -1.523   0.000  0.00  0.00    -0.271 N 
ATOM     31  C   UNL     1       1.923  -1.110   0.000  0.00  0.00    +0.122 C 
ATOM     32  C   UNL     1       1.139  -1.365   0.000  0.00  0.00    +0.118 C 
ENDROOT
BRANCH  12   9
ATOM      9  S   UNL     1      -0.171  -0.698   0.000  0.00  0.00    +0.063 S 
ATOM     10  O   UNL     1      -0.171  -1.523   0.000  0.00  0.00    -0.153 OA
ATOM     11  O   UNL     1      -0.171   0.127   0.000  0.00  0.00    -0.153 OA
BRANCH   9   6
ATOM      3  C   UNL     1      -2.646  -0.698   0.000  0.00  0.00    +0.139 A 
ATOM      4  C   UNL     1      -2.234   0.017   0.000  0.00  0.00    +0.038 A 
ATOM      5  C   UNL     1      -1.409   0.017   0.000  0.00  0.00    +0.023 A 
ATOM      6  C   UNL     1      -0.996  -0.698   0.000  0.00  0.00    +0.122 A 
ATOM      7  C   UNL     1      -1.409  -1.412   0.000  0.00  0.00    +0.023 A 
ATOM      8  C   UNL     1      -2.234  -1.412   0.000  0.00  0.00    +0.038 A 
BRANCH   3   2
ATOM      1  C   UNL     1      -3.884  -1.412   0.000  0.00  0.00    +0.252 C 
ATOM      2  O   UNL     1      -3.471  -0.698   0.000  0.00  0.00    -0.471 OA
ENDBRANCH   3   2
ENDBRANCH   9   6
ENDBRANCH  12   9
BRANCH  19  20
ATOM     20  C   UNL     1       2.638  -2.348   0.000  0.00  0.00    +0.120 C 
BRANCH  20  21
ATOM     21  C   UNL     1       1.923  -2.760   0.000  0.00  0.00    -0.002 A 
ATOM     22  C   UNL     1       1.923  -3.585   0.000  0.00  0.00    +0.001 A 
ATOM     23  C   UNL     1       1.209  -3.998   0.000  0.00  0.00    +0.071 A 
ATOM     24  C   UNL     1       0.494  -3.585   0.000  0.00  0.00    +0.004 A 
ATOM     25  C   UNL     1       0.494  -2.760   0.000  0.00  0.00    -0.000 A 
ATOM     26  C   UNL     1       1.209  -2.348   0.000  0.00  0.00    -0.003 A 
BRANCH  23  27
ATOM     27  C   UNL     1       1.209  -4.823   0.000  0.00  0.00    +0.419 C 
ATOM     28  F   UNL     1       1.209  -5.648   0.000  0.00  0.00    -0.166 F 
ATOM     29  F   UNL     1       0.384  -4.823   0.000  0.00  0.00    -0.166 F 
ATOM     30  F   UNL     1       2.034  -4.823   0.000  0.00  0.00    -0.166 F 
ENDBRANCH  23  27
ENDBRANCH  20  21
ENDBRANCH  19  20
TORSDOF 6
