REMARK  Name = 
REMARK  3 active torsions:
REMARK  status: ('A' for Active; 'I' for Inactive)
REMARK    1  A    between atoms: C_3  and  C_4
REMARK    2  A    between atoms: N_10  and  S_12
REMARK    3  A    between atoms: S_12  and  C_15
REMARK                            x       y       z     vdW  Elec       q    Type
REMARK                         _______ _______ _______ _____ _____    ______ ____
ROOT
ATOM      4  C   UNL     1      -0.397  -0.039   0.000  0.00  0.00    +0.012 A 
ATOM      5  C   UNL     1       0.244  -0.558   0.000  0.00  0.00    +0.041 A 
ATOM      6  C   UNL     1       1.163  -0.557   0.000  0.00  0.00    +0.056 C 
ATOM      7  C   UNL     1       1.713  -0.121   0.000  0.00  0.00    +0.011 C 
ATOM      8  C   UNL     1       1.582  -0.925   0.000  0.00  0.00    +0.041 C 
ATOM      9  C   UNL     1       1.629  -1.912   0.000  0.00  0.00    +0.098 C 
ATOM     10  N   UNL     1       0.813  -2.091   0.000  0.00  0.00    -0.155 NA
ATOM     11  C   UNL     1       1.225  -1.510   0.000  0.00  0.00    +0.102 C 
ATOM     22  C   UNL     1       0.622  -0.936   0.000  0.00  0.00    +0.110 C 
ATOM     23  N   UNL     1       0.115  -1.373   0.000  0.00  0.00    -0.299 N 
ATOM     24  C   UNL     1      -0.655  -1.669   0.000  0.00  0.00    +0.261 A 
ATOM     25  O   UNL     1      -0.784  -2.484   0.000  0.00  0.00    -0.267 OA
ATOM     26  C   UNL     1      -1.296  -1.150   0.000  0.00  0.00    +0.061 A 
ATOM     27  C   UNL     1      -1.167  -0.335   0.000  0.00  0.00    +0.006 A 
ENDROOT
BRANCH   4   3
ATOM      1  C   UNL     1      -0.780   2.110   0.000  0.00  0.00    +0.031 C 
ATOM      2  C   UNL     1      -0.909   1.295   0.000  0.00  0.00    -0.026 C 
ATOM      3  C   UNL     1      -0.268   0.776   0.000  0.00  0.00    -0.003 C 
ENDBRANCH   4   3
BRANCH  10  12
ATOM     12  S   UNL     1       0.125  -2.547   0.000  0.00  0.00    +0.063 S 
ATOM     13  O   UNL     1      -0.331  -1.859   0.000  0.00  0.00    -0.153 OA
ATOM     14  O   UNL     1       0.581  -3.235   0.000  0.00  0.00    -0.153 OA
BRANCH  12  15
ATOM     15  C   UNL     1      -0.563  -3.003   0.000  0.00  0.00    +0.122 A 
ATOM     16  C   UNL     1      -0.512  -3.826   0.000  0.00  0.00    +0.021 A 
ATOM     17  C   UNL     1      -1.200  -4.282   0.000  0.00  0.00    +0.013 A 
ATOM     18  C   UNL     1      -1.938  -3.914   0.000  0.00  0.00    +0.058 A 
ATOM     19 CL   UNL     1      -2.626  -4.370   0.000  0.00  0.00    -0.082 Cl
ATOM     20  C   UNL     1      -1.989  -3.091   0.000  0.00  0.00    +0.013 A 
ATOM     21  C   UNL     1      -1.301  -2.635   0.000  0.00  0.00    +0.021 A 
ENDBRANCH  12  15
ENDBRANCH  10  12
TORSDOF 3
