REMARK  Name = 
REMARK  4 active torsions:
REMARK  status: ('A' for Active; 'I' for Inactive)
REMARK    1  A    between atoms: C_2  and  C_26
REMARK    2  A    between atoms: N_3  and  C_4
REMARK    3  A    between atoms: C_8  and  N_12
REMARK    4  A    between atoms: C_16  and  C_17
REMARK                            x       y       z     vdW  Elec       q    Type
REMARK                         _______ _______ _______ _____ _____    ______ ____
ROOT
ATOM      4  C   UNL     1       5.131   3.332   0.000  0.00  0.00    +0.155 C 
ATOM      5  C   UNL     1       5.683   2.719   0.000  0.00  0.00    +0.166 C 
ATOM      6  O   UNL     1       5.270   2.005   0.000  0.00  0.00    -0.350 OA
ATOM      7  C   UNL     1       4.463   2.176   0.000  0.00  0.00    +0.169 C 
ATOM      8  C   UNL     1       3.710   1.841   0.000  0.00  0.00    +0.167 C 
ATOM      9  C   UNL     1       3.158   2.454   0.000  0.00  0.00    +0.169 C 
ATOM     10  O   UNL     1       3.570   3.168   0.000  0.00  0.00    -0.350 OA
ATOM     11  C   UNL     1       4.377   2.997   0.000  0.00  0.00    +0.167 C 
ENDROOT
BRANCH   8  12
ATOM     12  N   UNL     1       3.538   1.034   0.000  0.00  0.00    -0.210 N 
ATOM     13  N   UNL     1       4.090   0.420   0.000  0.00  0.00    -0.043 NA
ATOM     14  N   UNL     1       3.678  -0.294   0.000  0.00  0.00    -0.023 NA
ATOM     15  N   UNL     1       2.871  -0.122   0.000  0.00  0.00    -0.108 NA
ATOM     16  C   UNL     1       2.784   0.698   0.000  0.00  0.00    +0.184 A 
BRANCH  16  17
ATOM     17  C   UNL     1       2.070   1.110   0.000  0.00  0.00    +0.041 A 
ATOM     18  C   UNL     1       1.356   0.698   0.000  0.00  0.00    +0.043 A 
ATOM     19  C   UNL     1       0.641   1.110   0.000  0.00  0.00    +0.177 A 
ATOM     20  C   UNL     1       0.641   1.935   0.000  0.00  0.00    +0.176 A 
ATOM     21  O   UNL     1      -0.143   2.190   0.000  0.00  0.00    -0.435 OA
ATOM     22  C   UNL     1      -0.628   1.523   0.000  0.00  0.00    +0.429 C 
ATOM     23  O   UNL     1      -0.143   0.856   0.000  0.00  0.00    -0.435 OA
ATOM     24  C   UNL     1       1.356   2.348   0.000  0.00  0.00    +0.040 A 
ATOM     25  C   UNL     1       2.070   1.935   0.000  0.00  0.00    +0.006 A 
ENDBRANCH  16  17
ENDBRANCH   8  12
BRANCH   4   3
ATOM      1  O   UNL     1       3.905   4.436   0.000  0.00  0.00    -0.268 OA
ATOM      2  C   UNL     1       4.689   4.691   0.000  0.00  0.00    +0.265 C 
ATOM      3  N   UNL     1       5.302   4.139   0.000  0.00  0.00    -0.198 NA
BRANCH   2  26
ATOM     26  C   UNL     1       4.861   5.498   0.000  0.00  0.00    +0.055 A 
ATOM     27  C   UNL     1       4.248   6.050   0.000  0.00  0.00    +0.005 A 
ATOM     28  C   UNL     1       4.419   6.857   0.000  0.00  0.00    +0.000 A 
ATOM     29  C   UNL     1       5.204   7.112   0.000  0.00  0.00    +0.000 A 
ATOM     30  C   UNL     1       5.817   6.560   0.000  0.00  0.00    +0.000 A 
ATOM     31  C   UNL     1       5.645   5.753   0.000  0.00  0.00    +0.005 A 
ENDBRANCH   2  26
ENDBRANCH   4   3
TORSDOF 4
