REMARK  Name = 
REMARK  4 active torsions:
REMARK  status: ('A' for Active; 'I' for Inactive)
REMARK    1  A    between atoms: C_2  and  C_3
REMARK    2  A    between atoms: C_11  and  C_12
REMARK    3  A    between atoms: C_12  and  C_13
REMARK    4  A    between atoms: C_28  and  C_30
REMARK                            x       y       z     vdW  Elec       q    Type
REMARK                         _______ _______ _______ _____ _____    ______ ____
ROOT
ATOM      1  C   UNL     1       0.899  -2.282   0.000  0.00  0.00    +0.005 C 
ATOM      2  C   UNL     1       1.429  -1.650   0.000  0.00  0.00    +0.059 C 
ATOM      5  C   UNL     1       0.715  -1.238   0.000  0.00  0.00    +0.154 C 
ATOM      6  O   UNL     1       0.000  -1.650   0.000  0.00  0.00    -0.223 OA
ATOM      7  C   UNL     1       0.715  -0.412   0.000  0.00  0.00    +0.033 C 
ATOM      8  C   UNL     1       1.429   0.000   0.000  0.00  0.00    +0.003 C 
ATOM      9  C   UNL     1       2.143  -0.412   0.000  0.00  0.00    +0.006 C 
ATOM     10  C   UNL     1       2.143   0.412   0.000  0.00  0.00    +0.000 C 
ATOM     11  C   UNL     1       2.858   0.000   0.000  0.00  0.00    +0.050 C 
ATOM     21  C   UNL     1       3.572  -0.412   0.000  0.00  0.00    +0.063 A 
ATOM     22  C   UNL     1       3.572  -1.238   0.000  0.00  0.00    +0.023 A 
ATOM     23  C   UNL     1       2.858  -1.650   0.000  0.00  0.00    +0.034 C 
ATOM     24  C   UNL     1       2.143  -1.238   0.000  0.00  0.00    +0.010 C 
ATOM     25  S   UNL     1       4.357  -1.492   0.000  0.00  0.00    -0.054 S 
ATOM     26  C   UNL     1       4.842  -0.825   0.000  0.00  0.00    +0.185 A 
ATOM     27  N   UNL     1       5.667  -0.825   0.000  0.00  0.00    -0.154 NA
ATOM     28  C   UNL     1       6.079  -0.111   0.000  0.00  0.00    +0.247 C 
ATOM     29  O   UNL     1       5.667   0.604   0.000  0.00  0.00    -0.273 OA
ATOM     34  N   UNL     1       4.357  -0.158   0.000  0.00  0.00    -0.227 NA
ENDROOT
BRANCH  28  30
ATOM     30  C   UNL     1       6.904  -0.111   0.000  0.00  0.00    +0.079 C 
ATOM     31  C   UNL     1       7.488   0.473   0.000  0.00  0.00    +0.009 C 
ATOM     32  C   UNL     1       8.071  -0.111   0.000  0.00  0.00    +0.001 C 
ATOM     33  C   UNL     1       7.488  -0.694   0.000  0.00  0.00    +0.009 C 
ENDBRANCH  28  30
BRANCH   2   3
ATOM      3  C   UNL     1       1.959  -2.282   0.000  0.00  0.00    +0.184 C 
ATOM      4  O   UNL     1       2.772  -2.139   0.000  0.00  0.00    -0.220 OA
ENDBRANCH   2   3
BRANCH  11  12
ATOM     12  C   UNL     1       2.858   0.825   0.000  0.00  0.00    +0.093 C 
BRANCH  12  13
ATOM     13  C   UNL     1       2.143   1.238   0.000  0.00  0.00    +0.248 C 
ATOM     14  O   UNL     1       1.429   0.825   0.000  0.00  0.00    -0.273 OA
ATOM     15  N   UNL     1       2.143   2.062   0.000  0.00  0.00    -0.154 NA
ATOM     16  C   UNL     1       1.429   2.475   0.000  0.00  0.00    +0.186 A 
ATOM     17  N   UNL     1       0.675   2.139   0.000  0.00  0.00    -0.221 NA
ATOM     18  C   UNL     1       0.123   2.752   0.000  0.00  0.00    +0.108 A 
ATOM     19  C   UNL     1       0.536   3.467   0.000  0.00  0.00    +0.059 A 
ATOM     20  S   UNL     1       1.343   3.296   0.000  0.00  0.00    -0.049 S 
ENDBRANCH  12  13
ENDBRANCH  11  12
TORSDOF 4
