REMARK  Name = 
REMARK  8 active torsions:
REMARK  status: ('A' for Active; 'I' for Inactive)
REMARK    1  A    between atoms: O_2  and  C_3
REMARK    2  A    between atoms: C_3  and  C_4
REMARK    3  A    between atoms: C_4  and  O_5
REMARK    4  A    between atoms: O_5  and  C_6
REMARK    5  A    between atoms: C_9  and  C_12
REMARK    6  A    between atoms: N_14  and  C_15
REMARK    7  A    between atoms: N_25  and  C_26
REMARK    8  A    between atoms: C_30  and  O_31
REMARK                            x       y       z     vdW  Elec       q    Type
REMARK                         _______ _______ _______ _____ _____    ______ ____
ROOT
ATOM     15  C   UNL     1       6.469  -8.113   0.000  0.00  0.00    +0.146 C 
ATOM     16  C   UNL     1       7.151  -7.648   0.000  0.00  0.00    +0.119 C 
ATOM     17  N   UNL     1       7.939  -7.891   0.000  0.00  0.00    -0.261 N 
ATOM     18  C   UNL     1       8.240  -8.659   0.000  0.00  0.00    +0.095 C 
ATOM     19  C   UNL     1       7.828  -9.373   0.000  0.00  0.00    +0.024 C 
ATOM     20  C   UNL     1       7.012  -9.496   0.000  0.00  0.00    +0.037 C 
ATOM     21  C   UNL     1       6.407  -8.935   0.000  0.00  0.00    +0.174 C 
ATOM     22  O   UNL     1       5.639  -9.237   0.000  0.00  0.00    -0.221 OA
ATOM     23  C   UNL     1       8.500  -7.286   0.000  0.00  0.00    +0.328 C 
ATOM     24  O   UNL     1       8.257  -6.498   0.000  0.00  0.00    -0.250 OA
ATOM     25  N   UNL     1       9.304  -7.470   0.000  0.00  0.00    -0.162 NA
ENDROOT
BRANCH  25  26
ATOM     26  C   UNL     1       9.865  -6.865   0.000  0.00  0.00    +0.078 A 
ATOM     27  C   UNL     1       9.622  -6.077   0.000  0.00  0.00    +0.017 A 
ATOM     28  C   UNL     1      10.183  -5.472   0.000  0.00  0.00    +0.004 A 
ATOM     29  C   UNL     1      10.988  -5.655   0.000  0.00  0.00    +0.037 A 
ATOM     30  C   UNL     1      11.231  -6.444   0.000  0.00  0.00    +0.140 A 
ATOM     33  C   UNL     1      10.670  -7.049   0.000  0.00  0.00    +0.054 A 
BRANCH  30  31
ATOM     31  O   UNL     1      12.035  -6.627   0.000  0.00  0.00    -0.471 OA
ATOM     32  C   UNL     1      12.596  -6.023   0.000  0.00  0.00    +0.252 C 
ENDBRANCH  30  31
ENDBRANCH  25  26
BRANCH  15  14
ATOM     12  C   UNL     1       5.040  -8.113   0.000  0.00  0.00    +0.265 C 
ATOM     13  O   UNL     1       5.040  -8.938   0.000  0.00  0.00    -0.268 OA
ATOM     14  N   UNL     1       5.754  -7.700   0.000  0.00  0.00    -0.199 NA
BRANCH  12   9
ATOM      6  C   UNL     1       2.897  -6.875   0.000  0.00  0.00    +0.139 A 
ATOM      7  C   UNL     1       3.611  -6.463   0.000  0.00  0.00    +0.037 A 
ATOM      8  C   UNL     1       4.325  -6.875   0.000  0.00  0.00    +0.008 A 
ATOM      9  C   UNL     1       4.325  -7.700   0.000  0.00  0.00    +0.055 A 
ATOM     10  C   UNL     1       3.611  -8.113   0.000  0.00  0.00    +0.008 A 
ATOM     11  C   UNL     1       2.897  -7.700   0.000  0.00  0.00    +0.037 A 
BRANCH   6   5
ATOM      5  O   UNL     1       2.182  -6.463   0.000  0.00  0.00    -0.473 OA
BRANCH   5   4
ATOM      4  C   UNL     1       1.468  -6.875   0.000  0.00  0.00    +0.237 C 
BRANCH   4   3
ATOM      3  C   UNL     1       0.753  -6.463   0.000  0.00  0.00    +0.189 C 
BRANCH   3   2
ATOM      1  C   UNL     1      -0.676  -6.463   0.000  0.00  0.00    +0.174 C 
ATOM      2  O   UNL     1       0.039  -6.875   0.000  0.00  0.00    -0.347 OA
ENDBRANCH   3   2
ENDBRANCH   4   3
ENDBRANCH   5   4
ENDBRANCH   6   5
ENDBRANCH  12   9
ENDBRANCH  15  14
TORSDOF 8
