REMARK  Name = 
REMARK  2 active torsions:
REMARK  status: ('A' for Active; 'I' for Inactive)
REMARK    1  A    between atoms: C_7  and  C_9
REMARK    2  A    between atoms: C_15  and  C_18
REMARK                            x       y       z     vdW  Elec       q    Type
REMARK                         _______ _______ _______ _____ _____    ______ ____
ROOT
ATOM      9  C   UNL     1      -0.628  -0.698   0.000  0.00  0.00    +0.140 A 
ATOM     10  N   UNL     1      -0.143  -1.365   0.000  0.00  0.00    -0.229 NA
ATOM     11  C   UNL     1       0.641  -1.110   0.000  0.00  0.00    +0.100 A 
ATOM     12  C   UNL     1       0.641  -0.285   0.000  0.00  0.00    +0.100 A 
ATOM     13  N   UNL     1      -0.143  -0.030   0.000  0.00  0.00    -0.229 NA
ATOM     14  C   UNL     1       1.356   0.127   0.000  0.00  0.00    +0.025 A 
ATOM     15  C   UNL     1       2.070  -0.285   0.000  0.00  0.00    +0.073 A 
ATOM     16  C   UNL     1       2.070  -1.110   0.000  0.00  0.00    +0.005 A 
ATOM     17  C   UNL     1       1.356  -1.523   0.000  0.00  0.00    +0.021 A 
ENDROOT
BRANCH   9   7
ATOM      1  C   UNL     1      -4.144  -1.260   0.000  0.00  0.00    +0.095 C 
ATOM      2  C   UNL     1      -3.390  -1.595   0.000  0.00  0.00    +0.226 C 
ATOM      3  O   UNL     1      -3.304  -2.416   0.000  0.00  0.00    -0.275 OA
ATOM      4  N   UNL     1      -2.723  -1.110   0.000  0.00  0.00    -0.279 N 
ATOM      5  C   UNL     1      -2.723  -0.285   0.000  0.00  0.00    +0.094 C 
ATOM      6  C   UNL     1      -1.938  -0.030   0.000  0.00  0.00    +0.031 C 
ATOM      7  C   UNL     1      -1.453  -0.698   0.000  0.00  0.00    +0.080 C 
ATOM      8  C   UNL     1      -1.938  -1.365   0.000  0.00  0.00    +0.101 C 
ENDBRANCH   9   7
BRANCH  15  18
ATOM     18  C   UNL     1       2.784   0.127   0.000  0.00  0.00    +0.419 C 
ATOM     19  F   UNL     1       3.499   0.540   0.000  0.00  0.00    -0.166 F 
ATOM     20  F   UNL     1       3.197  -0.587   0.000  0.00  0.00    -0.166 F 
ATOM     21  F   UNL     1       2.372   0.842   0.000  0.00  0.00    -0.166 F 
ENDBRANCH  15  18
TORSDOF 2
