REMARK  Name = 
REMARK  8 active torsions:
REMARK  status: ('A' for Active; 'I' for Inactive)
REMARK    1  A    between atoms: O_2  and  C_3
REMARK    2  A    between atoms: C_3  and  C_4
REMARK    3  A    between atoms: C_13  and  C_15
REMARK    4  A    between atoms: C_23  and  C_24
REMARK    5  A    between atoms: C_24  and  C_25
REMARK    6  A    between atoms: N_27  and  C_28
REMARK    7  A    between atoms: C_28  and  C_29
REMARK    8  A    between atoms: C_32  and  O_33
REMARK                            x       y       z     vdW  Elec       q    Type
REMARK                         _______ _______ _______ _____ _____    ______ ____
ROOT
ATOM      4  C   UNL     1       5.365  -0.302   0.000  0.00  0.00    +0.277 C 
ATOM      5  O   UNL     1       4.952  -1.016   0.000  0.00  0.00    -0.270 OA
ATOM      6  N   UNL     1       4.952   0.412   0.000  0.00  0.00    -0.152 NA
ATOM      7  C   UNL     1       4.127   0.412   0.000  0.00  0.00    +0.185 A 
ATOM      8  N   UNL     1       3.643   1.080   0.000  0.00  0.00    -0.227 NA
ATOM      9  C   UNL     1       2.858   0.825   0.000  0.00  0.00    +0.063 A 
ATOM     10  C   UNL     1       2.858   0.000   0.000  0.00  0.00    +0.023 A 
ATOM     11  C   UNL     1       2.143  -0.412   0.000  0.00  0.00    +0.034 C 
ATOM     12  C   UNL     1       1.429   0.000   0.000  0.00  0.00    +0.010 C 
ATOM     13  C   UNL     1       0.715  -0.412   0.000  0.00  0.00    +0.059 C 
ATOM     14  C   UNL     1       1.245  -1.044   0.000  0.00  0.00    +0.005 C 
ATOM     17  C   UNL     1       0.000   0.000   0.000  0.00  0.00    +0.154 C 
ATOM     18  O   UNL     1      -0.715  -0.412   0.000  0.00  0.00    -0.223 OA
ATOM     19  C   UNL     1       0.000   0.825   0.000  0.00  0.00    +0.033 C 
ATOM     20  C   UNL     1       0.715   1.238   0.000  0.00  0.00    +0.003 C 
ATOM     21  C   UNL     1       1.429   0.825   0.000  0.00  0.00    +0.006 C 
ATOM     22  C   UNL     1       1.429   1.650   0.000  0.00  0.00    +0.000 C 
ATOM     23  C   UNL     1       2.143   1.238   0.000  0.00  0.00    +0.050 C 
ATOM     37  S   UNL     1       3.643  -0.255   0.000  0.00  0.00    -0.054 S 
ENDROOT
BRANCH  13  15
ATOM     15  C   UNL     1       0.184  -1.044   0.000  0.00  0.00    +0.184 C 
ATOM     16  O   UNL     1      -0.628  -0.901   0.000  0.00  0.00    -0.220 OA
ENDBRANCH  13  15
BRANCH   4   3
ATOM      3  C   UNL     1       6.190  -0.302   0.000  0.00  0.00    +0.229 C 
BRANCH   3   2
ATOM      1  C   UNL     1       7.427  -1.016   0.000  0.00  0.00    +0.175 C 
ATOM      2  O   UNL     1       6.602  -1.016   0.000  0.00  0.00    -0.342 OA
ENDBRANCH   3   2
ENDBRANCH   4   3
BRANCH  23  24
ATOM     24  C   UNL     1       2.143   2.062   0.000  0.00  0.00    +0.093 C 
BRANCH  24  25
ATOM     25  C   UNL     1       1.429   2.475   0.000  0.00  0.00    +0.242 C 
ATOM     26  O   UNL     1       0.715   2.062   0.000  0.00  0.00    -0.273 OA
ATOM     27  N   UNL     1       1.429   3.300   0.000  0.00  0.00    -0.201 NA
BRANCH  27  28
ATOM     28  C   UNL     1       0.715   3.712   0.000  0.00  0.00    +0.141 C 
BRANCH  28  29
ATOM     29  C   UNL     1       0.715   4.537   0.000  0.00  0.00    -0.000 A 
ATOM     30  C   UNL     1       0.000   4.950   0.000  0.00  0.00    +0.001 A 
ATOM     31  C   UNL     1       0.000   5.775   0.000  0.00  0.00    +0.037 A 
ATOM     32  C   UNL     1       0.715   6.188   0.000  0.00  0.00    +0.139 A 
ATOM     35  C   UNL     1       1.429   5.775   0.000  0.00  0.00    +0.037 A 
ATOM     36  C   UNL     1       1.429   4.950   0.000  0.00  0.00    +0.001 A 
BRANCH  32  33
ATOM     33  O   UNL     1       0.715   7.013   0.000  0.00  0.00    -0.471 OA
ATOM     34  C   UNL     1       0.000   7.425   0.000  0.00  0.00    +0.252 C 
ENDBRANCH  32  33
ENDBRANCH  28  29
ENDBRANCH  27  28
ENDBRANCH  24  25
ENDBRANCH  23  24
TORSDOF 8
