REMARK  Name = 
REMARK  5 active torsions:
REMARK  status: ('A' for Active; 'I' for Inactive)
REMARK    1  A    between atoms: C_2  and  C_3
REMARK    2  A    between atoms: N_5  and  S_13
REMARK    3  A    between atoms: C_8  and  C_9
REMARK    4  A    between atoms: C_9  and  C_10
REMARK    5  A    between atoms: S_13  and  C_16
REMARK                            x       y       z     vdW  Elec       q    Type
REMARK                         _______ _______ _______ _____ _____    ______ ____
ROOT
ATOM      3  C   UNL     1      -1.322   5.590   0.000  0.00  0.00    +0.018 C 
ATOM      4  C   UNL     1      -1.322   4.765   0.000  0.00  0.00    +0.096 C 
ATOM      5  N   UNL     1      -2.037   4.353   0.000  0.00  0.00    -0.155 NA
ATOM      6  C   UNL     1      -2.751   4.765   0.000  0.00  0.00    +0.096 C 
ATOM      7  C   UNL     1      -2.751   5.590   0.000  0.00  0.00    +0.020 C 
ATOM      8  C   UNL     1      -2.037   6.003   0.000  0.00  0.00    +0.014 C 
ENDROOT
BRANCH   5  13
ATOM     13  S   UNL     1      -2.037   3.528   0.000  0.00  0.00    +0.067 S 
ATOM     14  O   UNL     1      -2.862   3.528   0.000  0.00  0.00    -0.153 OA
ATOM     15  O   UNL     1      -1.212   3.528   0.000  0.00  0.00    -0.153 OA
BRANCH  13  16
ATOM     16  C   UNL     1      -2.037   2.703   0.000  0.00  0.00    +0.171 A 
ATOM     17  C   UNL     1      -1.369   2.218   0.000  0.00  0.00    +0.173 A 
ATOM     18  C   UNL     1      -0.585   2.473   0.000  0.00  0.00    +0.077 C 
ATOM     19  O   UNL     1      -1.624   1.433   0.000  0.00  0.00    -0.357 OA
ATOM     20  N   UNL     1      -2.449   1.433   0.000  0.00  0.00    -0.080 NA
ATOM     21  C   UNL     1      -2.704   2.218   0.000  0.00  0.00    +0.119 A 
ATOM     22  C   UNL     1      -3.489   2.473   0.000  0.00  0.00    +0.057 C 
ENDBRANCH  13  16
ENDBRANCH   5  13
BRANCH   3   2
ATOM      1  C   UNL     1      -0.608   6.828   0.000  0.00  0.00    +0.000 C 
ATOM      2  C   UNL     1      -0.608   6.003   0.000  0.00  0.00    +0.001 C 
ENDBRANCH   3   2
BRANCH   8   9
ATOM      9  C   UNL     1      -2.037   6.828   0.000  0.00  0.00    +0.114 C 
BRANCH   9  10
ATOM     10  C   UNL     1      -2.751   7.240   0.000  0.00  0.00    +0.365 C 
ATOM     11  O   UNL     1      -2.751   8.065   0.000  0.00  0.00    -0.246 OA
ATOM     12  O   UNL     1      -3.466   6.828   0.000  0.00  0.00    -0.246 OA
ENDBRANCH   9  10
ENDBRANCH   8   9
TORSDOF 5
