REMARK  Name = 
REMARK  9 active torsions:
REMARK  status: ('A' for Active; 'I' for Inactive)
REMARK    1  A    between atoms: C_2  and  C_4
REMARK    2  A    between atoms: C_6  and  C_7
REMARK    3  A    between atoms: C_7  and  C_8
REMARK    4  A    between atoms: N_10  and  C_11
REMARK    5  A    between atoms: C_19  and  C_20
REMARK    6  A    between atoms: C_20  and  N_21
REMARK    7  A    between atoms: C_22  and  C_24
REMARK    8  A    between atoms: C_24  and  O_25
REMARK    9  A    between atoms: O_25  and  C_26
REMARK                            x       y       z     vdW  Elec       q    Type
REMARK                         _______ _______ _______ _____ _____    ______ ____
ROOT
ATOM      4  C   UNL     1       1.429  -4.950   0.000  0.00  0.00    +0.006 C 
ATOM      5  C   UNL     1       0.715  -5.362   0.000  0.00  0.00    +0.005 C 
ATOM      6  C   UNL     1       0.000  -4.950   0.000  0.00  0.00    +0.027 C 
ATOM     16  C   UNL     1       0.000  -4.125   0.000  0.00  0.00    -0.048 C 
ATOM     17  C   UNL     1      -0.715  -3.712   0.000  0.00  0.00    +0.026 C 
ATOM     18  C   UNL     1       0.715  -3.712   0.000  0.00  0.00    -0.033 C 
ATOM     19  C   UNL     1       1.429  -4.125   0.000  0.00  0.00    +0.043 C 
ENDROOT
BRANCH   4   2
ATOM      1  C   UNL     1       2.858  -4.950   0.000  0.00  0.00    +0.000 C 
ATOM      2  C   UNL     1       2.143  -5.362   0.000  0.00  0.00    +0.000 C 
ATOM      3  C   UNL     1       2.143  -6.188   0.000  0.00  0.00    +0.000 C 
ENDBRANCH   4   2
BRANCH   6   7
ATOM      7  C   UNL     1      -0.715  -5.362   0.000  0.00  0.00    +0.091 C 
BRANCH   7   8
ATOM      8  C   UNL     1      -1.429  -4.950   0.000  0.00  0.00    +0.242 C 
ATOM      9  O   UNL     1      -1.429  -4.125   0.000  0.00  0.00    -0.273 OA
ATOM     10  N   UNL     1      -2.143  -5.362   0.000  0.00  0.00    -0.207 NA
BRANCH  10  11
ATOM     11  C   UNL     1      -2.858  -4.950   0.000  0.00  0.00    +0.095 C 
ATOM     12  C   UNL     1      -3.612  -5.286   0.000  0.00  0.00    +0.022 C 
ATOM     13  C   UNL     1      -4.164  -4.673   0.000  0.00  0.00    +0.002 C 
ATOM     14  C   UNL     1      -3.751  -3.958   0.000  0.00  0.00    +0.002 C 
ATOM     15  C   UNL     1      -2.944  -4.130   0.000  0.00  0.00    +0.022 C 
ENDBRANCH  10  11
ENDBRANCH   7   8
ENDBRANCH   6   7
BRANCH  19  20
ATOM     20  C   UNL     1       2.143  -3.712   0.000  0.00  0.00    +0.120 C 
BRANCH  20  21
ATOM     21  N   UNL     1       2.858  -4.125   0.000  0.00  0.00    -0.202 NA
ATOM     22  C   UNL     1       3.572  -3.712   0.000  0.00  0.00    +0.286 C 
ATOM     23  O   UNL     1       3.572  -2.888   0.000  0.00  0.00    -0.269 OA
BRANCH  22  24
ATOM     24  C   UNL     1       4.287  -4.125   0.000  0.00  0.00    +0.291 C 
BRANCH  24  25
ATOM     25  O   UNL     1       5.001  -3.712   0.000  0.00  0.00    -0.466 OA
BRANCH  25  26
ATOM     26  C   UNL     1       5.716  -4.125   0.000  0.00  0.00    +0.139 A 
ATOM     27  C   UNL     1       6.430  -3.712   0.000  0.00  0.00    +0.037 A 
ATOM     28  C   UNL     1       7.145  -4.125   0.000  0.00  0.00    +0.003 A 
ATOM     29  C   UNL     1       7.145  -4.950   0.000  0.00  0.00    +0.000 A 
ATOM     30  C   UNL     1       6.430  -5.362   0.000  0.00  0.00    +0.003 A 
ATOM     31  C   UNL     1       5.716  -4.950   0.000  0.00  0.00    +0.037 A 
ENDBRANCH  25  26
ENDBRANCH  24  25
ENDBRANCH  22  24
ENDBRANCH  20  21
ENDBRANCH  19  20
TORSDOF 9
