REMARK  Name = 
REMARK  5 active torsions:
REMARK  status: ('A' for Active; 'I' for Inactive)
REMARK    1  A    between atoms: C_5  and  N_8
REMARK    2  A    between atoms: N_8  and  C_9
REMARK    3  A    between atoms: C_12  and  C_13
REMARK    4  A    between atoms: C_13  and  N_14
REMARK    5  A    between atoms: C_15  and  C_17
REMARK                            x       y       z     vdW  Elec       q    Type
REMARK                         _______ _______ _______ _____ _____    ______ ____
ROOT
ATOM      9  C   UNL     1      -0.608   3.528   0.000  0.00  0.00    +0.135 C 
ATOM     10  C   UNL     1       0.060   3.043   0.000  0.00  0.00    +0.162 C 
ATOM     11  O   UNL     1      -0.195   2.258   0.000  0.00  0.00    -0.350 OA
ATOM     12  C   UNL     1      -1.020   2.258   0.000  0.00  0.00    +0.169 C 
ATOM     22  C   UNL     1      -1.275   3.043   0.000  0.00  0.00    +0.199 C 
ATOM     23  O   UNL     1      -2.060   3.298   0.000  0.00  0.00    -0.219 OA
ENDROOT
BRANCH   9   8
ATOM      8  N   UNL     1      -0.608   4.353   0.000  0.00  0.00    -0.216 NA
BRANCH   8   5
ATOM      1  C   UNL     1       2.250   6.003   0.000  0.00  0.00    +0.090 C 
ATOM      2  N   UNL     1       1.536   5.590   0.000  0.00  0.00    -0.271 NA
ATOM      3  C   UNL     1       1.536   4.765   0.000  0.00  0.00    +0.074 C 
ATOM      4  C   UNL     1       0.821   4.353   0.000  0.00  0.00    +0.035 C 
ATOM      5  C   UNL     1       0.107   4.765   0.000  0.00  0.00    +0.076 C 
ATOM      6  C   UNL     1       0.107   5.590   0.000  0.00  0.00    +0.035 C 
ATOM      7  C   UNL     1       0.821   6.003   0.000  0.00  0.00    +0.074 C 
ENDBRANCH   8   5
ENDBRANCH   9   8
BRANCH  12  13
ATOM     13  C   UNL     1      -1.505   1.591   0.000  0.00  0.00    +0.147 C 
BRANCH  13  14
ATOM     14  N   UNL     1      -2.326   1.677   0.000  0.00  0.00    -0.203 NA
ATOM     15  C   UNL     1      -2.811   1.010   0.000  0.00  0.00    +0.241 C 
ATOM     16  O   UNL     1      -2.475   0.256   0.000  0.00  0.00    -0.273 OA
BRANCH  15  17
ATOM     17  C   UNL     1      -3.631   1.096   0.000  0.00  0.00    +0.078 C 
ATOM     18  C   UNL     1      -4.183   0.483   0.000  0.00  0.00    +0.009 C 
ATOM     19  C   UNL     1      -4.937   0.818   0.000  0.00  0.00    +0.001 C 
ATOM     20  C   UNL     1      -4.851   1.639   0.000  0.00  0.00    +0.001 C 
ATOM     21  C   UNL     1      -4.044   1.810   0.000  0.00  0.00    +0.009 C 
ENDBRANCH  15  17
ENDBRANCH  13  14
ENDBRANCH  12  13
TORSDOF 5
