REMARK  Name = 
REMARK  5 active torsions:
REMARK  status: ('A' for Active; 'I' for Inactive)
REMARK    1  A    between atoms: C_3  and  C_4
REMARK    2  A    between atoms: C_4  and  N_5
REMARK    3  A    between atoms: C_14  and  C_15
REMARK    4  A    between atoms: C_15  and  C_16
REMARK    5  A    between atoms: C_16  and  C_17
REMARK                            x       y       z     vdW  Elec       q    Type
REMARK                         _______ _______ _______ _____ _____    ______ ____
ROOT
ATOM      5  N   UNL     1      -4.580  -0.420   0.000  0.00  0.00    -0.259 NA
ATOM      6  C   UNL     1      -4.244   0.334   0.000  0.00  0.00    +0.074 C 
ATOM      7  C   UNL     1      -4.857   0.886   0.000  0.00  0.00    +0.035 C 
ATOM      8  C   UNL     1      -5.572   0.473   0.000  0.00  0.00    +0.083 C 
ATOM      9  C   UNL     1      -5.400  -0.334   0.000  0.00  0.00    +0.152 C 
ATOM     10  C   UNL     1      -5.924  -0.971   0.000  0.00  0.00    +0.257 C 
ATOM     11  O   UNL     1      -5.577  -1.719   0.000  0.00  0.00    -0.272 OA
ATOM     12  N   UNL     1      -6.749  -0.959   0.000  0.00  0.00    -0.203 NA
ATOM     13  C   UNL     1      -7.254  -0.306   0.000  0.00  0.00    +0.131 C 
ATOM     14  C   UNL     1      -7.058   0.496   0.000  0.00  0.00    +0.080 C 
ATOM     24  N   UNL     1      -6.309   0.842   0.000  0.00  0.00    -0.271 NA
ATOM     25  C   UNL     1      -6.297   1.667   0.000  0.00  0.00    +0.090 C 
ENDROOT
BRANCH   5   4
ATOM      4  C   UNL     1      -4.167  -1.134   0.000  0.00  0.00    +0.137 C 
BRANCH   4   3
ATOM      1  C   UNL     1      -3.112  -2.586   0.000  0.00  0.00    +0.132 C 
ATOM      2  N   UNL     1      -2.857  -1.802   0.000  0.00  0.00    -0.312 N 
ATOM      3  C   UNL     1      -3.342  -1.134   0.000  0.00  0.00    +0.137 A 
ATOM     26  N   UNL     1      -2.857  -0.467   0.000  0.00  0.00    -0.230 NA
ATOM     27  C   UNL     1      -2.072  -0.722   0.000  0.00  0.00    +0.098 A 
ATOM     28  C   UNL     1      -2.072  -1.547   0.000  0.00  0.00    +0.079 A 
ATOM     29  C   UNL     1      -1.358  -1.959   0.000  0.00  0.00    +0.019 A 
ATOM     30  C   UNL     1      -0.643  -1.547   0.000  0.00  0.00    +0.002 A 
ATOM     31  C   UNL     1      -0.643  -0.722   0.000  0.00  0.00    +0.002 A 
ATOM     32  C   UNL     1      -1.358  -0.309   0.000  0.00  0.00    +0.021 A 
ENDBRANCH   4   3
ENDBRANCH   5   4
BRANCH  14  15
ATOM     15  C   UNL     1      -7.695   1.020   0.000  0.00  0.00    +0.027 C 
BRANCH  15  16
ATOM     16  C   UNL     1      -8.468   0.730   0.000  0.00  0.00    +0.087 C 
BRANCH  16  17
ATOM     17  C   UNL     1      -8.603  -0.084   0.000  0.00  0.00    +0.226 C 
ATOM     18  O   UNL     1      -7.965  -0.608   0.000  0.00  0.00    -0.275 OA
ATOM     19  N   UNL     1      -9.375  -0.374   0.000  0.00  0.00    -0.280 N 
ATOM     20  C   UNL     1      -9.595  -1.169   0.000  0.00  0.00    +0.093 C 
ATOM     21  C   UNL     1     -10.419  -1.206   0.000  0.00  0.00    +0.023 C 
ATOM     22  C   UNL     1     -10.709  -0.434   0.000  0.00  0.00    +0.023 C 
ATOM     23  C   UNL     1     -10.064   0.081   0.000  0.00  0.00    +0.093 C 
ENDBRANCH  16  17
ENDBRANCH  15  16
ENDBRANCH  14  15
TORSDOF 5
