REMARK  Name = 
REMARK  6 active torsions:
REMARK  status: ('A' for Active; 'I' for Inactive)
REMARK    1  A    between atoms: O_2  and  C_3
REMARK    2  A    between atoms: C_8  and  C_9
REMARK    3  A    between atoms: C_12  and  C_14
REMARK    4  A    between atoms: N_17  and  C_18
REMARK    5  A    between atoms: C_18  and  C_19
REMARK    6  A    between atoms: C_23  and  C_25
REMARK                            x       y       z     vdW  Elec       q    Type
REMARK                         _______ _______ _______ _____ _____    ______ ____
ROOT
ATOM     14  C   UNL     1      -2.412  -5.272   0.000  0.00  0.00    +0.096 C 
ATOM     15  C   UNL     1      -2.157  -6.057   0.000  0.00  0.00    +0.028 C 
ATOM     16  C   UNL     1      -2.824  -6.542   0.000  0.00  0.00    +0.073 C 
ATOM     17  N   UNL     1      -3.492  -6.057   0.000  0.00  0.00    -0.268 NA
ATOM     27  C   UNL     1      -3.237  -5.272   0.000  0.00  0.00    +0.082 C 
ENDROOT
BRANCH  14  12
ATOM      9  C   UNL     1      -1.514  -3.335   0.000  0.00  0.00    +0.252 A 
ATOM     10  N   UNL     1      -0.847  -3.820   0.000  0.00  0.00    -0.107 NA
ATOM     11  N   UNL     1      -1.102  -4.605   0.000  0.00  0.00    -0.111 NA
ATOM     12  C   UNL     1      -1.927  -4.605   0.000  0.00  0.00    +0.227 A 
ATOM     13  O   UNL     1      -2.182  -3.820   0.000  0.00  0.00    -0.419 OA
BRANCH   9   8
ATOM      3  C   UNL     1      -2.229  -2.098   0.000  0.00  0.00    +0.143 A 
ATOM      4  C   UNL     1      -2.229  -1.272   0.000  0.00  0.00    +0.037 A 
ATOM      5  C   UNL     1      -1.514  -0.860   0.000  0.00  0.00    +0.003 A 
ATOM      6  C   UNL     1      -0.800  -1.272   0.000  0.00  0.00    +0.000 A 
ATOM      7  C   UNL     1      -0.800  -2.098   0.000  0.00  0.00    +0.008 A 
ATOM      8  C   UNL     1      -1.514  -2.510   0.000  0.00  0.00    +0.089 A 
BRANCH   3   2
ATOM      1  C   UNL     1      -3.658  -2.098   0.000  0.00  0.00    +0.252 C 
ATOM      2  O   UNL     1      -2.943  -2.510   0.000  0.00  0.00    -0.471 OA
ENDBRANCH   3   2
ENDBRANCH   9   8
ENDBRANCH  14  12
BRANCH  17  18
ATOM     18  C   UNL     1      -4.276  -6.312   0.000  0.00  0.00    +0.099 C 
BRANCH  18  19
ATOM     19  C   UNL     1      -4.448  -7.119   0.000  0.00  0.00    -0.005 A 
ATOM     20  C   UNL     1      -3.835  -7.671   0.000  0.00  0.00    -0.003 A 
ATOM     21  C   UNL     1      -4.006  -8.477   0.000  0.00  0.00    +0.000 A 
ATOM     22  C   UNL     1      -4.791  -8.732   0.000  0.00  0.00    +0.010 A 
ATOM     23  C   UNL     1      -5.404  -8.180   0.000  0.00  0.00    +0.068 A 
ATOM     24  C   UNL     1      -5.232  -7.373   0.000  0.00  0.00    +0.007 A 
BRANCH  23  25
ATOM     25  C   UNL     1      -6.189  -8.435   0.000  0.00  0.00    +0.100 C 
ATOM     26  N   UNL     1      -6.973  -8.690   0.000  0.00  0.00    -0.191 NA
ENDBRANCH  23  25
ENDBRANCH  18  19
ENDBRANCH  17  18
TORSDOF 6
