REMARK  Name = 
REMARK  9 active torsions:
REMARK  status: ('A' for Active; 'I' for Inactive)
REMARK    1  A    between atoms: C_2  and  C_4
REMARK    2  A    between atoms: C_4  and  C_5
REMARK    3  A    between atoms: C_4  and  N_12
REMARK    4  A    between atoms: C_5  and  C_6
REMARK    5  A    between atoms: C_13  and  C_15
REMARK    6  A    between atoms: C_16  and  N_28
REMARK    7  A    between atoms: C_20  and  C_22
REMARK    8  A    between atoms: N_31  and  C_32
REMARK    9  A    between atoms: C_32  and  C_33
REMARK                            x       y       z     vdW  Elec       q    Type
REMARK                         _______ _______ _______ _____ _____    ______ ____
ROOT
ATOM     15  C   UNL     1      -1.896  -4.706   0.000  0.00  0.00    +0.174 C 
ATOM     16  C   UNL     1      -1.229  -4.221   0.000  0.00  0.00    +0.126 C 
ATOM     17  C   UNL     1      -0.561  -4.706   0.000  0.00  0.00    +0.045 C 
ATOM     18  C   UNL     1      -0.816  -5.490   0.000  0.00  0.00    +0.096 C 
ATOM     19  N   UNL     1      -1.641  -5.490   0.000  0.00  0.00    -0.267 N 
ATOM     20  C   UNL     1      -2.126  -6.158   0.000  0.00  0.00    +0.269 C 
ATOM     21  O   UNL     1      -2.947  -6.071   0.000  0.00  0.00    -0.268 OA
ENDROOT
BRANCH  20  22
ATOM     22  C   UNL     1      -1.791  -6.911   0.000  0.00  0.00    +0.154 A 
ATOM     23  C   UNL     1      -0.970  -6.998   0.000  0.00  0.00    +0.123 A 
ATOM     24  N   UNL     1      -0.635  -7.751   0.000  0.00  0.00    -0.239 NA
ATOM     25  C   UNL     1      -1.119  -8.419   0.000  0.00  0.00    +0.120 A 
ATOM     26  C   UNL     1      -1.940  -8.332   0.000  0.00  0.00    +0.120 A 
ATOM     27  N   UNL     1      -2.276  -7.579   0.000  0.00  0.00    -0.236 NA
ENDBRANCH  20  22
BRANCH  16  28
ATOM     28  N   UNL     1      -1.229  -3.396   0.000  0.00  0.00    -0.187 NA
ATOM     29  C   UNL     1      -0.514  -2.983   0.000  0.00  0.00    +0.340 C 
ATOM     30  O   UNL     1      -0.514  -2.158   0.000  0.00  0.00    -0.249 OA
ATOM     31  N   UNL     1       0.200  -3.396   0.000  0.00  0.00    -0.182 NA
BRANCH  31  32
ATOM     32  C   UNL     1       0.915  -2.983   0.000  0.00  0.00    +0.143 C 
BRANCH  32  33
ATOM     33  C   UNL     1       1.629  -3.396   0.000  0.00  0.00    -0.003 C 
ATOM     34  C   UNL     1       2.344  -2.983   0.000  0.00  0.00    -0.003 C 
ENDBRANCH  32  33
ENDBRANCH  31  32
ENDBRANCH  16  28
BRANCH  15  13
ATOM     12  N   UNL     1      -3.294  -5.003   0.000  0.00  0.00    -0.196 NA
ATOM     13  C   UNL     1      -2.681  -4.451   0.000  0.00  0.00    +0.262 C 
ATOM     14  O   UNL     1      -2.852  -3.644   0.000  0.00  0.00    -0.271 OA
BRANCH  12   4
ATOM      4  C   UNL     1      -4.079  -4.748   0.000  0.00  0.00    +0.179 C 
BRANCH   4   2
ATOM      1  N   UNL     1      -3.637  -3.389   0.000  0.00  0.00    -0.086 NA
ATOM      2  C   UNL     1      -4.250  -3.941   0.000  0.00  0.00    +0.281 C 
ATOM      3  O   UNL     1      -5.035  -3.686   0.000  0.00  0.00    -0.270 OA
ENDBRANCH   4   2
BRANCH   4   5
ATOM      5  C   UNL     1      -4.692  -5.300   0.000  0.00  0.00    +0.057 C 
BRANCH   5   6
ATOM      6  C   UNL     1      -5.476  -5.045   0.000  0.00  0.00    -0.020 A 
ATOM      7  C   UNL     1      -6.089  -5.597   0.000  0.00  0.00    -0.004 A 
ATOM      8  C   UNL     1      -6.874  -5.342   0.000  0.00  0.00    -0.000 A 
ATOM      9  C   UNL     1      -7.045  -4.535   0.000  0.00  0.00    -0.000 A 
ATOM     10  C   UNL     1      -6.432  -3.983   0.000  0.00  0.00    -0.000 A 
ATOM     11  C   UNL     1      -5.648  -4.238   0.000  0.00  0.00    -0.004 A 
ENDBRANCH   5   6
ENDBRANCH   4   5
ENDBRANCH  12   4
ENDBRANCH  15  13
TORSDOF 9
