REMARK  Name = 
REMARK  4 active torsions:
REMARK  status: ('A' for Active; 'I' for Inactive)
REMARK    1  A    between atoms: C_7  and  C_9
REMARK    2  A    between atoms: N_12  and  C_13
REMARK    3  A    between atoms: C_13  and  C_14
REMARK    4  A    between atoms: C_18  and  C_20
REMARK                            x       y       z     vdW  Elec       q    Type
REMARK                         _______ _______ _______ _____ _____    ______ ____
ROOT
ATOM      9  C   UNL     1      -1.453   1.523   0.000  0.00  0.00    +0.076 C 
ATOM     10  C   UNL     1      -1.938   0.856   0.000  0.00  0.00    +0.026 C 
ATOM     11  C   UNL     1      -2.723   1.110   0.000  0.00  0.00    +0.073 C 
ATOM     12  N   UNL     1      -2.723   1.935   0.000  0.00  0.00    -0.269 NA
ATOM     22  C   UNL     1      -1.938   2.190   0.000  0.00  0.00    +0.080 C 
ENDROOT
BRANCH   9   7
ATOM      1  F   UNL     1       2.784   0.698   0.000  0.00  0.00    -0.204 F 
ATOM      2  C   UNL     1       2.070   1.110   0.000  0.00  0.00    +0.142 A 
ATOM      3  C   UNL     1       1.356   0.698   0.000  0.00  0.00    +0.050 A 
ATOM      4  C   UNL     1       0.641   1.110   0.000  0.00  0.00    +0.102 A 
ATOM      5  C   UNL     1       0.641   1.935   0.000  0.00  0.00    +0.100 A 
ATOM      6  N   UNL     1      -0.143   2.190   0.000  0.00  0.00    -0.229 NA
ATOM      7  C   UNL     1      -0.628   1.523   0.000  0.00  0.00    +0.140 A 
ATOM      8  N   UNL     1      -0.143   0.856   0.000  0.00  0.00    -0.229 NA
ATOM     23  C   UNL     1       1.356   2.348   0.000  0.00  0.00    +0.023 A 
ATOM     24  C   UNL     1       2.070   1.935   0.000  0.00  0.00    +0.031 A 
ENDBRANCH   9   7
BRANCH  12  13
ATOM     13  C   UNL     1      -3.390   2.420   0.000  0.00  0.00    +0.099 C 
BRANCH  13  14
ATOM     14  C   UNL     1      -4.144   2.085   0.000  0.00  0.00    -0.005 A 
ATOM     15  C   UNL     1      -4.230   1.264   0.000  0.00  0.00    -0.003 A 
ATOM     16  C   UNL     1      -4.984   0.929   0.000  0.00  0.00    +0.000 A 
ATOM     17  C   UNL     1      -5.651   1.414   0.000  0.00  0.00    +0.010 A 
ATOM     18  C   UNL     1      -5.565   2.234   0.000  0.00  0.00    +0.068 A 
ATOM     19  C   UNL     1      -4.811   2.570   0.000  0.00  0.00    +0.007 A 
BRANCH  18  20
ATOM     20  C   UNL     1      -6.233   2.719   0.000  0.00  0.00    +0.100 C 
ATOM     21  N   UNL     1      -6.900   3.204   0.000  0.00  0.00    -0.191 NA
ENDBRANCH  18  20
ENDBRANCH  13  14
ENDBRANCH  12  13
TORSDOF 4
