REMARK  Name = 
REMARK  2 active torsions:
REMARK  status: ('A' for Active; 'I' for Inactive)
REMARK    1  A    between atoms: C_2  and  N_3
REMARK    2  A    between atoms: N_12  and  C_13
REMARK                            x       y       z     vdW  Elec       q    Type
REMARK                         _______ _______ _______ _____ _____    ______ ____
ROOT
ATOM      3  N   UNL     1       4.781   1.935   0.000  0.00  0.00    -0.188 NA
ATOM      4  C   UNL     1       4.067   2.348   0.000  0.00  0.00    +0.323 C 
ATOM      5  O   UNL     1       4.067   3.173   0.000  0.00  0.00    -0.251 OA
ATOM      6  N   UNL     1       3.352   1.935   0.000  0.00  0.00    -0.259 N 
ATOM      7  C   UNL     1       3.352   1.110   0.000  0.00  0.00    +0.117 C 
ATOM      8  C   UNL     1       2.638   0.698   0.000  0.00  0.00    +0.117 C 
ATOM      9  N   UNL     1       1.923   1.110   0.000  0.00  0.00    -0.261 N 
ATOM     10  C   UNL     1       1.923   1.935   0.000  0.00  0.00    +0.117 C 
ATOM     11  C   UNL     1       1.139   2.190   0.000  0.00  0.00    +0.116 C 
ATOM     12  N   UNL     1       0.654   1.523   0.000  0.00  0.00    -0.264 N 
ATOM     19  C   UNL     1       1.139   0.856   0.000  0.00  0.00    +0.307 C 
ATOM     20  O   UNL     1       0.884   0.071   0.000  0.00  0.00    -0.252 OA
ATOM     21  C   UNL     1       2.638   2.348   0.000  0.00  0.00    +0.117 C 
ENDROOT
BRANCH  12  13
ATOM     13  C   UNL     1      -0.171   1.523   0.000  0.00  0.00    +0.082 C 
ATOM     14  C   UNL     1      -0.584   0.808   0.000  0.00  0.00    +0.052 C 
ATOM     15  C   UNL     1      -1.409   0.808   0.000  0.00  0.00    +0.144 C 
ATOM     16  O   UNL     1      -1.821   1.523   0.000  0.00  0.00    -0.354 OA
ATOM     17  C   UNL     1      -1.409   2.237   0.000  0.00  0.00    +0.144 C 
ATOM     18  C   UNL     1      -0.584   2.237   0.000  0.00  0.00    +0.052 C 
ENDBRANCH  12  13
BRANCH   3   2
ATOM      1  C   UNL     1       6.210   1.935   0.000  0.00  0.00    +0.025 C 
ATOM      2  C   UNL     1       5.496   2.348   0.000  0.00  0.00    +0.117 C 
ENDBRANCH   3   2
TORSDOF 2
