REMARK  Name = 
REMARK  6 active torsions:
REMARK  status: ('A' for Active; 'I' for Inactive)
REMARK    1  A    between atoms: C_2  and  C_3
REMARK    2  A    between atoms: C_5  and  C_6
REMARK    3  A    between atoms: C_6  and  C_7
REMARK    4  A    between atoms: C_7  and  N_11
REMARK    5  A    between atoms: N_11  and  C_12
REMARK    6  A    between atoms: C_12  and  C_13
REMARK                            x       y       z     vdW  Elec       q    Type
REMARK                         _______ _______ _______ _____ _____    ______ ____
ROOT
ATOM      7  C   UNL     1      -2.858  -1.650   0.000  0.00  0.00    +0.120 C 
ATOM      8  C   UNL     1      -2.445  -2.365   0.000  0.00  0.00    +0.161 C 
ATOM      9  O   UNL     1      -3.160  -2.777   0.000  0.00  0.00    -0.351 OA
ATOM     10  C   UNL     1      -3.572  -2.062   0.000  0.00  0.00    +0.161 C 
ENDROOT
BRANCH   7   6
ATOM      6  C   UNL     1      -3.270  -0.935   0.000  0.00  0.00    +0.070 C 
BRANCH   6   5
ATOM      3  C   UNL     1      -1.866   0.672   0.000  0.00  0.00    +0.187 A 
ATOM      4  C   UNL     1      -2.037  -0.135   0.000  0.00  0.00    +0.056 A 
ATOM      5  C   UNL     1      -2.858  -0.221   0.000  0.00  0.00    +0.102 A 
ATOM     23  N   UNL     1      -3.193   0.533   0.000  0.00  0.00    -0.082 NA
ATOM     24  O   UNL     1      -2.580   1.085   0.000  0.00  0.00    -0.355 OA
BRANCH   3   2
ATOM      1  O   UNL     1      -1.026   1.828   0.000  0.00  0.00    -0.212 OA
ATOM      2  C   UNL     1      -1.112   1.008   0.000  0.00  0.00    +0.249 C 
ENDBRANCH   3   2
ENDBRANCH   6   5
ENDBRANCH   7   6
BRANCH   7  11
ATOM     11  N   UNL     1      -2.143  -1.238   0.000  0.00  0.00    -0.211 NA
BRANCH  11  12
ATOM     12  C   UNL     1      -1.429  -1.650   0.000  0.00  0.00    +0.117 C 
BRANCH  12  13
ATOM     13  C   UNL     1      -0.715  -1.238   0.000  0.00  0.00    +0.014 A 
ATOM     14  C   UNL     1       0.000  -1.650   0.000  0.00  0.00    +0.000 A 
ATOM     15  C   UNL     1       0.715  -1.238   0.000  0.00  0.00    +0.017 A 
ATOM     16  C   UNL     1       0.715  -0.412   0.000  0.00  0.00    +0.081 A 
ATOM     17  C   UNL     1       1.429   0.000   0.000  0.00  0.00    +0.019 A 
ATOM     18  C   UNL     1       2.143  -0.412   0.000  0.00  0.00    +0.002 A 
ATOM     19  C   UNL     1       2.143  -1.238   0.000  0.00  0.00    +0.000 A 
ATOM     20  C   UNL     1       1.429  -1.650   0.000  0.00  0.00    +0.001 A 
ATOM     21  N   UNL     1       0.000   0.000   0.000  0.00  0.00    -0.244 NA
ATOM     22  C   UNL     1      -0.715  -0.412   0.000  0.00  0.00    +0.096 A 
ENDBRANCH  12  13
ENDBRANCH  11  12
ENDBRANCH   7  11
TORSDOF 6
