REMARK  Name = 
REMARK  10 active torsions:
REMARK  status: ('A' for Active; 'I' for Inactive)
REMARK    1  A    between atoms: C_2  and  C_3
REMARK    2  A    between atoms: C_3  and  C_4
REMARK    3  A    between atoms: C_3  and  C_6
REMARK    4  A    between atoms: N_8  and  C_9
REMARK    5  A    between atoms: C_9  and  C_10
REMARK    6  A    between atoms: C_12  and  C_13
REMARK    7  A    between atoms: C_13  and  C_14
REMARK    8  A    between atoms: C_17  and  C_18
REMARK    9  A    between atoms: C_18  and  O_19
REMARK   10  A    between atoms: O_19  and  C_20
REMARK                            x       y       z     vdW  Elec       q    Type
REMARK                         _______ _______ _______ _____ _____    ______ ____
ROOT
ATOM     10  C   UNL     1       1.895  -9.067   0.000  0.00  0.00    +0.167 C 
ATOM     11  O   UNL     1       2.720  -9.067   0.000  0.00  0.00    -0.354 OA
ATOM     12  C   UNL     1       3.133  -9.782   0.000  0.00  0.00    +0.121 C 
ATOM     27  C   UNL     1       2.720 -10.496   0.000  0.00  0.00    +0.033 C 
ATOM     28  C   UNL     1       1.895 -10.496   0.000  0.00  0.00    +0.038 C 
ATOM     29  C   UNL     1       1.483  -9.782   0.000  0.00  0.00    +0.181 C 
ATOM     30  O   UNL     1       0.658  -9.782   0.000  0.00  0.00    -0.220 OA
ENDROOT
BRANCH  10   9
ATOM      9  C   UNL     1       1.483  -8.353   0.000  0.00  0.00    +0.147 C 
BRANCH   9   8
ATOM      6  C   UNL     1       0.245  -7.638   0.000  0.00  0.00    +0.241 C 
ATOM      7  O   UNL     1       0.658  -6.924   0.000  0.00  0.00    -0.273 OA
ATOM      8  N   UNL     1       0.658  -8.353   0.000  0.00  0.00    -0.203 NA
BRANCH   6   3
ATOM      3  C   UNL     1      -0.580  -7.638   0.000  0.00  0.00    +0.078 C 
BRANCH   3   2
ATOM      1  C   UNL     1      -1.817  -6.924   0.000  0.00  0.00    +0.001 C 
ATOM      2  C   UNL     1      -0.992  -6.924   0.000  0.00  0.00    +0.009 C 
ENDBRANCH   3   2
BRANCH   3   4
ATOM      4  C   UNL     1      -0.992  -8.353   0.000  0.00  0.00    +0.009 C 
ATOM      5  C   UNL     1      -1.817  -8.353   0.000  0.00  0.00    +0.001 C 
ENDBRANCH   3   4
ENDBRANCH   6   3
ENDBRANCH   9   8
ENDBRANCH  10   9
BRANCH  12  13
ATOM     13  C   UNL     1       3.958  -9.782   0.000  0.00  0.00    +0.079 C 
BRANCH  13  14
ATOM     14  C   UNL     1       4.370  -9.067   0.000  0.00  0.00    +0.103 A 
ATOM     15  N   UNL     1       4.035  -8.314   0.000  0.00  0.00    -0.082 NA
ATOM     16  O   UNL     1       4.648  -7.762   0.000  0.00  0.00    -0.354 OA
ATOM     17  C   UNL     1       5.362  -8.174   0.000  0.00  0.00    +0.198 A 
ATOM     26  C   UNL     1       5.191  -8.981   0.000  0.00  0.00    +0.057 A 
BRANCH  17  18
ATOM     18  C   UNL     1       6.116  -7.838   0.000  0.00  0.00    +0.272 C 
BRANCH  18  19
ATOM     19  O   UNL     1       6.202  -7.018   0.000  0.00  0.00    -0.467 OA
BRANCH  19  20
ATOM     20  C   UNL     1       6.956  -6.683   0.000  0.00  0.00    +0.139 A 
ATOM     21  C   UNL     1       7.042  -5.862   0.000  0.00  0.00    +0.037 A 
ATOM     22  C   UNL     1       7.796  -5.527   0.000  0.00  0.00    +0.003 A 
ATOM     23  C   UNL     1       8.463  -6.011   0.000  0.00  0.00    +0.000 A 
ATOM     24  C   UNL     1       8.377  -6.832   0.000  0.00  0.00    +0.003 A 
ATOM     25  C   UNL     1       7.623  -7.167   0.000  0.00  0.00    +0.037 A 
ENDBRANCH  19  20
ENDBRANCH  18  19
ENDBRANCH  17  18
ENDBRANCH  13  14
ENDBRANCH  12  13
TORSDOF 10
