REMARK  Name = 
REMARK  6 active torsions:
REMARK  status: ('A' for Active; 'I' for Inactive)
REMARK    1  A    between atoms: C_3  and  C_4
REMARK    2  A    between atoms: C_4  and  N_5
REMARK    3  A    between atoms: C_6  and  C_8
REMARK    4  A    between atoms: C_13  and  N_14
REMARK    5  A    between atoms: N_14  and  C_15
REMARK    6  A    between atoms: C_15  and  C_16
REMARK                            x       y       z     vdW  Elec       q    Type
REMARK                         _______ _______ _______ _____ _____    ______ ____
ROOT
ATOM      1  O   UNL     1       3.097  -1.836   0.000  0.00  0.00    -0.219 OA
ATOM      2  C   UNL     1       2.483  -2.388   0.000  0.00  0.00    +0.199 C 
ATOM      3  C   UNL     1       2.570  -3.209   0.000  0.00  0.00    +0.169 C 
ATOM     11  O   UNL     1       1.816  -3.544   0.000  0.00  0.00    -0.350 OA
ATOM     12  C   UNL     1       1.264  -2.931   0.000  0.00  0.00    +0.162 C 
ATOM     13  C   UNL     1       1.677  -2.217   0.000  0.00  0.00    +0.135 C 
ENDROOT
BRANCH   3   4
ATOM      4  C   UNL     1       3.284  -3.621   0.000  0.00  0.00    +0.147 C 
BRANCH   4   5
ATOM      5  N   UNL     1       3.284  -4.446   0.000  0.00  0.00    -0.203 NA
ATOM      6  C   UNL     1       3.999  -4.859   0.000  0.00  0.00    +0.241 C 
ATOM      7  O   UNL     1       4.713  -4.446   0.000  0.00  0.00    -0.273 OA
BRANCH   6   8
ATOM      8  C   UNL     1       3.999  -5.684   0.000  0.00  0.00    +0.078 C 
ATOM      9  C   UNL     1       4.411  -6.398   0.000  0.00  0.00    +0.010 C 
ATOM     10  C   UNL     1       3.586  -6.398   0.000  0.00  0.00    +0.010 C 
ENDBRANCH   6   8
ENDBRANCH   4   5
ENDBRANCH   3   4
BRANCH  13  14
ATOM     14  N   UNL     1       1.341  -1.463   0.000  0.00  0.00    -0.208 NA
BRANCH  14  15
ATOM     15  C   UNL     1       0.520  -1.377   0.000  0.00  0.00    +0.136 C 
BRANCH  15  16
ATOM     16  C   UNL     1       0.185  -0.623   0.000  0.00  0.00    +0.097 A 
ATOM     17  C   UNL     1      -0.622  -0.452   0.000  0.00  0.00    +0.117 A 
ATOM     18  N   UNL     1      -0.708   0.369   0.000  0.00  0.00    -0.221 NA
ATOM     19  C   UNL     1       0.045   0.704   0.000  0.00  0.00    +0.199 A 
ATOM     20  N   UNL     1       0.598   0.091   0.000  0.00  0.00    -0.225 NA
ENDBRANCH  15  16
ENDBRANCH  14  15
ENDBRANCH  13  14
TORSDOF 6
